MODEL 1
REMARK VINA RESULT:      -5.5      0.000      0.000
REMARK  Name = 
REMARK  35 active torsions:
REMARK  status: ('A' for Active; 'I' for Inactive)
REMARK    1  A    between atoms: C_1  and  C_2
REMARK    2  A    between atoms: C_2  and  C_3
REMARK    3  A    between atoms: C_3  and  C_4
REMARK    4  A    between atoms: C_4  and  C_5
REMARK    5  A    between atoms: C_5  and  C_6
REMARK    6  A    between atoms: C_6  and  C_7
REMARK    7  A    between atoms: C_7  and  C_8
REMARK    8  A    between atoms: C_8  and  S_10
REMARK    9  A    between atoms: S_10  and  C_11
REMARK   10  A    between atoms: C_11  and  C_12
REMARK   11  A    between atoms: C_12  and  N_13
REMARK   12  A    between atoms: C_14  and  C_16
REMARK   13  A    between atoms: C_16  and  C_17
REMARK   14  A    between atoms: C_17  and  N_18
REMARK   15  A    between atoms: C_19  and  C_21
REMARK   16  A    between atoms: C_21  and  O_23
REMARK   17  A    between atoms: C_21  and  C_24
REMARK   18  A    between atoms: C_24  and  C_25
REMARK   19  A    between atoms: C_24  and  C_26
REMARK   20  A    between atoms: C_24  and  C_27
REMARK   21  A    between atoms: C_27  and  O_28
REMARK   22  A    between atoms: O_28  and  P_29
REMARK   23  A    between atoms: P_29  and  O_30
REMARK   24  A    between atoms: P_29  and  O_32
REMARK   25  A    between atoms: O_32  and  P_33
REMARK   26  A    between atoms: P_33  and  O_34
REMARK   27  A    between atoms: P_33  and  O_36
REMARK   28  A    between atoms: O_36  and  C_37
REMARK   29  A    between atoms: C_37  and  C_38
REMARK   30  A    between atoms: C_41  and  N_53
REMARK   31  A    between atoms: C_43  and  O_45
REMARK   32  A    between atoms: C_46  and  O_48
REMARK   33  A    between atoms: O_48  and  P_49
REMARK   34  A    between atoms: P_49  and  O_50
REMARK   35  A    between atoms: P_49  and  O_51
REMARK                            x       y       z     vdW  Elec       q    Type
REMARK                         _______ _______ _______ _____ _____    ______ ____
ROOT
ATOM      1  P   UNL     1       5.797  -5.644  22.138  0.00  0.00    +0.483 P 
ATOM      2  O   UNL     1       5.305  -4.296  21.605  0.00  0.00    -0.227 OA
ENDROOT
BRANCH   1   3
ATOM      3  O   UNL     1       7.339  -5.257  21.454  0.00  0.00    -0.302 OA
ATOM      4  H   UNL     1       7.838  -6.087  21.610  0.00  0.00    +0.222 HD
ENDBRANCH   1   3
BRANCH   1   5
ATOM      5  O   UNL     1       4.256  -6.031  22.821  0.00  0.00    -0.186 OA
BRANCH   5   6
ATOM      6  P   UNL     1       3.045  -5.381  23.594  0.00  0.00    +0.483 P 
ATOM      7  O   UNL     1       1.779  -5.318  22.794  0.00  0.00    -0.227 OA
BRANCH   6   8
ATOM      8  O   UNL     1       3.561  -3.959  24.052  0.00  0.00    -0.302 OA
ATOM      9  H   UNL     1       2.799  -3.340  24.227  0.00  0.00    +0.222 HD
ENDBRANCH   6   8
BRANCH   6  10
ATOM     10  O   UNL     1       2.869  -6.117  25.048  0.00  0.00    -0.284 OA
BRANCH  10  11
ATOM     11  C   UNL     1       1.991  -5.458  25.978  0.00  0.00    +0.206 C 
BRANCH  11  12
ATOM     12  C   UNL     1       2.545  -5.036  27.360  0.00  0.00    +0.179 C 
ATOM     13  C   UNL     1       4.008  -4.601  27.338  0.00  0.00    +0.194 C 
ATOM     14  C   UNL     1       3.957  -3.085  27.453  0.00  0.00    +0.196 C 
ATOM     15  C   UNL     1       2.464  -2.749  27.520  0.00  0.00    +0.253 C 
ATOM     16  O   UNL     1       1.783  -3.947  27.913  0.00  0.00    -0.346 OA
BRANCH  15  17
ATOM     17  N   UNL     1       2.167  -1.663  28.436  0.00  0.00    -0.286 N 
ATOM     18  C   UNL     1       2.308  -0.341  28.104  0.00  0.00    +0.167 A 
ATOM     19  N   UNL     1       2.812   0.161  26.962  0.00  0.00    -0.216 NA
ATOM     20  C   UNL     1       2.777   1.509  26.985  0.00  0.00    +0.225 A 
ATOM     21  N   UNL     1       2.324   2.321  27.964  0.00  0.00    -0.219 NA
ATOM     22  C   UNL     1       1.815   1.759  29.087  0.00  0.00    +0.147 A 
ATOM     23  N   UNL     1       1.338   2.606  30.077  0.00  0.00    -0.341 N 
ATOM     24  H   UNL     1       1.291   2.180  30.996  0.00  0.00    +0.144 HD
ATOM     25  H   UNL     1       1.721   3.539  30.006  0.00  0.00    +0.144 HD
ATOM     26  C   UNL     1       1.813   0.358  29.190  0.00  0.00    +0.147 A 
ATOM     27  N   UNL     1       1.409  -0.512  30.183  0.00  0.00    -0.231 NA
ATOM     28  C   UNL     1       1.631  -1.718  29.693  0.00  0.00    +0.203 A 
ENDBRANCH  15  17
BRANCH  14  29
ATOM     29  O   UNL     1       4.590  -2.479  26.325  0.00  0.00    -0.385 OA
ATOM     30  H   UNL     1       5.555  -2.622  26.439  0.00  0.00    +0.210 HD
ENDBRANCH  14  29
BRANCH  13  31
ATOM     31  O   UNL     1       4.686  -5.078  28.507  0.00  0.00    -0.278 OA
BRANCH  31  32
ATOM     32  P   UNL     1       5.418  -6.496  28.440  0.00  0.00    +0.473 P 
ATOM     33  O   UNL     1       6.776  -6.569  29.043  0.00  0.00    -0.228 OA
BRANCH  32  34
ATOM     34  O   UNL     1       5.314  -6.836  26.886  0.00  0.00    -0.303 OA
ATOM     35  H   UNL     1       6.189  -7.075  26.531  0.00  0.00    +0.222 HD
ENDBRANCH  32  34
BRANCH  32  36
ATOM     36  O   UNL     1       4.369  -7.542  29.025  0.00  0.00    -0.303 OA
ATOM     37  H   UNL     1       3.667  -7.736  28.375  0.00  0.00    +0.222 HD
ENDBRANCH  32  36
ENDBRANCH  31  32
ENDBRANCH  13  31
ENDBRANCH  11  12
ENDBRANCH  10  11
ENDBRANCH   6  10
ENDBRANCH   5   6
ENDBRANCH   1   5
BRANCH   1  38
ATOM     38  O   UNL     1       6.340  -5.280  23.632  0.00  0.00    -0.286 OA
BRANCH  38  39
ATOM     39  C   UNL     1       7.705  -5.113  23.953  0.00  0.00    +0.181 C 
BRANCH  39  40
ATOM     40  C   UNL     1       8.093  -3.855  24.783  0.00  0.00    +0.024 C 
ATOM     41  C   UNL     1       7.589  -4.106  26.222  0.00  0.00    +0.016 C 
ATOM     42  C   UNL     1       9.636  -3.745  24.904  0.00  0.00    +0.016 C 
BRANCH  40  43
ATOM     43  C   UNL     1       7.468  -2.532  24.217  0.00  0.00    +0.208 C 
BRANCH  43  46
ATOM     44  N   UNL     1       9.046  -0.880  23.231  0.00  0.00    -0.313 N 
ATOM     45  H   UNL     1       8.749  -0.232  23.959  0.00  0.00    +0.149 HD
ATOM     46  C   UNL     1       8.216  -1.973  22.986  0.00  0.00    +0.242 C 
ATOM     47  O   UNL     1       8.169  -2.506  21.868  0.00  0.00    -0.273 OA
BRANCH  44  48
ATOM     48  C   UNL     1       9.767  -0.335  22.087  0.00  0.00    +0.113 C 
BRANCH  48  49
ATOM     49  C   UNL     1       9.764   1.176  21.938  0.00  0.00    +0.114 C 
BRANCH  49  52
ATOM     50  N   UNL     1      10.887   3.293  22.588  0.00  0.00    -0.314 N 
ATOM     51  H   UNL     1      10.777   3.636  21.639  0.00  0.00    +0.149 HD
ATOM     52  C   UNL     1      10.483   2.037  22.958  0.00  0.00    +0.215 C 
ATOM     53  O   UNL     1      10.647   1.623  24.105  0.00  0.00    -0.276 OA
BRANCH  50  54
ATOM     54  C   UNL     1      11.589   4.176  23.512  0.00  0.00    +0.115 C 
BRANCH  54  55
ATOM     55  C   UNL     1      11.180   5.666  23.530  0.00  0.00    +0.096 C 
BRANCH  55  56
ATOM     56  S   UNL     1       9.794   6.081  24.605  0.00  0.00    -0.087 S 
BRANCH  56  57
ATOM     57  C   UNL     1       8.376   5.774  23.616  0.00  0.00    +0.189 C 
ATOM     58  O   UNL     1       8.095   6.625  22.772  0.00  0.00    -0.285 OA
BRANCH  57  59
ATOM     59  C   UNL     1       7.688   4.420  23.660  0.00  0.00    +0.086 C 
BRANCH  59  60
ATOM     60  C   UNL     1       7.279   3.925  22.247  0.00  0.00    +0.008 C 
BRANCH  60  61
ATOM     61  C   UNL     1       6.325   2.734  22.313  0.00  0.00    +0.000 C 
BRANCH  61  62
ATOM     62  C   UNL     1       5.789   2.483  23.726  0.00  0.00    +0.000 C 
BRANCH  62  63
ATOM     63  C   UNL     1       5.998   1.017  24.117  0.00  0.00    -0.000 C 
BRANCH  63  65
ATOM     64  C   UNL     1       7.780   0.950  25.891  0.00  0.00    +0.004 C 
ATOM     65  C   UNL     1       6.288   0.844  25.607  0.00  0.00    -0.003 C 
ENDBRANCH  63  65
ENDBRANCH  62  63
ENDBRANCH  61  62
ENDBRANCH  60  61
ENDBRANCH  59  60
ENDBRANCH  57  59
ENDBRANCH  56  57
ENDBRANCH  55  56
ENDBRANCH  54  55
ENDBRANCH  50  54
ENDBRANCH  49  52
ENDBRANCH  48  49
ENDBRANCH  44  48
ENDBRANCH  43  46
BRANCH  43  66
ATOM     66  O   UNL     1       6.064  -2.628  24.060  0.00  0.00    -0.382 OA
ATOM     67  H   UNL     1       5.671  -1.800  24.397  0.00  0.00    +0.210 HD
ENDBRANCH  43  66
ENDBRANCH  40  43
ENDBRANCH  39  40
ENDBRANCH  38  39
ENDBRANCH   1  38
TORSDOF 32
ENDMDL
MODEL 2
REMARK VINA RESULT:      -5.4      2.574      4.676
REMARK  Name = 
REMARK  35 active torsions:
REMARK  status: ('A' for Active; 'I' for Inactive)
REMARK    1  A    between atoms: C_1  and  C_2
REMARK    2  A    between atoms: C_2  and  C_3
REMARK    3  A    between atoms: C_3  and  C_4
REMARK    4  A    between atoms: C_4  and  C_5
REMARK    5  A    between atoms: C_5  and  C_6
REMARK    6  A    between atoms: C_6  and  C_7
REMARK    7  A    between atoms: C_7  and  C_8
REMARK    8  A    between atoms: C_8  and  S_10
REMARK    9  A    between atoms: S_10  and  C_11
REMARK   10  A    between atoms: C_11  and  C_12
REMARK   11  A    between atoms: C_12  and  N_13
REMARK   12  A    between atoms: C_14  and  C_16
REMARK   13  A    between atoms: C_16  and  C_17
REMARK   14  A    between atoms: C_17  and  N_18
REMARK   15  A    between atoms: C_19  and  C_21
REMARK   16  A    between atoms: C_21  and  O_23
REMARK   17  A    between atoms: C_21  and  C_24
REMARK   18  A    between atoms: C_24  and  C_25
REMARK   19  A    between atoms: C_24  and  C_26
REMARK   20  A    between atoms: C_24  and  C_27
REMARK   21  A    between atoms: C_27  and  O_28
REMARK   22  A    between atoms: O_28  and  P_29
REMARK   23  A    between atoms: P_29  and  O_30
REMARK   24  A    between atoms: P_29  and  O_32
REMARK   25  A    between atoms: O_32  and  P_33
REMARK   26  A    between atoms: P_33  and  O_34
REMARK   27  A    between atoms: P_33  and  O_36
REMARK   28  A    between atoms: O_36  and  C_37
REMARK   29  A    between atoms: C_37  and  C_38
REMARK   30  A    between atoms: C_41  and  N_53
REMARK   31  A    between atoms: C_43  and  O_45
REMARK   32  A    between atoms: C_46  and  O_48
REMARK   33  A    between atoms: O_48  and  P_49
REMARK   34  A    between atoms: P_49  and  O_50
REMARK   35  A    between atoms: P_49  and  O_51
REMARK                            x       y       z     vdW  Elec       q    Type
REMARK                         _______ _______ _______ _____ _____    ______ ____
ROOT
ATOM      1  P   UNL     1       8.451  -4.078  24.485  0.00  0.00    +0.483 P 
ATOM      2  O   UNL     1       9.050  -5.482  24.356  0.00  0.00    -0.227 OA
ENDROOT
BRANCH   1   3
ATOM      3  O   UNL     1       9.196  -3.996  26.045  0.00  0.00    -0.302 OA
ATOM      4  H   UNL     1      10.147  -4.027  25.811  0.00  0.00    +0.222 HD
ENDBRANCH   1   3
BRANCH   1   5
ATOM      5  O   UNL     1       7.707  -4.161  22.926  0.00  0.00    -0.186 OA
BRANCH   5   6
ATOM      6  P   UNL     1       6.580  -4.923  22.130  0.00  0.00    +0.483 P 
ATOM      7  O   UNL     1       7.101  -5.828  21.055  0.00  0.00    -0.227 OA
BRANCH   6   8
ATOM      8  O   UNL     1       5.624  -3.791  21.579  0.00  0.00    -0.302 OA
ATOM      9  H   UNL     1       4.975  -3.499  22.277  0.00  0.00    +0.222 HD
ENDBRANCH   6   8
BRANCH   6  10
ATOM     10  O   UNL     1       5.576  -5.671  23.190  0.00  0.00    -0.284 OA
BRANCH  10  11
ATOM     11  C   UNL     1       4.212  -5.212  23.185  0.00  0.00    +0.206 C 
BRANCH  11  12
ATOM     12  C   UNL     1       3.497  -4.976  24.537  0.00  0.00    +0.179 C 
ATOM     13  C   UNL     1       4.068  -5.793  25.694  0.00  0.00    +0.194 C 
ATOM     14  C   UNL     1       4.867  -4.789  26.511  0.00  0.00    +0.196 C 
ATOM     15  C   UNL     1       4.713  -3.463  25.760  0.00  0.00    +0.253 C 
ATOM     16  O   UNL     1       3.558  -3.591  24.921  0.00  0.00    -0.346 OA
BRANCH  15  17
ATOM     17  N   UNL     1       4.584  -2.321  26.645  0.00  0.00    -0.286 N 
ATOM     18  C   UNL     1       5.633  -1.505  26.977  0.00  0.00    +0.167 A 
ATOM     19  N   UNL     1       6.925  -1.664  26.636  0.00  0.00    -0.216 NA
ATOM     20  C   UNL     1       7.670  -0.653  27.129  0.00  0.00    +0.225 A 
ATOM     21  N   UNL     1       7.268   0.404  27.867  0.00  0.00    -0.219 NA
ATOM     22  C   UNL     1       5.953   0.519  28.169  0.00  0.00    +0.147 A 
ATOM     23  N   UNL     1       5.552   1.619  28.914  0.00  0.00    -0.341 N 
ATOM     24  H   UNL     1       4.666   1.493  29.391  0.00  0.00    +0.144 HD
ATOM     25  H   UNL     1       6.315   2.034  29.432  0.00  0.00    +0.144 HD
ATOM     26  C   UNL     1       5.075  -0.485  27.725  0.00  0.00    +0.147 A 
ATOM     27  N   UNL     1       3.718  -0.685  27.882  0.00  0.00    -0.231 NA
ATOM     28  C   UNL     1       3.457  -1.795  27.215  0.00  0.00    +0.203 A 
ENDBRANCH  15  17
BRANCH  14  29
ATOM     29  O   UNL     1       6.234  -5.196  26.600  0.00  0.00    -0.385 OA
ATOM     30  H   UNL     1       6.594  -4.781  27.413  0.00  0.00    +0.210 HD
ENDBRANCH  14  29
BRANCH  13  31
ATOM     31  O   UNL     1       3.011  -6.261  26.541  0.00  0.00    -0.278 OA
BRANCH  31  32
ATOM     32  P   UNL     1       2.044  -7.408  25.992  0.00  0.00    +0.473 P 
ATOM     33  O   UNL     1       0.895  -6.964  25.159  0.00  0.00    -0.228 OA
BRANCH  32  34
ATOM     34  O   UNL     1       1.685  -8.191  27.334  0.00  0.00    -0.303 OA
ATOM     35  H   UNL     1       2.381  -8.840  27.546  0.00  0.00    +0.222 HD
ENDBRANCH  32  34
BRANCH  32  36
ATOM     36  O   UNL     1       3.003  -8.473  25.297  0.00  0.00    -0.303 OA
ATOM     37  H   UNL     1       2.848  -9.369  25.651  0.00  0.00    +0.222 HD
ENDBRANCH  32  36
ENDBRANCH  31  32
ENDBRANCH  13  31
ENDBRANCH  11  12
ENDBRANCH  10  11
ENDBRANCH   6  10
ENDBRANCH   5   6
ENDBRANCH   1   5
BRANCH   1  38
ATOM     38  O   UNL     1       9.609  -3.118  23.854  0.00  0.00    -0.286 OA
BRANCH  38  39
ATOM     39  C   UNL     1       9.400  -2.253  22.758  0.00  0.00    +0.181 C 
BRANCH  39  40
ATOM     40  C   UNL     1       9.182  -0.745  23.072  0.00  0.00    +0.024 C 
ATOM     41  C   UNL     1      10.114  -0.402  24.256  0.00  0.00    +0.016 C 
ATOM     42  C   UNL     1       9.683   0.129  21.891  0.00  0.00    +0.016 C 
BRANCH  40  43
ATOM     43  C   UNL     1       7.695  -0.406  23.443  0.00  0.00    +0.208 C 
BRANCH  43  46
ATOM     44  N   UNL     1       6.475   1.445  22.314  0.00  0.00    -0.313 N 
ATOM     45  H   UNL     1       6.518   0.891  21.461  0.00  0.00    +0.149 HD
ATOM     46  C   UNL     1       7.359   1.098  23.334  0.00  0.00    +0.242 C 
ATOM     47  O   UNL     1       7.763   1.941  24.149  0.00  0.00    -0.273 OA
BRANCH  44  48
ATOM     48  C   UNL     1       6.138   2.858  22.192  0.00  0.00    +0.113 C 
BRANCH  48  49
ATOM     49  C   UNL     1       4.723   3.255  22.574  0.00  0.00    +0.114 C 
BRANCH  49  52
ATOM     50  N   UNL     1       3.890   4.439  24.590  0.00  0.00    -0.314 N 
ATOM     51  H   UNL     1       3.913   5.315  24.078  0.00  0.00    +0.149 HD
ATOM     52  C   UNL     1       4.307   3.260  24.031  0.00  0.00    +0.215 C 
ATOM     53  O   UNL     1       4.301   2.209  24.672  0.00  0.00    -0.276 OA
BRANCH  50  54
ATOM     54  C   UNL     1       3.480   4.523  25.988  0.00  0.00    +0.115 C 
BRANCH  54  55
ATOM     55  C   UNL     1       4.403   5.293  26.960  0.00  0.00    +0.096 C 
BRANCH  55  56
ATOM     56  S   UNL     1       6.096   4.681  27.076  0.00  0.00    -0.087 S 
BRANCH  56  57
ATOM     57  C   UNL     1       6.943   5.511  25.781  0.00  0.00    +0.189 C 
ATOM     58  O   UNL     1       6.279   6.291  25.097  0.00  0.00    -0.285 OA
BRANCH  57  59
ATOM     59  C   UNL     1       8.456   5.431  25.678  0.00  0.00    +0.086 C 
BRANCH  59  60
ATOM     60  C   UNL     1       9.148   6.712  26.213  0.00  0.00    +0.008 C 
BRANCH  60  61
ATOM     61  C   UNL     1      10.471   6.986  25.501  0.00  0.00    +0.000 C 
BRANCH  61  62
ATOM     62  C   UNL     1      10.608   6.209  24.188  0.00  0.00    +0.000 C 
BRANCH  62  63
ATOM     63  C   UNL     1      12.062   5.774  23.982  0.00  0.00    -0.000 C 
BRANCH  63  65
ATOM     64  C   UNL     1      11.043   3.530  23.479  0.00  0.00    +0.004 C 
ATOM     65  C   UNL     1      12.179   4.492  23.159  0.00  0.00    -0.003 C 
ENDBRANCH  63  65
ENDBRANCH  62  63
ENDBRANCH  61  62
ENDBRANCH  60  61
ENDBRANCH  59  60
ENDBRANCH  57  59
ENDBRANCH  56  57
ENDBRANCH  55  56
ENDBRANCH  54  55
ENDBRANCH  50  54
ENDBRANCH  49  52
ENDBRANCH  48  49
ENDBRANCH  44  48
ENDBRANCH  43  46
BRANCH  43  66
ATOM     66  O   UNL     1       6.773  -1.264  22.794  0.00  0.00    -0.382 OA
ATOM     67  H   UNL     1       7.277  -2.013  22.422  0.00  0.00    +0.210 HD
ENDBRANCH  43  66
ENDBRANCH  40  43
ENDBRANCH  39  40
ENDBRANCH  38  39
ENDBRANCH   1  38
TORSDOF 32
ENDMDL
MODEL 3
REMARK VINA RESULT:      -5.3      3.487      6.830
REMARK  Name = 
REMARK  35 active torsions:
REMARK  status: ('A' for Active; 'I' for Inactive)
REMARK    1  A    between atoms: C_1  and  C_2
REMARK    2  A    between atoms: C_2  and  C_3
REMARK    3  A    between atoms: C_3  and  C_4
REMARK    4  A    between atoms: C_4  and  C_5
REMARK    5  A    between atoms: C_5  and  C_6
REMARK    6  A    between atoms: C_6  and  C_7
REMARK    7  A    between atoms: C_7  and  C_8
REMARK    8  A    between atoms: C_8  and  S_10
REMARK    9  A    between atoms: S_10  and  C_11
REMARK   10  A    between atoms: C_11  and  C_12
REMARK   11  A    between atoms: C_12  and  N_13
REMARK   12  A    between atoms: C_14  and  C_16
REMARK   13  A    between atoms: C_16  and  C_17
REMARK   14  A    between atoms: C_17  and  N_18
REMARK   15  A    between atoms: C_19  and  C_21
REMARK   16  A    between atoms: C_21  and  O_23
REMARK   17  A    between atoms: C_21  and  C_24
REMARK   18  A    between atoms: C_24  and  C_25
REMARK   19  A    between atoms: C_24  and  C_26
REMARK   20  A    between atoms: C_24  and  C_27
REMARK   21  A    between atoms: C_27  and  O_28
REMARK   22  A    between atoms: O_28  and  P_29
REMARK   23  A    between atoms: P_29  and  O_30
REMARK   24  A    between atoms: P_29  and  O_32
REMARK   25  A    between atoms: O_32  and  P_33
REMARK   26  A    between atoms: P_33  and  O_34
REMARK   27  A    between atoms: P_33  and  O_36
REMARK   28  A    between atoms: O_36  and  C_37
REMARK   29  A    between atoms: C_37  and  C_38
REMARK   30  A    between atoms: C_41  and  N_53
REMARK   31  A    between atoms: C_43  and  O_45
REMARK   32  A    between atoms: C_46  and  O_48
REMARK   33  A    between atoms: O_48  and  P_49
REMARK   34  A    between atoms: P_49  and  O_50
REMARK   35  A    between atoms: P_49  and  O_51
REMARK                            x       y       z     vdW  Elec       q    Type
REMARK                         _______ _______ _______ _____ _____    ______ ____
ROOT
ATOM      1  P   UNL     1       6.341   0.553  27.442  0.00  0.00    +0.483 P 
ATOM      2  O   UNL     1       6.866   1.105  26.114  0.00  0.00    -0.227 OA
ENDROOT
BRANCH   1   3
ATOM      3  O   UNL     1       7.949   0.729  28.055  0.00  0.00    -0.302 OA
ATOM      4  H   UNL     1       7.781   0.868  29.011  0.00  0.00    +0.222 HD
ENDBRANCH   1   3
BRANCH   1   5
ATOM      5  O   UNL     1       4.733   0.376  26.828  0.00  0.00    -0.186 OA
BRANCH   5   6
ATOM      6  P   UNL     1       3.224   0.398  27.282  0.00  0.00    +0.483 P 
ATOM      7  O   UNL     1       2.348   1.272  26.436  0.00  0.00    -0.227 OA
BRANCH   6   8
ATOM      8  O   UNL     1       3.255   0.835  28.800  0.00  0.00    -0.302 OA
ATOM      9  H   UNL     1       2.556   0.356  29.326  0.00  0.00    +0.222 HD
ENDBRANCH   6   8
BRANCH   6  10
ATOM     10  O   UNL     1       2.675  -1.140  27.426  0.00  0.00    -0.284 OA
BRANCH  10  11
ATOM     11  C   UNL     1       3.320  -1.940  28.434  0.00  0.00    +0.206 C 
BRANCH  11  12
ATOM     12  C   UNL     1       4.424  -2.936  28.006  0.00  0.00    +0.179 C 
ATOM     13  C   UNL     1       4.102  -4.395  28.321  0.00  0.00    +0.194 C 
ATOM     14  C   UNL     1       3.730  -5.003  26.978  0.00  0.00    +0.196 C 
ATOM     15  C   UNL     1       3.850  -3.847  25.979  0.00  0.00    +0.253 C 
ATOM     16  O   UNL     1       4.679  -2.851  26.592  0.00  0.00    -0.346 OA
BRANCH  15  17
ATOM     17  N   UNL     1       4.396  -4.257  24.699  0.00  0.00    -0.286 N 
ATOM     18  C   UNL     1       5.716  -4.571  24.511  0.00  0.00    +0.167 A 
ATOM     19  N   UNL     1       6.711  -4.471  25.412  0.00  0.00    -0.216 NA
ATOM     20  C   UNL     1       7.876  -4.888  24.873  0.00  0.00    +0.225 A 
ATOM     21  N   UNL     1       8.107  -5.351  23.627  0.00  0.00    -0.219 NA
ATOM     22  C   UNL     1       7.065  -5.442  22.767  0.00  0.00    +0.147 A 
ATOM     23  N   UNL     1       7.314  -5.936  21.495  0.00  0.00    -0.341 N 
ATOM     24  H   UNL     1       6.617  -5.674  20.807  0.00  0.00    +0.144 HD
ATOM     25  H   UNL     1       8.289  -5.860  21.234  0.00  0.00    +0.144 HD
ATOM     26  C   UNL     1       5.798  -5.020  23.206  0.00  0.00    +0.147 A 
ATOM     27  N   UNL     1       4.564  -4.950  22.591  0.00  0.00    -0.231 NA
ATOM     28  C   UNL     1       3.745  -4.493  23.520  0.00  0.00    +0.203 A 
ENDBRANCH  15  17
BRANCH  14  29
ATOM     29  O   UNL     1       2.405  -5.535  27.022  0.00  0.00    -0.385 OA
ATOM     30  H   UNL     1       2.474  -6.472  26.739  0.00  0.00    +0.210 HD
ENDBRANCH  14  29
BRANCH  13  31
ATOM     31  O   UNL     1       5.281  -5.078  28.768  0.00  0.00    -0.278 OA
BRANCH  31  32
ATOM     32  P   UNL     1       5.125  -6.533  29.408  0.00  0.00    +0.473 P 
ATOM     33  O   UNL     1       3.810  -6.846  30.028  0.00  0.00    -0.228 OA
BRANCH  32  34
ATOM     34  O   UNL     1       6.394  -6.595  30.370  0.00  0.00    -0.303 OA
ATOM     35  H   UNL     1       6.876  -7.433  30.245  0.00  0.00    +0.222 HD
ENDBRANCH  32  34
BRANCH  32  36
ATOM     36  O   UNL     1       5.587  -7.547  28.271  0.00  0.00    -0.303 OA
ATOM     37  H   UNL     1       5.532  -7.134  27.388  0.00  0.00    +0.222 HD
ENDBRANCH  32  36
ENDBRANCH  31  32
ENDBRANCH  13  31
ENDBRANCH  11  12
ENDBRANCH  10  11
ENDBRANCH   6  10
ENDBRANCH   5   6
ENDBRANCH   1   5
BRANCH   1  38
ATOM     38  O   UNL     1       5.862   1.891  28.240  0.00  0.00    -0.286 OA
BRANCH  38  39
ATOM     39  C   UNL     1       6.730   2.946  28.596  0.00  0.00    +0.181 C 
BRANCH  39  40
ATOM     40  C   UNL     1       6.441   4.346  27.978  0.00  0.00    +0.024 C 
ATOM     41  C   UNL     1       6.831   5.388  29.050  0.00  0.00    +0.016 C 
ATOM     42  C   UNL     1       7.393   4.614  26.782  0.00  0.00    +0.016 C 
BRANCH  40  43
ATOM     43  C   UNL     1       4.938   4.535  27.567  0.00  0.00    +0.208 C 
BRANCH  43  46
ATOM     44  N   UNL     1       4.780   3.091  25.547  0.00  0.00    -0.313 N 
ATOM     45  H   UNL     1       5.452   2.470  25.995  0.00  0.00    +0.149 HD
ATOM     46  C   UNL     1       4.692   4.388  26.048  0.00  0.00    +0.242 C 
ATOM     47  O   UNL     1       4.343   5.333  25.326  0.00  0.00    -0.273 OA
BRANCH  44  48
ATOM     48  C   UNL     1       4.548   2.924  24.117  0.00  0.00    +0.113 C 
BRANCH  48  49
ATOM     49  C   UNL     1       5.729   3.188  23.201  0.00  0.00    +0.114 C 
BRANCH  49  52
ATOM     50  N   UNL     1       6.367   0.789  23.193  0.00  0.00    -0.314 N 
ATOM     51  H   UNL     1       5.805   0.643  24.025  0.00  0.00    +0.149 HD
ATOM     52  C   UNL     1       6.512   2.026  22.623  0.00  0.00    +0.215 C 
ATOM     53  O   UNL     1       7.219   2.195  21.630  0.00  0.00    -0.276 OA
BRANCH  50  54
ATOM     54  C   UNL     1       7.092  -0.375  22.696  0.00  0.00    +0.115 C 
BRANCH  54  55
ATOM     55  C   UNL     1       7.639  -1.378  23.737  0.00  0.00    +0.096 C 
BRANCH  55  56
ATOM     56  S   UNL     1       9.434  -1.538  23.798  0.00  0.00    -0.087 S 
BRANCH  56  57
ATOM     57  C   UNL     1       9.946  -0.235  24.858  0.00  0.00    +0.189 C 
ATOM     58  O   UNL     1       9.665  -0.350  26.051  0.00  0.00    -0.285 OA
BRANCH  57  59
ATOM     59  C   UNL     1      10.881   0.848  24.348  0.00  0.00    +0.086 C 
BRANCH  59  60
ATOM     60  C   UNL     1      10.224   1.716  23.242  0.00  0.00    +0.008 C 
BRANCH  60  61
ATOM     61  C   UNL     1      10.676   3.173  23.317  0.00  0.00    +0.000 C 
BRANCH  61  62
ATOM     62  C   UNL     1       9.616   4.091  23.931  0.00  0.00    +0.000 C 
BRANCH  62  63
ATOM     63  C   UNL     1      10.145   5.527  24.014  0.00  0.00    -0.000 C 
BRANCH  63  65
ATOM     64  C   UNL     1       8.121   6.024  22.605  0.00  0.00    +0.004 C 
ATOM     65  C   UNL     1       9.082   6.564  23.654  0.00  0.00    -0.003 C 
ENDBRANCH  63  65
ENDBRANCH  62  63
ENDBRANCH  61  62
ENDBRANCH  60  61
ENDBRANCH  59  60
ENDBRANCH  57  59
ENDBRANCH  56  57
ENDBRANCH  55  56
ENDBRANCH  54  55
ENDBRANCH  50  54
ENDBRANCH  49  52
ENDBRANCH  48  49
ENDBRANCH  44  48
ENDBRANCH  43  46
BRANCH  43  66
ATOM     66  O   UNL     1       4.061   3.778  28.382  0.00  0.00    -0.382 OA
ATOM     67  H   UNL     1       3.948   4.261  29.223  0.00  0.00    +0.210 HD
ENDBRANCH  43  66
ENDBRANCH  40  43
ENDBRANCH  39  40
ENDBRANCH  38  39
ENDBRANCH   1  38
TORSDOF 32
ENDMDL
MODEL 4
REMARK VINA RESULT:      -5.2      2.120      3.565
REMARK  Name = 
REMARK  35 active torsions:
REMARK  status: ('A' for Active; 'I' for Inactive)
REMARK    1  A    between atoms: C_1  and  C_2
REMARK    2  A    between atoms: C_2  and  C_3
REMARK    3  A    between atoms: C_3  and  C_4
REMARK    4  A    between atoms: C_4  and  C_5
REMARK    5  A    between atoms: C_5  and  C_6
REMARK    6  A    between atoms: C_6  and  C_7
REMARK    7  A    between atoms: C_7  and  C_8
REMARK    8  A    between atoms: C_8  and  S_10
REMARK    9  A    between atoms: S_10  and  C_11
REMARK   10  A    between atoms: C_11  and  C_12
REMARK   11  A    between atoms: C_12  and  N_13
REMARK   12  A    between atoms: C_14  and  C_16
REMARK   13  A    between atoms: C_16  and  C_17
REMARK   14  A    between atoms: C_17  and  N_18
REMARK   15  A    between atoms: C_19  and  C_21
REMARK   16  A    between atoms: C_21  and  O_23
REMARK   17  A    between atoms: C_21  and  C_24
REMARK   18  A    between atoms: C_24  and  C_25
REMARK   19  A    between atoms: C_24  and  C_26
REMARK   20  A    between atoms: C_24  and  C_27
REMARK   21  A    between atoms: C_27  and  O_28
REMARK   22  A    between atoms: O_28  and  P_29
REMARK   23  A    between atoms: P_29  and  O_30
REMARK   24  A    between atoms: P_29  and  O_32
REMARK   25  A    between atoms: O_32  and  P_33
REMARK   26  A    between atoms: P_33  and  O_34
REMARK   27  A    between atoms: P_33  and  O_36
REMARK   28  A    between atoms: O_36  and  C_37
REMARK   29  A    between atoms: C_37  and  C_38
REMARK   30  A    between atoms: C_41  and  N_53
REMARK   31  A    between atoms: C_43  and  O_45
REMARK   32  A    between atoms: C_46  and  O_48
REMARK   33  A    between atoms: O_48  and  P_49
REMARK   34  A    between atoms: P_49  and  O_50
REMARK   35  A    between atoms: P_49  and  O_51
REMARK                            x       y       z     vdW  Elec       q    Type
REMARK                         _______ _______ _______ _____ _____    ______ ____
ROOT
ATOM      1  P   UNL     1       6.088  -5.110  22.823  0.00  0.00    +0.483 P 
ATOM      2  O   UNL     1       5.004  -4.253  22.163  0.00  0.00    -0.227 OA
ENDROOT
BRANCH   1   3
ATOM      3  O   UNL     1       7.187  -4.474  21.647  0.00  0.00    -0.302 OA
ATOM      4  H   UNL     1       7.900  -4.116  22.217  0.00  0.00    +0.222 HD
ENDBRANCH   1   3
BRANCH   1   5
ATOM      5  O   UNL     1       4.988  -5.744  23.997  0.00  0.00    -0.186 OA
BRANCH   5   6
ATOM      6  P   UNL     1       3.656  -6.578  24.125  0.00  0.00    +0.483 P 
ATOM      7  O   UNL     1       3.816  -7.868  24.870  0.00  0.00    -0.227 OA
BRANCH   6   8
ATOM      8  O   UNL     1       3.149  -6.777  22.641  0.00  0.00    -0.302 OA
ATOM      9  H   UNL     1       3.914  -6.855  22.007  0.00  0.00    +0.222 HD
ENDBRANCH   6   8
BRANCH   6  10
ATOM     10  O   UNL     1       2.467  -5.618  24.720  0.00  0.00    -0.284 OA
BRANCH  10  11
ATOM     11  C   UNL     1       2.889  -4.326  25.193  0.00  0.00    +0.206 C 
BRANCH  11  12
ATOM     12  C   UNL     1       2.972  -4.078  26.718  0.00  0.00    +0.179 C 
ATOM     13  C   UNL     1       4.291  -4.521  27.349  0.00  0.00    +0.194 C 
ATOM     14  C   UNL     1       5.046  -3.225  27.602  0.00  0.00    +0.196 C 
ATOM     15  C   UNL     1       4.116  -2.123  27.087  0.00  0.00    +0.253 C 
ATOM     16  O   UNL     1       2.798  -2.684  27.028  0.00  0.00    -0.346 OA
BRANCH  15  17
ATOM     17  N   UNL     1       4.133  -0.932  27.914  0.00  0.00    -0.286 N 
ATOM     18  C   UNL     1       5.173  -0.041  27.926  0.00  0.00    +0.167 A 
ATOM     19  N   UNL     1       6.348  -0.154  27.279  0.00  0.00    -0.216 NA
ATOM     20  C   UNL     1       7.120   0.927  27.514  0.00  0.00    +0.225 A 
ATOM     21  N   UNL     1       6.843   2.008  28.273  0.00  0.00    -0.219 NA
ATOM     22  C   UNL     1       5.640   2.074  28.891  0.00  0.00    +0.147 A 
ATOM     23  N   UNL     1       5.363   3.199  29.655  0.00  0.00    -0.341 N 
ATOM     24  H   UNL     1       4.635   3.059  30.346  0.00  0.00    +0.144 HD
ATOM     25  H   UNL     1       6.200   3.689  29.940  0.00  0.00    +0.144 HD
ATOM     26  C   UNL     1       4.750   0.997  28.737  0.00  0.00    +0.147 A 
ATOM     27  N   UNL     1       3.493   0.736  29.242  0.00  0.00    -0.231 NA
ATOM     28  C   UNL     1       3.150  -0.429  28.722  0.00  0.00    +0.203 A 
ENDBRANCH  15  17
BRANCH  14  29
ATOM     29  O   UNL     1       6.297  -3.235  26.910  0.00  0.00    -0.385 OA
ATOM     30  H   UNL     1       6.269  -4.004  26.300  0.00  0.00    +0.210 HD
ENDBRANCH  14  29
BRANCH  13  31
ATOM     31  O   UNL     1       4.053  -5.114  28.632  0.00  0.00    -0.278 OA
BRANCH  31  32
ATOM     32  P   UNL     1       4.747  -6.513  28.968  0.00  0.00    +0.473 P 
ATOM     33  O   UNL     1       4.014  -7.408  29.902  0.00  0.00    -0.228 OA
BRANCH  32  34
ATOM     34  O   UNL     1       6.200  -6.046  29.427  0.00  0.00    -0.303 OA
ATOM     35  H   UNL     1       6.285  -6.103  30.396  0.00  0.00    +0.222 HD
ENDBRANCH  32  34
BRANCH  32  36
ATOM     36  O   UNL     1       5.097  -7.161  27.556  0.00  0.00    -0.303 OA
ATOM     37  H   UNL     1       4.995  -6.510  26.835  0.00  0.00    +0.222 HD
ENDBRANCH  32  36
ENDBRANCH  31  32
ENDBRANCH  13  31
ENDBRANCH  11  12
ENDBRANCH  10  11
ENDBRANCH   6  10
ENDBRANCH   5   6
ENDBRANCH   1   5
BRANCH   1  38
ATOM     38  O   UNL     1       6.701  -4.122  23.967  0.00  0.00    -0.286 OA
BRANCH  38  39
ATOM     39  C   UNL     1       8.061  -3.749  24.035  0.00  0.00    +0.181 C 
BRANCH  39  40
ATOM     40  C   UNL     1       8.386  -2.228  23.974  0.00  0.00    +0.024 C 
ATOM     41  C   UNL     1       7.051  -1.504  23.693  0.00  0.00    +0.016 C 
ATOM     42  C   UNL     1       8.843  -1.718  25.367  0.00  0.00    +0.016 C 
BRANCH  40  43
ATOM     43  C   UNL     1       9.436  -1.871  22.863  0.00  0.00    +0.208 C 
BRANCH  43  46
ATOM     44  N   UNL     1       8.794   0.250  21.733  0.00  0.00    -0.313 N 
ATOM     45  H   UNL     1       8.520  -0.314  20.931  0.00  0.00    +0.149 HD
ATOM     46  C   UNL     1       9.635  -0.351  22.668  0.00  0.00    +0.242 C 
ATOM     47  O   UNL     1      10.417   0.321  23.354  0.00  0.00    -0.273 OA
BRANCH  44  48
ATOM     48  C   UNL     1       8.958   1.684  21.532  0.00  0.00    +0.113 C 
BRANCH  48  49
ATOM     49  C   UNL     1       7.821   2.572  22.008  0.00  0.00    +0.114 C 
BRANCH  49  52
ATOM     50  N   UNL     1       5.765   2.212  23.353  0.00  0.00    -0.314 N 
ATOM     51  H   UNL     1       5.201   2.418  22.535  0.00  0.00    +0.149 HD
ATOM     52  C   UNL     1       7.133   2.277  23.326  0.00  0.00    +0.215 C 
ATOM     53  O   UNL     1       7.805   2.052  24.332  0.00  0.00    -0.276 OA
BRANCH  50  54
ATOM     54  C   UNL     1       5.034   1.939  24.585  0.00  0.00    +0.115 C 
BRANCH  54  55
ATOM     55  C   UNL     1       4.225   3.099  25.210  0.00  0.00    +0.096 C 
BRANCH  55  56
ATOM     56  S   UNL     1       4.747   4.758  24.735  0.00  0.00    -0.087 S 
BRANCH  56  57
ATOM     57  C   UNL     1       6.033   5.144  25.866  0.00  0.00    +0.189 C 
ATOM     58  O   UNL     1       5.773   5.019  27.063  0.00  0.00    -0.285 OA
BRANCH  57  59
ATOM     59  C   UNL     1       7.446   5.393  25.367  0.00  0.00    +0.086 C 
BRANCH  59  60
ATOM     60  C   UNL     1       7.470   5.878  23.893  0.00  0.00    +0.008 C 
BRANCH  60  61
ATOM     61  C   UNL     1       8.886   6.195  23.419  0.00  0.00    +0.000 C 
BRANCH  61  62
ATOM     62  C   UNL     1       9.946   5.316  24.090  0.00  0.00    +0.000 C 
BRANCH  62  63
ATOM     63  C   UNL     1      11.338   5.922  23.890  0.00  0.00    -0.000 C 
BRANCH  63  65
ATOM     64  C   UNL     1      13.135   5.557  22.168  0.00  0.00    +0.004 C 
ATOM     65  C   UNL     1      12.331   4.924  23.295  0.00  0.00    -0.003 C 
ENDBRANCH  63  65
ENDBRANCH  62  63
ENDBRANCH  61  62
ENDBRANCH  60  61
ENDBRANCH  59  60
ENDBRANCH  57  59
ENDBRANCH  56  57
ENDBRANCH  55  56
ENDBRANCH  54  55
ENDBRANCH  50  54
ENDBRANCH  49  52
ENDBRANCH  48  49
ENDBRANCH  44  48
ENDBRANCH  43  46
BRANCH  43  66
ATOM     66  O   UNL     1      10.637  -2.610  23.004  0.00  0.00    -0.382 OA
ATOM     67  H   UNL     1      11.364  -2.062  22.649  0.00  0.00    +0.210 HD
ENDBRANCH  43  66
ENDBRANCH  40  43
ENDBRANCH  39  40
ENDBRANCH  38  39
ENDBRANCH   1  38
TORSDOF 32
ENDMDL
MODEL 5
REMARK VINA RESULT:      -4.8      3.021      4.406
REMARK  Name = 
REMARK  35 active torsions:
REMARK  status: ('A' for Active; 'I' for Inactive)
REMARK    1  A    between atoms: C_1  and  C_2
REMARK    2  A    between atoms: C_2  and  C_3
REMARK    3  A    between atoms: C_3  and  C_4
REMARK    4  A    between atoms: C_4  and  C_5
REMARK    5  A    between atoms: C_5  and  C_6
REMARK    6  A    between atoms: C_6  and  C_7
REMARK    7  A    between atoms: C_7  and  C_8
REMARK    8  A    between atoms: C_8  and  S_10
REMARK    9  A    between atoms: S_10  and  C_11
REMARK   10  A    between atoms: C_11  and  C_12
REMARK   11  A    between atoms: C_12  and  N_13
REMARK   12  A    between atoms: C_14  and  C_16
REMARK   13  A    between atoms: C_16  and  C_17
REMARK   14  A    between atoms: C_17  and  N_18
REMARK   15  A    between atoms: C_19  and  C_21
REMARK   16  A    between atoms: C_21  and  O_23
REMARK   17  A    between atoms: C_21  and  C_24
REMARK   18  A    between atoms: C_24  and  C_25
REMARK   19  A    between atoms: C_24  and  C_26
REMARK   20  A    between atoms: C_24  and  C_27
REMARK   21  A    between atoms: C_27  and  O_28
REMARK   22  A    between atoms: O_28  and  P_29
REMARK   23  A    between atoms: P_29  and  O_30
REMARK   24  A    between atoms: P_29  and  O_32
REMARK   25  A    between atoms: O_32  and  P_33
REMARK   26  A    between atoms: P_33  and  O_34
REMARK   27  A    between atoms: P_33  and  O_36
REMARK   28  A    between atoms: O_36  and  C_37
REMARK   29  A    between atoms: C_37  and  C_38
REMARK   30  A    between atoms: C_41  and  N_53
REMARK   31  A    between atoms: C_43  and  O_45
REMARK   32  A    between atoms: C_46  and  O_48
REMARK   33  A    between atoms: O_48  and  P_49
REMARK   34  A    between atoms: P_49  and  O_50
REMARK   35  A    between atoms: P_49  and  O_51
REMARK                            x       y       z     vdW  Elec       q    Type
REMARK                         _______ _______ _______ _____ _____    ______ ____
ROOT
ATOM      1  P   UNL     1       8.243  -4.567  24.246  0.00  0.00    +0.483 P 
ATOM      2  O   UNL     1       9.073  -5.816  23.937  0.00  0.00    -0.227 OA
ENDROOT
BRANCH   1   3
ATOM      3  O   UNL     1       9.254  -4.340  25.631  0.00  0.00    -0.302 OA
ATOM      4  H   UNL     1       9.065  -3.406  25.862  0.00  0.00    +0.222 HD
ENDBRANCH   1   3
BRANCH   1   5
ATOM      5  O   UNL     1       7.232  -4.796  22.860  0.00  0.00    -0.186 OA
BRANCH   5   6
ATOM      6  P   UNL     1       5.818  -5.349  22.436  0.00  0.00    +0.483 P 
ATOM      7  O   UNL     1       5.819  -6.078  21.127  0.00  0.00    -0.227 OA
BRANCH   6   8
ATOM      8  O   UNL     1       4.862  -4.090  22.445  0.00  0.00    -0.302 OA
ATOM      9  H   UNL     1       5.181  -3.393  21.808  0.00  0.00    +0.222 HD
ENDBRANCH   6   8
BRANCH   6  10
ATOM     10  O   UNL     1       5.179  -6.217  23.672  0.00  0.00    -0.284 OA
BRANCH  10  11
ATOM     11  C   UNL     1       3.784  -5.988  23.938  0.00  0.00    +0.206 C 
BRANCH  11  12
ATOM     12  C   UNL     1       3.368  -5.415  25.314  0.00  0.00    +0.179 C 
ATOM     13  C   UNL     1       4.197  -5.941  26.484  0.00  0.00    +0.194 C 
ATOM     14  C   UNL     1       5.123  -4.790  26.843  0.00  0.00    +0.196 C 
ATOM     15  C   UNL     1       4.774  -3.681  25.846  0.00  0.00    +0.253 C 
ATOM     16  O   UNL     1       3.470  -3.979  25.330  0.00  0.00    -0.346 OA
BRANCH  15  17
ATOM     17  N   UNL     1       4.804  -2.356  26.436  0.00  0.00    -0.286 N 
ATOM     18  C   UNL     1       5.963  -1.664  26.668  0.00  0.00    +0.167 A 
ATOM     19  N   UNL     1       7.223  -2.104  26.488  0.00  0.00    -0.216 NA
ATOM     20  C   UNL     1       8.108  -1.136  26.805  0.00  0.00    +0.225 A 
ATOM     21  N   UNL     1       7.863   0.115  27.247  0.00  0.00    -0.219 NA
ATOM     22  C   UNL     1       6.575   0.507  27.397  0.00  0.00    +0.147 A 
ATOM     23  N   UNL     1       6.338   1.802  27.837  0.00  0.00    -0.341 N 
ATOM     24  H   UNL     1       5.421   1.936  28.249  0.00  0.00    +0.144 HD
ATOM     25  H   UNL     1       7.136   2.201  28.314  0.00  0.00    +0.144 HD
ATOM     26  C   UNL     1       5.557  -0.419  27.114  0.00  0.00    +0.147 A 
ATOM     27  N   UNL     1       4.180  -0.357  27.191  0.00  0.00    -0.231 NA
ATOM     28  C   UNL     1       3.761  -1.537  26.770  0.00  0.00    +0.203 A 
ENDBRANCH  15  17
BRANCH  14  29
ATOM     29  O   UNL     1       6.488  -5.197  26.733  0.00  0.00    -0.385 OA
ATOM     30  H   UNL     1       6.784  -4.934  25.835  0.00  0.00    +0.210 HD
ENDBRANCH  14  29
BRANCH  13  31
ATOM     31  O   UNL     1       3.358  -6.165  27.625  0.00  0.00    -0.278 OA
BRANCH  31  32
ATOM     32  P   UNL     1       4.016  -6.766  28.950  0.00  0.00    +0.473 P 
ATOM     33  O   UNL     1       4.299  -5.801  30.046  0.00  0.00    -0.228 OA
BRANCH  32  34
ATOM     34  O   UNL     1       5.270  -7.551  28.356  0.00  0.00    -0.303 OA
ATOM     35  H   UNL     1       5.687  -7.036  27.643  0.00  0.00    +0.222 HD
ENDBRANCH  32  34
BRANCH  32  36
ATOM     36  O   UNL     1       3.089  -7.994  29.363  0.00  0.00    -0.303 OA
ATOM     37  H   UNL     1       2.266  -8.005  28.838  0.00  0.00    +0.222 HD
ENDBRANCH  32  36
ENDBRANCH  31  32
ENDBRANCH  13  31
ENDBRANCH  11  12
ENDBRANCH  10  11
ENDBRANCH   6  10
ENDBRANCH   5   6
ENDBRANCH   1   5
BRANCH   1  38
ATOM     38  O   UNL     1       9.032  -3.386  23.444  0.00  0.00    -0.286 OA
BRANCH  38  39
ATOM     39  C   UNL     1       8.390  -2.415  22.645  0.00  0.00    +0.181 C 
BRANCH  39  40
ATOM     40  C   UNL     1       8.850  -0.938  22.812  0.00  0.00    +0.024 C 
ATOM     41  C   UNL     1      10.056  -0.959  23.777  0.00  0.00    +0.016 C 
ATOM     42  C   UNL     1       9.409  -0.393  21.470  0.00  0.00    +0.016 C 
BRANCH  40  43
ATOM     43  C   UNL     1       7.723  -0.006  23.381  0.00  0.00    +0.208 C 
BRANCH  43  46
ATOM     44  N   UNL     1       8.828   2.201  23.693  0.00  0.00    -0.313 N 
ATOM     45  H   UNL     1       8.953   1.948  24.672  0.00  0.00    +0.149 HD
ATOM     46  C   UNL     1       7.881   1.475  22.972  0.00  0.00    +0.242 C 
ATOM     47  O   UNL     1       7.285   1.977  22.008  0.00  0.00    -0.273 OA
BRANCH  44  48
ATOM     48  C   UNL     1       9.000   3.601  23.324  0.00  0.00    +0.113 C 
BRANCH  48  49
ATOM     49  C   UNL     1       9.112   4.595  24.466  0.00  0.00    +0.114 C 
BRANCH  49  52
ATOM     50  N   UNL     1       7.339   5.966  25.536  0.00  0.00    -0.314 N 
ATOM     51  H   UNL     1       7.659   6.775  25.014  0.00  0.00    +0.149 HD
ATOM     52  C   UNL     1       7.967   4.751  25.447  0.00  0.00    +0.215 C 
ATOM     53  O   UNL     1       7.588   3.784  26.107  0.00  0.00    -0.276 OA
BRANCH  50  54
ATOM     54  C   UNL     1       6.235   6.193  26.461  0.00  0.00    +0.115 C 
BRANCH  54  55
ATOM     55  C   UNL     1       4.810   6.281  25.868  0.00  0.00    +0.096 C 
BRANCH  55  56
ATOM     56  S   UNL     1       4.714   6.792  24.142  0.00  0.00    -0.087 S 
BRANCH  56  57
ATOM     57  C   UNL     1       4.432   5.296  23.266  0.00  0.00    +0.189 C 
ATOM     58  O   UNL     1       5.361   4.489  23.236  0.00  0.00    -0.285 OA
BRANCH  57  59
ATOM     59  C   UNL     1       3.037   4.943  22.779  0.00  0.00    +0.086 C 
BRANCH  59  60
ATOM     60  C   UNL     1       2.632   3.496  23.164  0.00  0.00    +0.008 C 
BRANCH  60  61
ATOM     61  C   UNL     1       1.495   2.970  22.290  0.00  0.00    +0.000 C 
BRANCH  61  62
ATOM     62  C   UNL     1       1.927   2.725  20.841  0.00  0.00    +0.000 C 
BRANCH  62  63
ATOM     63  C   UNL     1       0.869   3.269  19.876  0.00  0.00    -0.000 C 
BRANCH  63  65
ATOM     64  C   UNL     1       1.828   5.508  19.248  0.00  0.00    +0.004 C 
ATOM     65  C   UNL     1       1.476   4.111  18.755  0.00  0.00    -0.003 C 
ENDBRANCH  63  65
ENDBRANCH  62  63
ENDBRANCH  61  62
ENDBRANCH  60  61
ENDBRANCH  59  60
ENDBRANCH  57  59
ENDBRANCH  56  57
ENDBRANCH  55  56
ENDBRANCH  54  55
ENDBRANCH  50  54
ENDBRANCH  49  52
ENDBRANCH  48  49
ENDBRANCH  44  48
ENDBRANCH  43  46
BRANCH  43  66
ATOM     66  O   UNL     1       6.428  -0.541  23.169  0.00  0.00    -0.382 OA
ATOM     67  H   UNL     1       5.958  -0.528  24.025  0.00  0.00    +0.210 HD
ENDBRANCH  43  66
ENDBRANCH  40  43
ENDBRANCH  39  40
ENDBRANCH  38  39
ENDBRANCH   1  38
TORSDOF 32
ENDMDL
MODEL 6
REMARK VINA RESULT:      -4.8      3.903      8.820
REMARK  Name = 
REMARK  35 active torsions:
REMARK  status: ('A' for Active; 'I' for Inactive)
REMARK    1  A    between atoms: C_1  and  C_2
REMARK    2  A    between atoms: C_2  and  C_3
REMARK    3  A    between atoms: C_3  and  C_4
REMARK    4  A    between atoms: C_4  and  C_5
REMARK    5  A    between atoms: C_5  and  C_6
REMARK    6  A    between atoms: C_6  and  C_7
REMARK    7  A    between atoms: C_7  and  C_8
REMARK    8  A    between atoms: C_8  and  S_10
REMARK    9  A    between atoms: S_10  and  C_11
REMARK   10  A    between atoms: C_11  and  C_12
REMARK   11  A    between atoms: C_12  and  N_13
REMARK   12  A    between atoms: C_14  and  C_16
REMARK   13  A    between atoms: C_16  and  C_17
REMARK   14  A    between atoms: C_17  and  N_18
REMARK   15  A    between atoms: C_19  and  C_21
REMARK   16  A    between atoms: C_21  and  O_23
REMARK   17  A    between atoms: C_21  and  C_24
REMARK   18  A    between atoms: C_24  and  C_25
REMARK   19  A    between atoms: C_24  and  C_26
REMARK   20  A    between atoms: C_24  and  C_27
REMARK   21  A    between atoms: C_27  and  O_28
REMARK   22  A    between atoms: O_28  and  P_29
REMARK   23  A    between atoms: P_29  and  O_30
REMARK   24  A    between atoms: P_29  and  O_32
REMARK   25  A    between atoms: O_32  and  P_33
REMARK   26  A    between atoms: P_33  and  O_34
REMARK   27  A    between atoms: P_33  and  O_36
REMARK   28  A    between atoms: O_36  and  C_37
REMARK   29  A    between atoms: C_37  and  C_38
REMARK   30  A    between atoms: C_41  and  N_53
REMARK   31  A    between atoms: C_43  and  O_45
REMARK   32  A    between atoms: C_46  and  O_48
REMARK   33  A    between atoms: O_48  and  P_49
REMARK   34  A    between atoms: P_49  and  O_50
REMARK   35  A    between atoms: P_49  and  O_51
REMARK                            x       y       z     vdW  Elec       q    Type
REMARK                         _______ _______ _______ _____ _____    ______ ____
ROOT
ATOM      1  P   UNL     1       8.805  -1.706  22.941  0.00  0.00    +0.483 P 
ATOM      2  O   UNL     1      10.083  -2.187  23.633  0.00  0.00    -0.227 OA
ENDROOT
BRANCH   1   3
ATOM      3  O   UNL     1       9.739  -1.580  21.489  0.00  0.00    -0.302 OA
ATOM      4  H   UNL     1       9.307  -0.821  21.043  0.00  0.00    +0.222 HD
ENDBRANCH   1   3
BRANCH   1   5
ATOM      5  O   UNL     1       7.873  -1.831  24.393  0.00  0.00    -0.186 OA
BRANCH   5   6
ATOM      6  P   UNL     1       7.593  -1.086  25.753  0.00  0.00    +0.483 P 
ATOM      7  O   UNL     1       8.831  -0.755  26.530  0.00  0.00    -0.227 OA
BRANCH   6   8
ATOM      8  O   UNL     1       6.598  -2.026  26.543  0.00  0.00    -0.302 OA
ATOM      9  H   UNL     1       5.942  -2.454  25.926  0.00  0.00    +0.222 HD
ENDBRANCH   6   8
BRANCH   6  10
ATOM     10  O   UNL     1       6.624   0.207  25.477  0.00  0.00    -0.284 OA
BRANCH  10  11
ATOM     11  C   UNL     1       6.978   1.413  26.178  0.00  0.00    +0.206 C 
BRANCH  11  12
ATOM     12  C   UNL     1       7.390   2.661  25.360  0.00  0.00    +0.179 C 
ATOM     13  C   UNL     1       7.836   2.351  23.933  0.00  0.00    +0.194 C 
ATOM     14  C   UNL     1       6.666   2.784  23.065  0.00  0.00    +0.196 C 
ATOM     15  C   UNL     1       5.617   3.303  24.053  0.00  0.00    +0.253 C 
ATOM     16  O   UNL     1       6.306   3.604  25.273  0.00  0.00    -0.346 OA
BRANCH  15  17
ATOM     17  N   UNL     1       4.902   4.468  23.564  0.00  0.00    -0.286 N 
ATOM     18  C   UNL     1       3.880   4.394  22.655  0.00  0.00    +0.167 A 
ATOM     19  N   UNL     1       3.441   3.296  22.012  0.00  0.00    -0.216 NA
ATOM     20  C   UNL     1       2.405   3.607  21.205  0.00  0.00    +0.225 A 
ATOM     21  N   UNL     1       1.828   4.810  21.004  0.00  0.00    -0.219 NA
ATOM     22  C   UNL     1       2.304   5.878  21.688  0.00  0.00    +0.147 A 
ATOM     23  N   UNL     1       1.690   7.105  21.484  0.00  0.00    -0.341 N 
ATOM     24  H   UNL     1       2.266   7.901  21.733  0.00  0.00    +0.144 HD
ATOM     25  H   UNL     1       1.181   7.143  20.611  0.00  0.00    +0.144 HD
ATOM     26  C   UNL     1       3.396   5.686  22.551  0.00  0.00    +0.147 A 
ATOM     27  N   UNL     1       4.126   6.543  23.350  0.00  0.00    -0.231 NA
ATOM     28  C   UNL     1       5.019   5.775  23.949  0.00  0.00    +0.203 A 
ENDBRANCH  15  17
BRANCH  14  29
ATOM     29  O   UNL     1       6.178   1.680  22.299  0.00  0.00    -0.385 OA
ATOM     30  H   UNL     1       5.645   1.131  22.915  0.00  0.00    +0.210 HD
ENDBRANCH  14  29
BRANCH  13  31
ATOM     31  O   UNL     1       8.947   3.181  23.569  0.00  0.00    -0.278 OA
BRANCH  31  32
ATOM     32  P   UNL     1      10.327   2.481  23.174  0.00  0.00    +0.473 P 
ATOM     33  O   UNL     1      10.752   1.332  24.018  0.00  0.00    -0.228 OA
BRANCH  32  34
ATOM     34  O   UNL     1      11.316   3.730  23.128  0.00  0.00    -0.303 OA
ATOM     35  H   UNL     1      11.011   4.382  22.471  0.00  0.00    +0.222 HD
ENDBRANCH  32  34
BRANCH  32  36
ATOM     36  O   UNL     1      10.209   2.161  21.619  0.00  0.00    -0.303 OA
ATOM     37  H   UNL     1      10.008   1.218  21.468  0.00  0.00    +0.222 HD
ENDBRANCH  32  36
ENDBRANCH  31  32
ENDBRANCH  13  31
ENDBRANCH  11  12
ENDBRANCH  10  11
ENDBRANCH   6  10
ENDBRANCH   5   6
ENDBRANCH   1   5
BRANCH   1  38
ATOM     38  O   UNL     1       8.122  -3.089  22.412  0.00  0.00    -0.286 OA
BRANCH  38  39
ATOM     39  C   UNL     1       7.710  -4.137  23.264  0.00  0.00    +0.181 C 
BRANCH  39  40
ATOM     40  C   UNL     1       6.412  -4.902  22.876  0.00  0.00    +0.024 C 
ATOM     41  C   UNL     1       5.305  -3.836  22.712  0.00  0.00    +0.016 C 
ATOM     42  C   UNL     1       6.566  -5.551  21.475  0.00  0.00    +0.016 C 
BRANCH  40  43
ATOM     43  C   UNL     1       5.981  -5.961  23.952  0.00  0.00    +0.208 C 
BRANCH  43  46
ATOM     44  N   UNL     1       6.807  -5.995  26.298  0.00  0.00    -0.313 N 
ATOM     45  H   UNL     1       6.996  -6.987  26.168  0.00  0.00    +0.149 HD
ATOM     46  C   UNL     1       5.936  -5.397  25.390  0.00  0.00    +0.242 C 
ATOM     47  O   UNL     1       5.248  -4.416  25.709  0.00  0.00    -0.273 OA
BRANCH  44  48
ATOM     48  C   UNL     1       6.787  -5.479  27.662  0.00  0.00    +0.113 C 
BRANCH  48  49
ATOM     49  C   UNL     1       6.281  -6.422  28.738  0.00  0.00    +0.114 C 
BRANCH  49  52
ATOM     50  N   UNL     1       4.037  -5.360  28.671  0.00  0.00    -0.314 N 
ATOM     51  H   UNL     1       4.372  -4.713  27.965  0.00  0.00    +0.149 HD
ATOM     52  C   UNL     1       4.858  -6.295  29.246  0.00  0.00    +0.215 C 
ATOM     53  O   UNL     1       4.448  -7.056  30.122  0.00  0.00    -0.276 OA
BRANCH  50  54
ATOM     54  C   UNL     1       2.659  -5.175  29.111  0.00  0.00    +0.115 C 
BRANCH  54  55
ATOM     55  C   UNL     1       2.080  -3.743  29.069  0.00  0.00    +0.096 C 
BRANCH  55  56
ATOM     56  S   UNL     1       3.209  -2.462  28.488  0.00  0.00    -0.087 S 
BRANCH  56  57
ATOM     57  C   UNL     1       2.826  -2.293  26.783  0.00  0.00    +0.189 C 
ATOM     58  O   UNL     1       3.640  -1.680  26.092  0.00  0.00    -0.285 OA
BRANCH  57  59
ATOM     59  C   UNL     1       1.668  -3.065  26.175  0.00  0.00    +0.086 C 
BRANCH  59  60
ATOM     60  C   UNL     1       2.026  -3.660  24.787  0.00  0.00    +0.008 C 
BRANCH  60  61
ATOM     61  C   UNL     1       1.409  -5.042  24.582  0.00  0.00    +0.000 C 
BRANCH  61  62
ATOM     62  C   UNL     1       1.692  -5.995  25.747  0.00  0.00    +0.000 C 
BRANCH  62  63
ATOM     63  C   UNL     1       1.054  -7.361  25.479  0.00  0.00    -0.000 C 
BRANCH  63  65
ATOM     64  C   UNL     1       1.351  -8.458  23.234  0.00  0.00    +0.004 C 
ATOM     65  C   UNL     1       1.941  -8.265  24.624  0.00  0.00    -0.003 C 
ENDBRANCH  63  65
ENDBRANCH  62  63
ENDBRANCH  61  62
ENDBRANCH  60  61
ENDBRANCH  59  60
ENDBRANCH  57  59
ENDBRANCH  56  57
ENDBRANCH  55  56
ENDBRANCH  54  55
ENDBRANCH  50  54
ENDBRANCH  49  52
ENDBRANCH  48  49
ENDBRANCH  44  48
ENDBRANCH  43  46
BRANCH  43  66
ATOM     66  O   UNL     1       4.822  -6.678  23.563  0.00  0.00    -0.382 OA
ATOM     67  H   UNL     1       4.932  -6.933  22.627  0.00  0.00    +0.210 HD
ENDBRANCH  43  66
ENDBRANCH  40  43
ENDBRANCH  39  40
ENDBRANCH  38  39
ENDBRANCH   1  38
TORSDOF 32
ENDMDL
MODEL 7
REMARK VINA RESULT:      -4.8      4.301      9.484
REMARK  Name = 
REMARK  35 active torsions:
REMARK  status: ('A' for Active; 'I' for Inactive)
REMARK    1  A    between atoms: C_1  and  C_2
REMARK    2  A    between atoms: C_2  and  C_3
REMARK    3  A    between atoms: C_3  and  C_4
REMARK    4  A    between atoms: C_4  and  C_5
REMARK    5  A    between atoms: C_5  and  C_6
REMARK    6  A    between atoms: C_6  and  C_7
REMARK    7  A    between atoms: C_7  and  C_8
REMARK    8  A    between atoms: C_8  and  S_10
REMARK    9  A    between atoms: S_10  and  C_11
REMARK   10  A    between atoms: C_11  and  C_12
REMARK   11  A    between atoms: C_12  and  N_13
REMARK   12  A    between atoms: C_14  and  C_16
REMARK   13  A    between atoms: C_16  and  C_17
REMARK   14  A    between atoms: C_17  and  N_18
REMARK   15  A    between atoms: C_19  and  C_21
REMARK   16  A    between atoms: C_21  and  O_23
REMARK   17  A    between atoms: C_21  and  C_24
REMARK   18  A    between atoms: C_24  and  C_25
REMARK   19  A    between atoms: C_24  and  C_26
REMARK   20  A    between atoms: C_24  and  C_27
REMARK   21  A    between atoms: C_27  and  O_28
REMARK   22  A    between atoms: O_28  and  P_29
REMARK   23  A    between atoms: P_29  and  O_30
REMARK   24  A    between atoms: P_29  and  O_32
REMARK   25  A    between atoms: O_32  and  P_33
REMARK   26  A    between atoms: P_33  and  O_34
REMARK   27  A    between atoms: P_33  and  O_36
REMARK   28  A    between atoms: O_36  and  C_37
REMARK   29  A    between atoms: C_37  and  C_38
REMARK   30  A    between atoms: C_41  and  N_53
REMARK   31  A    between atoms: C_43  and  O_45
REMARK   32  A    between atoms: C_46  and  O_48
REMARK   33  A    between atoms: O_48  and  P_49
REMARK   34  A    between atoms: P_49  and  O_50
REMARK   35  A    between atoms: P_49  and  O_51
REMARK                            x       y       z     vdW  Elec       q    Type
REMARK                         _______ _______ _______ _____ _____    ______ ____
ROOT
ATOM      1  P   UNL     1       9.125   2.458  24.584  0.00  0.00    +0.483 P 
ATOM      2  O   UNL     1       8.034   3.002  25.511  0.00  0.00    -0.227 OA
ENDROOT
BRANCH   1   3
ATOM      3  O   UNL     1       9.153   1.046  25.584  0.00  0.00    -0.302 OA
ATOM      4  H   UNL     1       9.095   0.331  24.916  0.00  0.00    +0.222 HD
ENDBRANCH   1   3
BRANCH   1   5
ATOM      5  O   UNL     1       9.096   3.871  23.585  0.00  0.00    -0.186 OA
BRANCH   5   6
ATOM      6  P   UNL     1       9.177   5.443  23.661  0.00  0.00    +0.483 P 
ATOM      7  O   UNL     1      10.557   5.991  23.458  0.00  0.00    -0.227 OA
BRANCH   6   8
ATOM      8  O   UNL     1       8.558   5.823  25.064  0.00  0.00    -0.302 OA
ATOM      9  H   UNL     1       8.374   5.008  25.608  0.00  0.00    +0.222 HD
ENDBRANCH   6   8
BRANCH   6  10
ATOM     10  O   UNL     1       8.057   6.095  22.655  0.00  0.00    -0.284 OA
BRANCH  10  11
ATOM     11  C   UNL     1       6.909   5.270  22.383  0.00  0.00    +0.206 C 
BRANCH  11  12
ATOM     12  C   UNL     1       5.581   5.570  23.119  0.00  0.00    +0.179 C 
ATOM     13  C   UNL     1       4.358   4.907  22.489  0.00  0.00    +0.194 C 
ATOM     14  C   UNL     1       4.032   3.748  23.417  0.00  0.00    +0.196 C 
ATOM     15  C   UNL     1       5.099   3.813  24.514  0.00  0.00    +0.253 C 
ATOM     16  O   UNL     1       5.640   5.140  24.491  0.00  0.00    -0.346 OA
BRANCH  15  17
ATOM     17  N   UNL     1       4.582   3.490  25.831  0.00  0.00    -0.286 N 
ATOM     18  C   UNL     1       4.509   2.211  26.316  0.00  0.00    +0.167 A 
ATOM     19  N   UNL     1       4.799   1.074  25.657  0.00  0.00    -0.216 NA
ATOM     20  C   UNL     1       4.626   0.006  26.463  0.00  0.00    +0.225 A 
ATOM     21  N   UNL     1       4.223  -0.017  27.751  0.00  0.00    -0.219 NA
ATOM     22  C   UNL     1       3.956   1.159  28.367  0.00  0.00    +0.147 A 
ATOM     23  N   UNL     1       3.558   1.120  29.696  0.00  0.00    -0.341 N 
ATOM     24  H   UNL     1       3.058   1.948  30.001  0.00  0.00    +0.144 HD
ATOM     25  H   UNL     1       3.189   0.217  29.963  0.00  0.00    +0.144 HD
ATOM     26  C   UNL     1       4.083   2.346  27.625  0.00  0.00    +0.147 A 
ATOM     27  N   UNL     1       3.864   3.674  27.930  0.00  0.00    -0.231 NA
ATOM     28  C   UNL     1       4.180   4.333  26.830  0.00  0.00    +0.203 A 
ENDBRANCH  15  17
BRANCH  14  29
ATOM     29  O   UNL     1       4.074   2.511  22.703  0.00  0.00    -0.385 OA
ATOM     30  H   UNL     1       4.926   2.503  22.215  0.00  0.00    +0.210 HD
ENDBRANCH  14  29
BRANCH  13  31
ATOM     31  O   UNL     1       3.234   5.796  22.532  0.00  0.00    -0.278 OA
BRANCH  31  32
ATOM     32  P   UNL     1       2.250   5.845  21.276  0.00  0.00    +0.473 P 
ATOM     33  O   UNL     1       0.818   6.126  21.567  0.00  0.00    -0.228 OA
BRANCH  32  34
ATOM     34  O   UNL     1       2.569   4.454  20.566  0.00  0.00    -0.303 OA
ATOM     35  H   UNL     1       3.457   4.140  20.815  0.00  0.00    +0.222 HD
ENDBRANCH  32  34
BRANCH  32  36
ATOM     36  O   UNL     1       2.932   6.847  20.242  0.00  0.00    -0.303 OA
ATOM     37  H   UNL     1       3.902   6.742  20.239  0.00  0.00    +0.222 HD
ENDBRANCH  32  36
ENDBRANCH  31  32
ENDBRANCH  13  31
ENDBRANCH  11  12
ENDBRANCH  10  11
ENDBRANCH   6  10
ENDBRANCH   5   6
ENDBRANCH   1   5
BRANCH   1  38
ATOM     38  O   UNL     1       8.281   1.662  23.439  0.00  0.00    -0.286 OA
BRANCH  38  39
ATOM     39  C   UNL     1       7.873   0.315  23.557  0.00  0.00    +0.181 C 
BRANCH  39  40
ATOM     40  C   UNL     1       8.620  -0.735  22.685  0.00  0.00    +0.024 C 
ATOM     41  C   UNL     1       7.580  -1.815  22.310  0.00  0.00    +0.016 C 
ATOM     42  C   UNL     1       9.057  -0.103  21.337  0.00  0.00    +0.016 C 
BRANCH  40  43
ATOM     43  C   UNL     1       9.835  -1.395  23.428  0.00  0.00    +0.208 C 
BRANCH  43  46
ATOM     44  N   UNL     1       9.728  -3.694  24.373  0.00  0.00    -0.313 N 
ATOM     45  H   UNL     1       9.702  -4.037  23.414  0.00  0.00    +0.149 HD
ATOM     46  C   UNL     1       9.416  -2.349  24.569  0.00  0.00    +0.242 C 
ATOM     47  O   UNL     1       8.923  -1.953  25.634  0.00  0.00    -0.273 OA
BRANCH  44  48
ATOM     48  C   UNL     1       9.348  -4.616  25.436  0.00  0.00    +0.113 C 
BRANCH  48  49
ATOM     49  C   UNL     1       7.952  -5.207  25.356  0.00  0.00    +0.114 C 
BRANCH  49  52
ATOM     50  N   UNL     1       7.227  -6.040  27.580  0.00  0.00    -0.314 N 
ATOM     51  H   UNL     1       7.920  -6.779  27.522  0.00  0.00    +0.149 HD
ATOM     52  C   UNL     1       7.034  -5.144  26.561  0.00  0.00    +0.215 C 
ATOM     53  O   UNL     1       6.172  -4.269  26.631  0.00  0.00    -0.276 OA
BRANCH  50  54
ATOM     54  C   UNL     1       6.381  -6.044  28.767  0.00  0.00    +0.115 C 
BRANCH  54  55
ATOM     55  C   UNL     1       5.119  -6.936  28.745  0.00  0.00    +0.096 C 
BRANCH  55  56
ATOM     56  S   UNL     1       3.544  -6.061  28.813  0.00  0.00    -0.087 S 
BRANCH  56  57
ATOM     57  C   UNL     1       2.692  -6.597  27.374  0.00  0.00    +0.189 C 
ATOM     58  O   UNL     1       1.627  -7.190  27.550  0.00  0.00    -0.285 OA
BRANCH  57  59
ATOM     59  C   UNL     1       3.144  -6.139  25.998  0.00  0.00    +0.086 C 
BRANCH  59  60
ATOM     60  C   UNL     1       4.095  -7.163  25.324  0.00  0.00    +0.008 C 
BRANCH  60  61
ATOM     61  C   UNL     1       4.553  -6.695  23.944  0.00  0.00    +0.000 C 
BRANCH  61  62
ATOM     62  C   UNL     1       4.236  -5.219  23.685  0.00  0.00    +0.000 C 
BRANCH  62  63
ATOM     63  C   UNL     1       5.235  -4.634  22.681  0.00  0.00    -0.000 C 
BRANCH  63  65
ATOM     64  C   UNL     1       7.319  -5.681  21.739  0.00  0.00    +0.004 C 
ATOM     65  C   UNL     1       5.797  -5.690  21.731  0.00  0.00    -0.003 C 
ENDBRANCH  63  65
ENDBRANCH  62  63
ENDBRANCH  61  62
ENDBRANCH  60  61
ENDBRANCH  59  60
ENDBRANCH  57  59
ENDBRANCH  56  57
ENDBRANCH  55  56
ENDBRANCH  54  55
ENDBRANCH  50  54
ENDBRANCH  49  52
ENDBRANCH  48  49
ENDBRANCH  44  48
ENDBRANCH  43  46
BRANCH  43  66
ATOM     66  O   UNL     1      10.784  -1.935  22.526  0.00  0.00    -0.382 OA
ATOM     67  H   UNL     1      10.575  -2.882  22.408  0.00  0.00    +0.210 HD
ENDBRANCH  43  66
ENDBRANCH  40  43
ENDBRANCH  39  40
ENDBRANCH  38  39
ENDBRANCH   1  38
TORSDOF 32
ENDMDL
MODEL 8
REMARK VINA RESULT:      -4.8      3.182      6.037
REMARK  Name = 
REMARK  35 active torsions:
REMARK  status: ('A' for Active; 'I' for Inactive)
REMARK    1  A    between atoms: C_1  and  C_2
REMARK    2  A    between atoms: C_2  and  C_3
REMARK    3  A    between atoms: C_3  and  C_4
REMARK    4  A    between atoms: C_4  and  C_5
REMARK    5  A    between atoms: C_5  and  C_6
REMARK    6  A    between atoms: C_6  and  C_7
REMARK    7  A    between atoms: C_7  and  C_8
REMARK    8  A    between atoms: C_8  and  S_10
REMARK    9  A    between atoms: S_10  and  C_11
REMARK   10  A    between atoms: C_11  and  C_12
REMARK   11  A    between atoms: C_12  and  N_13
REMARK   12  A    between atoms: C_14  and  C_16
REMARK   13  A    between atoms: C_16  and  C_17
REMARK   14  A    between atoms: C_17  and  N_18
REMARK   15  A    between atoms: C_19  and  C_21
REMARK   16  A    between atoms: C_21  and  O_23
REMARK   17  A    between atoms: C_21  and  C_24
REMARK   18  A    between atoms: C_24  and  C_25
REMARK   19  A    between atoms: C_24  and  C_26
REMARK   20  A    between atoms: C_24  and  C_27
REMARK   21  A    between atoms: C_27  and  O_28
REMARK   22  A    between atoms: O_28  and  P_29
REMARK   23  A    between atoms: P_29  and  O_30
REMARK   24  A    between atoms: P_29  and  O_32
REMARK   25  A    between atoms: O_32  and  P_33
REMARK   26  A    between atoms: P_33  and  O_34
REMARK   27  A    between atoms: P_33  and  O_36
REMARK   28  A    between atoms: O_36  and  C_37
REMARK   29  A    between atoms: C_37  and  C_38
REMARK   30  A    between atoms: C_41  and  N_53
REMARK   31  A    between atoms: C_43  and  O_45
REMARK   32  A    between atoms: C_46  and  O_48
REMARK   33  A    between atoms: O_48  and  P_49
REMARK   34  A    between atoms: P_49  and  O_50
REMARK   35  A    between atoms: P_49  and  O_51
REMARK                            x       y       z     vdW  Elec       q    Type
REMARK                         _______ _______ _______ _____ _____    ______ ____
ROOT
ATOM      1  P   UNL     1       8.991  -1.303  25.415  0.00  0.00    +0.483 P 
ATOM      2  O   UNL     1       9.770  -0.014  25.688  0.00  0.00    -0.227 OA
ENDROOT
BRANCH   1   3
ATOM      3  O   UNL     1       8.956  -1.545  27.129  0.00  0.00    -0.302 OA
ATOM      4  H   UNL     1       8.803  -0.632  27.453  0.00  0.00    +0.222 HD
ENDBRANCH   1   3
BRANCH   1   5
ATOM      5  O   UNL     1       9.026  -1.062  23.703  0.00  0.00    -0.186 OA
BRANCH   5   6
ATOM      6  P   UNL     1       8.155  -1.263  22.405  0.00  0.00    +0.483 P 
ATOM      7  O   UNL     1       8.855  -0.877  21.137  0.00  0.00    -0.227 OA
BRANCH   6   8
ATOM      8  O   UNL     1       6.833  -0.435  22.660  0.00  0.00    -0.302 OA
ATOM      9  H   UNL     1       7.025   0.543  22.701  0.00  0.00    +0.222 HD
ENDBRANCH   6   8
BRANCH   6  10
ATOM     10  O   UNL     1       7.551  -2.788  22.385  0.00  0.00    -0.284 OA
BRANCH  10  11
ATOM     11  C   UNL     1       6.138  -2.895  22.137  0.00  0.00    +0.206 C 
BRANCH  11  12
ATOM     12  C   UNL     1       5.200  -3.276  23.308  0.00  0.00    +0.179 C 
ATOM     13  C   UNL     1       4.415  -4.566  23.082  0.00  0.00    +0.194 C 
ATOM     14  C   UNL     1       5.109  -5.593  23.963  0.00  0.00    +0.196 C 
ATOM     15  C   UNL     1       6.257  -4.828  24.627  0.00  0.00    +0.253 C 
ATOM     16  O   UNL     1       5.938  -3.433  24.533  0.00  0.00    -0.346 OA
BRANCH  15  17
ATOM     17  N   UNL     1       6.476  -5.215  26.008  0.00  0.00    -0.286 N 
ATOM     18  C   UNL     1       5.458  -5.408  26.904  0.00  0.00    +0.167 A 
ATOM     19  N   UNL     1       4.145  -5.192  26.701  0.00  0.00    -0.216 NA
ATOM     20  C   UNL     1       3.441  -5.510  27.807  0.00  0.00    +0.225 A 
ATOM     21  N   UNL     1       3.896  -5.981  28.987  0.00  0.00    -0.219 NA
ATOM     22  C   UNL     1       5.227  -6.191  29.129  0.00  0.00    +0.147 A 
ATOM     23  N   UNL     1       5.679  -6.691  30.342  0.00  0.00    -0.341 N 
ATOM     24  H   UNL     1       6.661  -6.514  30.521  0.00  0.00    +0.144 HD
ATOM     25  H   UNL     1       5.023  -6.531  31.095  0.00  0.00    +0.144 HD
ATOM     26  C   UNL     1       6.071  -5.881  28.050  0.00  0.00    +0.147 A 
ATOM     27  N   UNL     1       7.440  -5.943  27.877  0.00  0.00    -0.231 NA
ATOM     28  C   UNL     1       7.646  -5.541  26.636  0.00  0.00    +0.203 A 
ENDBRANCH  15  17
BRANCH  14  29
ATOM     29  O   UNL     1       5.583  -6.686  23.173  0.00  0.00    -0.385 OA
ATOM     30  H   UNL     1       5.833  -6.310  22.302  0.00  0.00    +0.210 HD
ENDBRANCH  14  29
BRANCH  13  31
ATOM     31  O   UNL     1       3.080  -4.429  23.586  0.00  0.00    -0.278 OA
BRANCH  31  32
ATOM     32  P   UNL     1       2.033  -5.602  23.305  0.00  0.00    +0.473 P 
ATOM     33  O   UNL     1       0.684  -5.188  22.834  0.00  0.00    -0.228 OA
BRANCH  32  34
ATOM     34  O   UNL     1       2.086  -6.412  24.677  0.00  0.00    -0.303 OA
ATOM     35  H   UNL     1       2.944  -6.866  24.772  0.00  0.00    +0.222 HD
ENDBRANCH  32  34
BRANCH  32  36
ATOM     36  O   UNL     1       2.791  -6.625  22.349  0.00  0.00    -0.303 OA
ATOM     37  H   UNL     1       2.180  -7.306  22.007  0.00  0.00    +0.222 HD
ENDBRANCH  32  36
ENDBRANCH  31  32
ENDBRANCH  13  31
ENDBRANCH  11  12
ENDBRANCH  10  11
ENDBRANCH   6  10
ENDBRANCH   5   6
ENDBRANCH   1   5
BRANCH   1  38
ATOM     38  O   UNL     1       7.436  -0.811  25.428  0.00  0.00    -0.286 OA
BRANCH  38  39
ATOM     39  C   UNL     1       6.531  -1.095  26.473  0.00  0.00    +0.181 C 
BRANCH  39  40
ATOM     40  C   UNL     1       5.758   0.105  27.093  0.00  0.00    +0.024 C 
ATOM     41  C   UNL     1       4.972  -0.454  28.300  0.00  0.00    +0.016 C 
ATOM     42  C   UNL     1       6.752   1.134  27.693  0.00  0.00    +0.016 C 
BRANCH  40  43
ATOM     43  C   UNL     1       4.772   0.787  26.080  0.00  0.00    +0.208 C 
BRANCH  43  46
ATOM     44  N   UNL     1       5.083   3.253  25.971  0.00  0.00    -0.313 N 
ATOM     45  H   UNL     1       6.073   3.074  25.811  0.00  0.00    +0.149 HD
ATOM     46  C   UNL     1       4.334   2.206  26.505  0.00  0.00    +0.242 C 
ATOM     47  O   UNL     1       3.328   2.424  27.196  0.00  0.00    -0.273 OA
BRANCH  44  48
ATOM     48  C   UNL     1       4.689   4.603  26.353  0.00  0.00    +0.113 C 
BRANCH  48  49
ATOM     49  C   UNL     1       5.731   5.692  26.171  0.00  0.00    +0.114 C 
BRANCH  49  52
ATOM     50  N   UNL     1       7.983   5.989  25.169  0.00  0.00    -0.314 N 
ATOM     51  H   UNL     1       7.598   6.668  24.519  0.00  0.00    +0.149 HD
ATOM     52  C   UNL     1       7.198   5.326  26.076  0.00  0.00    +0.215 C 
ATOM     53  O   UNL     1       7.672   4.485  26.839  0.00  0.00    -0.276 OA
BRANCH  50  54
ATOM     54  C   UNL     1       9.401   5.687  25.016  0.00  0.00    +0.115 C 
BRANCH  54  55
ATOM     55  C   UNL     1       9.842   4.948  23.732  0.00  0.00    +0.096 C 
BRANCH  55  56
ATOM     56  S   UNL     1       9.863   3.148  23.837  0.00  0.00    -0.087 S 
BRANCH  56  57
ATOM     57  C   UNL     1       8.210   2.677  23.480  0.00  0.00    +0.189 C 
ATOM     58  O   UNL     1       7.566   2.176  24.402  0.00  0.00    -0.285 OA
BRANCH  57  59
ATOM     59  C   UNL     1       7.561   3.086  22.169  0.00  0.00    +0.086 C 
BRANCH  59  60
ATOM     60  C   UNL     1       6.029   3.282  22.310  0.00  0.00    +0.008 C 
BRANCH  60  61
ATOM     61  C   UNL     1       5.668   4.722  22.667  0.00  0.00    +0.000 C 
BRANCH  61  62
ATOM     62  C   UNL     1       4.156   4.964  22.695  0.00  0.00    +0.000 C 
BRANCH  62  63
ATOM     63  C   UNL     1       3.406   3.652  22.443  0.00  0.00    -0.000 C 
BRANCH  63  65
ATOM     64  C   UNL     1       1.027   2.908  22.780  0.00  0.00    +0.004 C 
ATOM     65  C   UNL     1       2.294   3.408  23.461  0.00  0.00    -0.003 C 
ENDBRANCH  63  65
ENDBRANCH  62  63
ENDBRANCH  61  62
ENDBRANCH  60  61
ENDBRANCH  59  60
ENDBRANCH  57  59
ENDBRANCH  56  57
ENDBRANCH  55  56
ENDBRANCH  54  55
ENDBRANCH  50  54
ENDBRANCH  49  52
ENDBRANCH  48  49
ENDBRANCH  44  48
ENDBRANCH  43  46
BRANCH  43  66
ATOM     66  O   UNL     1       5.225   0.687  24.741  0.00  0.00    -0.382 OA
ATOM     67  H   UNL     1       6.201   0.642  24.762  0.00  0.00    +0.210 HD
ENDBRANCH  43  66
ENDBRANCH  40  43
ENDBRANCH  39  40
ENDBRANCH  38  39
ENDBRANCH   1  38
TORSDOF 32
ENDMDL
MODEL 9
REMARK VINA RESULT:      -4.7      1.640      2.711
REMARK  Name = 
REMARK  35 active torsions:
REMARK  status: ('A' for Active; 'I' for Inactive)
REMARK    1  A    between atoms: C_1  and  C_2
REMARK    2  A    between atoms: C_2  and  C_3
REMARK    3  A    between atoms: C_3  and  C_4
REMARK    4  A    between atoms: C_4  and  C_5
REMARK    5  A    between atoms: C_5  and  C_6
REMARK    6  A    between atoms: C_6  and  C_7
REMARK    7  A    between atoms: C_7  and  C_8
REMARK    8  A    between atoms: C_8  and  S_10
REMARK    9  A    between atoms: S_10  and  C_11
REMARK   10  A    between atoms: C_11  and  C_12
REMARK   11  A    between atoms: C_12  and  N_13
REMARK   12  A    between atoms: C_14  and  C_16
REMARK   13  A    between atoms: C_16  and  C_17
REMARK   14  A    between atoms: C_17  and  N_18
REMARK   15  A    between atoms: C_19  and  C_21
REMARK   16  A    between atoms: C_21  and  O_23
REMARK   17  A    between atoms: C_21  and  C_24
REMARK   18  A    between atoms: C_24  and  C_25
REMARK   19  A    between atoms: C_24  and  C_26
REMARK   20  A    between atoms: C_24  and  C_27
REMARK   21  A    between atoms: C_27  and  O_28
REMARK   22  A    between atoms: O_28  and  P_29
REMARK   23  A    between atoms: P_29  and  O_30
REMARK   24  A    between atoms: P_29  and  O_32
REMARK   25  A    between atoms: O_32  and  P_33
REMARK   26  A    between atoms: P_33  and  O_34
REMARK   27  A    between atoms: P_33  and  O_36
REMARK   28  A    between atoms: O_36  and  C_37
REMARK   29  A    between atoms: C_37  and  C_38
REMARK   30  A    between atoms: C_41  and  N_53
REMARK   31  A    between atoms: C_43  and  O_45
REMARK   32  A    between atoms: C_46  and  O_48
REMARK   33  A    between atoms: O_48  and  P_49
REMARK   34  A    between atoms: P_49  and  O_50
REMARK   35  A    between atoms: P_49  and  O_51
REMARK                            x       y       z     vdW  Elec       q    Type
REMARK                         _______ _______ _______ _____ _____    ______ ____
ROOT
ATOM      1  P   UNL     1       5.289  -5.695  22.678  0.00  0.00    +0.483 P 
ATOM      2  O   UNL     1       4.581  -4.339  22.601  0.00  0.00    -0.227 OA
ENDROOT
BRANCH   1   3
ATOM      3  O   UNL     1       6.368  -5.107  21.460  0.00  0.00    -0.302 OA
ATOM      4  H   UNL     1       6.215  -4.139  21.512  0.00  0.00    +0.222 HD
ENDBRANCH   1   3
BRANCH   1   5
ATOM      5  O   UNL     1       4.209  -6.282  23.896  0.00  0.00    -0.186 OA
BRANCH   5   6
ATOM      6  P   UNL     1       2.911  -7.157  24.083  0.00  0.00    +0.483 P 
ATOM      7  O   UNL     1       3.129  -8.400  24.892  0.00  0.00    -0.227 OA
BRANCH   6   8
ATOM      8  O   UNL     1       2.395  -7.451  22.619  0.00  0.00    -0.302 OA
ATOM      9  H   UNL     1       2.243  -8.427  22.481  0.00  0.00    +0.222 HD
ENDBRANCH   6   8
BRANCH   6  10
ATOM     10  O   UNL     1       1.694  -6.212  24.644  0.00  0.00    -0.284 OA
BRANCH  10  11
ATOM     11  C   UNL     1       2.080  -4.902  25.096  0.00  0.00    +0.206 C 
BRANCH  11  12
ATOM     12  C   UNL     1       2.365  -4.683  26.601  0.00  0.00    +0.179 C 
ATOM     13  C   UNL     1       3.840  -4.464  26.930  0.00  0.00    +0.194 C 
ATOM     14  C   UNL     1       3.952  -2.972  27.203  0.00  0.00    +0.196 C 
ATOM     15  C   UNL     1       2.535  -2.429  27.000  0.00  0.00    +0.253 C 
ATOM     16  O   UNL     1       1.641  -3.546  27.106  0.00  0.00    -0.346 OA
BRANCH  15  17
ATOM     17  N   UNL     1       2.180  -1.393  27.951  0.00  0.00    -0.286 N 
ATOM     18  C   UNL     1       2.453  -0.066  27.753  0.00  0.00    +0.167 A 
ATOM     19  N   UNL     1       3.149   0.478  26.736  0.00  0.00    -0.216 NA
ATOM     20  C   UNL     1       3.198   1.820  26.865  0.00  0.00    +0.225 A 
ATOM     21  N   UNL     1       2.663   2.591  27.835  0.00  0.00    -0.219 NA
ATOM     22  C   UNL     1       1.963   1.990  28.827  0.00  0.00    +0.147 A 
ATOM     23  N   UNL     1       1.404   2.796  29.808  0.00  0.00    -0.341 N 
ATOM     24  H   UNL     1       1.198   2.310  30.673  0.00  0.00    +0.144 HD
ATOM     25  H   UNL     1       1.853   3.701  29.867  0.00  0.00    +0.144 HD
ATOM     26  C   UNL     1       1.854   0.589  28.813  0.00  0.00    +0.147 A 
ATOM     27  N   UNL     1       1.255  -0.317  29.666  0.00  0.00    -0.231 NA
ATOM     28  C   UNL     1       1.466  -1.498  29.113  0.00  0.00    +0.203 A 
ENDBRANCH  15  17
BRANCH  14  29
ATOM     29  O   UNL     1       4.888  -2.371  26.306  0.00  0.00    -0.385 OA
ATOM     30  H   UNL     1       4.358  -1.880  25.641  0.00  0.00    +0.210 HD
ENDBRANCH  14  29
BRANCH  13  31
ATOM     31  O   UNL     1       4.181  -5.131  28.152  0.00  0.00    -0.278 OA
BRANCH  31  32
ATOM     32  P   UNL     1       5.348  -6.221  28.128  0.00  0.00    +0.473 P 
ATOM     33  O   UNL     1       6.667  -5.790  28.664  0.00  0.00    -0.228 OA
BRANCH  32  34
ATOM     34  O   UNL     1       5.320  -6.685  26.603  0.00  0.00    -0.303 OA
ATOM     35  H   UNL     1       5.242  -5.913  26.014  0.00  0.00    +0.222 HD
ENDBRANCH  32  34
BRANCH  32  36
ATOM     36  O   UNL     1       4.733  -7.515  28.824  0.00  0.00    -0.303 OA
ATOM     37  H   UNL     1       4.716  -7.417  29.795  0.00  0.00    +0.222 HD
ENDBRANCH  32  36
ENDBRANCH  31  32
ENDBRANCH  13  31
ENDBRANCH  11  12
ENDBRANCH  10  11
ENDBRANCH   6  10
ENDBRANCH   5   6
ENDBRANCH   1   5
BRANCH   1  38
ATOM     38  O   UNL     1       6.420  -5.462  23.829  0.00  0.00    -0.286 OA
BRANCH  38  39
ATOM     39  C   UNL     1       7.758  -5.104  23.554  0.00  0.00    +0.181 C 
BRANCH  39  40
ATOM     40  C   UNL     1       8.485  -4.207  24.598  0.00  0.00    +0.024 C 
ATOM     41  C   UNL     1       7.517  -4.050  25.792  0.00  0.00    +0.016 C 
ATOM     42  C   UNL     1       9.725  -4.943  25.171  0.00  0.00    +0.016 C 
BRANCH  40  43
ATOM     43  C   UNL     1       8.870  -2.796  24.030  0.00  0.00    +0.208 C 
BRANCH  43  46
ATOM     44  N   UNL     1       7.401  -0.881  24.633  0.00  0.00    -0.313 N 
ATOM     45  H   UNL     1       7.214  -0.771  23.637  0.00  0.00    +0.149 HD
ATOM     46  C   UNL     1       8.522  -1.630  24.983  0.00  0.00    +0.242 C 
ATOM     47  O   UNL     1       9.130  -1.420  26.043  0.00  0.00    -0.273 OA
BRANCH  44  48
ATOM     48  C   UNL     1       7.047   0.222  25.517  0.00  0.00    +0.113 C 
BRANCH  48  49
ATOM     49  C   UNL     1       6.608   1.514  24.851  0.00  0.00    +0.114 C 
BRANCH  49  52
ATOM     50  N   UNL     1       5.712   3.794  25.256  0.00  0.00    -0.314 N 
ATOM     51  H   UNL     1       5.151   3.717  24.414  0.00  0.00    +0.149 HD
ATOM     52  C   UNL     1       6.572   2.802  25.650  0.00  0.00    +0.215 C 
ATOM     53  O   UNL     1       7.268   2.919  26.658  0.00  0.00    -0.276 OA
BRANCH  50  54
ATOM     54  C   UNL     1       5.627   5.063  25.971  0.00  0.00    +0.115 C 
BRANCH  54  55
ATOM     55  C   UNL     1       6.335   6.286  25.346  0.00  0.00    +0.096 C 
BRANCH  55  56
ATOM     56  S   UNL     1       6.020   6.557  23.592  0.00  0.00    -0.087 S 
BRANCH  56  57
ATOM     57  C   UNL     1       7.599   6.393  22.841  0.00  0.00    +0.189 C 
ATOM     58  O   UNL     1       7.616   6.125  21.640  0.00  0.00    -0.285 OA
BRANCH  57  59
ATOM     59  C   UNL     1       8.854   6.790  23.598  0.00  0.00    +0.086 C 
BRANCH  59  60
ATOM     60  C   UNL     1       9.932   5.674  23.574  0.00  0.00    +0.008 C 
BRANCH  60  61
ATOM     61  C   UNL     1       9.386   4.343  24.086  0.00  0.00    +0.000 C 
BRANCH  61  62
ATOM     62  C   UNL     1      10.241   3.147  23.653  0.00  0.00    +0.000 C 
BRANCH  62  63
ATOM     63  C   UNL     1       9.488   2.309  22.615  0.00  0.00    -0.000 C 
BRANCH  63  65
ATOM     64  C   UNL     1       9.337   0.117  21.391  0.00  0.00    +0.004 C 
ATOM     65  C   UNL     1      10.035   0.887  22.503  0.00  0.00    -0.003 C 
ENDBRANCH  63  65
ENDBRANCH  62  63
ENDBRANCH  61  62
ENDBRANCH  60  61
ENDBRANCH  59  60
ENDBRANCH  57  59
ENDBRANCH  56  57
ENDBRANCH  55  56
ENDBRANCH  54  55
ENDBRANCH  50  54
ENDBRANCH  49  52
ENDBRANCH  48  49
ENDBRANCH  44  48
ENDBRANCH  43  46
BRANCH  43  66
ATOM     66  O   UNL     1      10.192  -2.766  23.521  0.00  0.00    -0.382 OA
ATOM     67  H   UNL     1      10.454  -1.830  23.432  0.00  0.00    +0.210 HD
ENDBRANCH  43  66
ENDBRANCH  40  43
ENDBRANCH  39  40
ENDBRANCH  38  39
ENDBRANCH   1  38
TORSDOF 32
ENDMDL
