MODEL 1
REMARK VINA RESULT:      -7.7      0.000      0.000
REMARK  Name = 
REMARK  7 active torsions:
REMARK  status: ('A' for Active; 'I' for Inactive)
REMARK    1  A    between atoms: C_2  and  C_3
REMARK    2  A    between atoms: C_2  and  N_14
REMARK    3  A    between atoms: C_2  and  C_28
REMARK    4  A    between atoms: C_3  and  C_4
REMARK    5  A    between atoms: N_14  and  S_15
REMARK    6  A    between atoms: S_15  and  C_18
REMARK    7  A    between atoms: N_30  and  O_31
REMARK                            x       y       z     vdW  Elec       q    Type
REMARK                         _______ _______ _______ _____ _____    ______ ____
ROOT
ATOM      1  C   UNL     1       6.886  -4.123  26.257  0.00  0.00    +0.168 C 
ENDROOT
BRANCH   1   2
ATOM      2  C   UNL     1       6.520  -5.279  27.190  0.00  0.00    +0.254 C 
ATOM      3  N   UNL     1       5.765  -6.269  26.595  0.00  0.00    -0.196 N 
ATOM      4  H   UNL     1       5.214  -6.128  25.755  0.00  0.00    +0.182 HD
ATOM      5  O   UNL     1       6.816  -5.311  28.384  0.00  0.00    -0.272 OA
BRANCH   3   6
ATOM      6  O   UNL     1       5.327  -7.301  27.457  0.00  0.00    -0.295 OA
ATOM      7  H   UNL     1       6.110  -7.896  27.489  0.00  0.00    +0.241 HD
ENDBRANCH   3   6
ENDBRANCH   1   2
BRANCH   1   8
ATOM      8  N   UNL     1       8.351  -3.982  26.084  0.00  0.00    -0.178 NA
ATOM      9  H   UNL     1       8.929  -4.382  26.827  0.00  0.00    +0.149 HD
BRANCH   8  10
ATOM     10  S   UNL     1       9.022  -4.342  24.581  0.00  0.00    +0.059 S 
ATOM     11  O   UNL     1       8.058  -5.106  23.821  0.00  0.00    -0.153 OA
ATOM     12  O   UNL     1      10.363  -4.814  24.835  0.00  0.00    -0.153 OA
BRANCH  10  13
ATOM     13  C   UNL     1       9.172  -2.752  23.806  0.00  0.00    +0.106 A 
ATOM     14  C   UNL     1       8.755  -2.587  22.483  0.00  0.00    +0.029 A 
ATOM     15  C   UNL     1       8.922  -1.351  21.855  0.00  0.00    +0.010 A 
ATOM     16  C   UNL     1       9.502  -0.273  22.543  0.00  0.00    -0.018 A 
ATOM     17  C   UNL     1       9.679   0.975  21.925  0.00  0.00    +0.008 A 
ATOM     18  C   UNL     1      10.256   2.040  22.621  0.00  0.00    +0.001 A 
ATOM     19  C   UNL     1      10.670   1.866  23.938  0.00  0.00    +0.001 A 
ATOM     20  C   UNL     1      10.508   0.630  24.565  0.00  0.00    +0.008 A 
ATOM     21  C   UNL     1       9.924  -0.449  23.884  0.00  0.00    -0.016 A 
ATOM     22  C   UNL     1       9.757  -1.695  24.506  0.00  0.00    +0.037 A 
ENDBRANCH  10  13
ENDBRANCH   8  10
ENDBRANCH   1   8
BRANCH   1  23
ATOM     23  C   UNL     1       6.301  -2.846  26.902  0.00  0.00    +0.065 C 
BRANCH  23  24
ATOM     24  C   UNL     1       6.356  -1.563  26.103  0.00  0.00    -0.045 A 
ATOM     25  C   UNL     1       5.960  -1.581  24.758  0.00  0.00    +0.004 A 
ATOM     26  C   UNL     1       6.043  -0.427  23.972  0.00  0.00    +0.009 A 
ATOM     27  C   UNL     1       6.546   0.767  24.507  0.00  0.00    -0.018 A 
ATOM     28  C   UNL     1       6.639   1.941  23.741  0.00  0.00    +0.008 A 
ATOM     29  C   UNL     1       7.162   3.112  24.294  0.00  0.00    +0.001 A 
ATOM     30  C   UNL     1       7.600   3.124  25.615  0.00  0.00    +0.001 A 
ATOM     31  C   UNL     1       7.503   1.970  26.391  0.00  0.00    +0.008 A 
ATOM     32  C   UNL     1       6.974   0.789  25.851  0.00  0.00    -0.018 A 
ATOM     33  C   UNL     1       6.872  -0.374  26.631  0.00  0.00    +0.012 A 
ENDBRANCH  23  24
ENDBRANCH   1  23
TORSDOF 7
ENDMDL
MODEL 2
REMARK VINA RESULT:      -7.5      0.533      1.327
REMARK  Name = 
REMARK  7 active torsions:
REMARK  status: ('A' for Active; 'I' for Inactive)
REMARK    1  A    between atoms: C_2  and  C_3
REMARK    2  A    between atoms: C_2  and  N_14
REMARK    3  A    between atoms: C_2  and  C_28
REMARK    4  A    between atoms: C_3  and  C_4
REMARK    5  A    between atoms: N_14  and  S_15
REMARK    6  A    between atoms: S_15  and  C_18
REMARK    7  A    between atoms: N_30  and  O_31
REMARK                            x       y       z     vdW  Elec       q    Type
REMARK                         _______ _______ _______ _____ _____    ______ ____
ROOT
ATOM      1  C   UNL     1       6.498  -4.645  25.955  0.00  0.00    +0.168 C 
ENDROOT
BRANCH   1   2
ATOM      2  C   UNL     1       6.269  -5.453  27.234  0.00  0.00    +0.254 C 
ATOM      3  N   UNL     1       5.721  -6.702  27.025  0.00  0.00    -0.196 N 
ATOM      4  H   UNL     1       5.205  -6.957  26.190  0.00  0.00    +0.182 HD
ATOM      5  O   UNL     1       6.496  -5.020  28.363  0.00  0.00    -0.272 OA
BRANCH   3   6
ATOM      6  O   UNL     1       5.406  -7.432  28.194  0.00  0.00    -0.295 OA
ATOM      7  H   UNL     1       6.277  -7.495  28.646  0.00  0.00    +0.241 HD
ENDBRANCH   3   6
ENDBRANCH   1   2
BRANCH   1   8
ATOM      8  N   UNL     1       7.882  -4.125  25.858  0.00  0.00    -0.178 NA
ATOM      9  H   UNL     1       8.473  -4.272  26.679  0.00  0.00    +0.149 HD
BRANCH   8  10
ATOM     10  S   UNL     1       8.764  -4.440  24.456  0.00  0.00    +0.059 S 
ATOM     11  O   UNL     1       7.930  -5.204  23.554  0.00  0.00    -0.153 OA
ATOM     12  O   UNL     1      10.065  -4.896  24.887  0.00  0.00    -0.153 OA
BRANCH  10  13
ATOM     13  C   UNL     1       8.989  -2.832  23.742  0.00  0.00    +0.106 A 
ATOM     14  C   UNL     1       8.555  -2.589  22.436  0.00  0.00    +0.029 A 
ATOM     15  C   UNL     1       8.781  -1.341  21.854  0.00  0.00    +0.010 A 
ATOM     16  C   UNL     1       9.437  -0.326  22.570  0.00  0.00    -0.018 A 
ATOM     17  C   UNL     1       9.672   0.934  21.998  0.00  0.00    +0.008 A 
ATOM     18  C   UNL     1      10.325   1.934  22.722  0.00  0.00    +0.001 A 
ATOM     19  C   UNL     1      10.756   1.684  24.021  0.00  0.00    +0.001 A 
ATOM     20  C   UNL     1      10.535   0.434  24.602  0.00  0.00    +0.008 A 
ATOM     21  C   UNL     1       9.875  -0.580  23.893  0.00  0.00    -0.016 A 
ATOM     22  C   UNL     1       9.649  -1.840  24.470  0.00  0.00    +0.037 A 
ENDBRANCH  10  13
ENDBRANCH   8  10
ENDBRANCH   1   8
BRANCH   1  23
ATOM     23  C   UNL     1       5.491  -3.474  25.999  0.00  0.00    +0.065 C 
BRANCH  23  24
ATOM     24  C   UNL     1       6.041  -2.067  25.923  0.00  0.00    -0.045 A 
ATOM     25  C   UNL     1       6.637  -1.507  27.062  0.00  0.00    +0.004 A 
ATOM     26  C   UNL     1       7.113  -0.192  27.048  0.00  0.00    +0.009 A 
ATOM     27  C   UNL     1       6.984   0.602  25.899  0.00  0.00    -0.018 A 
ATOM     28  C   UNL     1       7.455   1.924  25.855  0.00  0.00    +0.008 A 
ATOM     29  C   UNL     1       7.297   2.699  24.704  0.00  0.00    +0.001 A 
ATOM     30  C   UNL     1       6.665   2.164  23.585  0.00  0.00    +0.001 A 
ATOM     31  C   UNL     1       6.204   0.849  23.609  0.00  0.00    +0.008 A 
ATOM     32  C   UNL     1       6.362   0.057  24.756  0.00  0.00    -0.018 A 
ATOM     33  C   UNL     1       5.901  -1.268  24.782  0.00  0.00    +0.012 A 
ENDBRANCH  23  24
ENDBRANCH   1  23
TORSDOF 7
ENDMDL
MODEL 3
REMARK VINA RESULT:      -7.3      1.623      3.915
REMARK  Name = 
REMARK  7 active torsions:
REMARK  status: ('A' for Active; 'I' for Inactive)
REMARK    1  A    between atoms: C_2  and  C_3
REMARK    2  A    between atoms: C_2  and  N_14
REMARK    3  A    between atoms: C_2  and  C_28
REMARK    4  A    between atoms: C_3  and  C_4
REMARK    5  A    between atoms: N_14  and  S_15
REMARK    6  A    between atoms: S_15  and  C_18
REMARK    7  A    between atoms: N_30  and  O_31
REMARK                            x       y       z     vdW  Elec       q    Type
REMARK                         _______ _______ _______ _____ _____    ______ ____
ROOT
ATOM      1  C   UNL     1       7.724  -3.724  25.667  0.00  0.00    +0.168 C 
ENDROOT
BRANCH   1   2
ATOM      2  C   UNL     1       7.908  -5.074  26.363  0.00  0.00    +0.254 C 
ATOM      3  N   UNL     1       7.148  -5.232  27.504  0.00  0.00    -0.196 N 
ATOM      4  H   UNL     1       6.766  -4.458  28.037  0.00  0.00    +0.182 HD
ATOM      5  O   UNL     1       8.704  -5.933  25.984  0.00  0.00    -0.272 OA
BRANCH   3   6
ATOM      6  O   UNL     1       7.371  -6.429  28.223  0.00  0.00    -0.295 OA
ATOM      7  H   UNL     1       8.085  -6.170  28.849  0.00  0.00    +0.241 HD
ENDBRANCH   3   6
ENDBRANCH   1   2
BRANCH   1   8
ATOM      8  N   UNL     1       6.379  -3.583  25.060  0.00  0.00    -0.178 NA
ATOM      9  H   UNL     1       5.922  -4.454  24.781  0.00  0.00    +0.149 HD
BRANCH   8  10
ATOM     10  S   UNL     1       5.262  -2.565  25.806  0.00  0.00    +0.059 S 
ATOM     11  O   UNL     1       5.175  -2.928  27.203  0.00  0.00    -0.153 OA
ATOM     12  O   UNL     1       4.108  -2.522  24.940  0.00  0.00    -0.153 OA
BRANCH  10  13
ATOM     13  C   UNL     1       6.036  -0.970  25.717  0.00  0.00    +0.106 A 
ATOM     14  C   UNL     1       6.713  -0.469  26.832  0.00  0.00    +0.029 A 
ATOM     15  C   UNL     1       7.275   0.808  26.781  0.00  0.00    +0.010 A 
ATOM     16  C   UNL     1       7.169   1.590  25.620  0.00  0.00    -0.018 A 
ATOM     17  C   UNL     1       7.728   2.876  25.554  0.00  0.00    +0.008 A 
ATOM     18  C   UNL     1       7.616   3.643  24.392  0.00  0.00    +0.001 A 
ATOM     19  C   UNL     1       6.938   3.137  23.287  0.00  0.00    +0.001 A 
ATOM     20  C   UNL     1       6.371   1.863  23.339  0.00  0.00    +0.008 A 
ATOM     21  C   UNL     1       6.480   1.075  24.494  0.00  0.00    -0.016 A 
ATOM     22  C   UNL     1       5.913  -0.208  24.555  0.00  0.00    +0.037 A 
ENDBRANCH  10  13
ENDBRANCH   8  10
ENDBRANCH   1   8
BRANCH   1  23
ATOM     23  C   UNL     1       8.812  -3.650  24.573  0.00  0.00    +0.065 C 
BRANCH  23  24
ATOM     24  C   UNL     1       9.034  -2.321  23.888  0.00  0.00    -0.045 A 
ATOM     25  C   UNL     1       8.624  -2.164  22.556  0.00  0.00    +0.004 A 
ATOM     26  C   UNL     1       8.857  -0.967  21.871  0.00  0.00    +0.009 A 
ATOM     27  C   UNL     1       9.525   0.096  22.496  0.00  0.00    -0.018 A 
ATOM     28  C   UNL     1       9.770   1.309  21.834  0.00  0.00    +0.008 A 
ATOM     29  C   UNL     1      10.456   2.344  22.475  0.00  0.00    +0.001 A 
ATOM     30  C   UNL     1      10.906   2.179  23.781  0.00  0.00    +0.001 A 
ATOM     31  C   UNL     1      10.660   0.984  24.455  0.00  0.00    +0.008 A 
ATOM     32  C   UNL     1       9.967  -0.061  23.827  0.00  0.00    -0.018 A 
ATOM     33  C   UNL     1       9.715  -1.264  24.505  0.00  0.00    +0.012 A 
ENDBRANCH  23  24
ENDBRANCH   1  23
TORSDOF 7
ENDMDL
MODEL 4
REMARK VINA RESULT:      -7.2      4.352      7.172
REMARK  Name = 
REMARK  7 active torsions:
REMARK  status: ('A' for Active; 'I' for Inactive)
REMARK    1  A    between atoms: C_2  and  C_3
REMARK    2  A    between atoms: C_2  and  N_14
REMARK    3  A    between atoms: C_2  and  C_28
REMARK    4  A    between atoms: C_3  and  C_4
REMARK    5  A    between atoms: N_14  and  S_15
REMARK    6  A    between atoms: S_15  and  C_18
REMARK    7  A    between atoms: N_30  and  O_31
REMARK                            x       y       z     vdW  Elec       q    Type
REMARK                         _______ _______ _______ _____ _____    ______ ____
ROOT
ATOM      1  C   UNL     1      10.053   2.289  23.277  0.00  0.00    +0.168 C 
ENDROOT
BRANCH   1   2
ATOM      2  C   UNL     1      10.790   3.627  23.369  0.00  0.00    +0.254 C 
ATOM      3  N   UNL     1       9.963   4.730  23.369  0.00  0.00    -0.196 N 
ATOM      4  H   UNL     1       9.012   4.721  23.013  0.00  0.00    +0.182 HD
ATOM      5  O   UNL     1      12.016   3.729  23.383  0.00  0.00    -0.272 OA
BRANCH   3   6
ATOM      6  O   UNL     1      10.618   5.983  23.352  0.00  0.00    -0.295 OA
ATOM      7  H   UNL     1      10.605   6.216  22.397  0.00  0.00    +0.241 HD
ENDBRANCH   3   6
ENDBRANCH   1   2
BRANCH   1   8
ATOM      8  N   UNL     1       8.581   2.451  23.349  0.00  0.00    -0.178 NA
ATOM      9  H   UNL     1       8.246   3.399  23.537  0.00  0.00    +0.149 HD
BRANCH   8  10
ATOM     10  S   UNL     1       7.634   1.737  22.152  0.00  0.00    +0.059 S 
ATOM     11  O   UNL     1       8.512   1.138  21.171  0.00  0.00    -0.153 OA
ATOM     12  O   UNL     1       6.621   2.705  21.801  0.00  0.00    -0.153 OA
BRANCH  10  13
ATOM     13  C   UNL     1       6.814   0.417  23.010  0.00  0.00    +0.106 A 
ATOM     14  C   UNL     1       6.293   0.643  24.286  0.00  0.00    +0.029 A 
ATOM     15  C   UNL     1       5.696  -0.408  24.985  0.00  0.00    +0.010 A 
ATOM     16  C   UNL     1       5.613  -1.689  24.414  0.00  0.00    -0.018 A 
ATOM     17  C   UNL     1       5.018  -2.757  25.104  0.00  0.00    +0.008 A 
ATOM     18  C   UNL     1       4.940  -4.025  24.524  0.00  0.00    +0.001 A 
ATOM     19  C   UNL     1       5.464  -4.242  23.253  0.00  0.00    +0.001 A 
ATOM     20  C   UNL     1       6.065  -3.192  22.557  0.00  0.00    +0.008 A 
ATOM     21  C   UNL     1       6.145  -1.910  23.120  0.00  0.00    -0.016 A 
ATOM     22  C   UNL     1       6.748  -0.849  22.427  0.00  0.00    +0.037 A 
ENDBRANCH  10  13
ENDBRANCH   8  10
ENDBRANCH   1   8
BRANCH   1  23
ATOM     23  C   UNL     1      10.553   1.438  24.466  0.00  0.00    +0.065 C 
BRANCH  23  24
ATOM     24  C   UNL     1      10.177  -0.026  24.493  0.00  0.00    -0.045 A 
ATOM     25  C   UNL     1      10.443  -0.819  23.368  0.00  0.00    +0.004 A 
ATOM     26  C   UNL     1      10.066  -2.165  23.335  0.00  0.00    +0.009 A 
ATOM     27  C   UNL     1       9.392  -2.745  24.419  0.00  0.00    -0.018 A 
ATOM     28  C   UNL     1       9.003  -4.095  24.414  0.00  0.00    +0.008 A 
ATOM     29  C   UNL     1       8.316  -4.642  25.501  0.00  0.00    +0.001 A 
ATOM     30  C   UNL     1       8.007  -3.848  26.602  0.00  0.00    +0.001 A 
ATOM     31  C   UNL     1       8.397  -2.510  26.626  0.00  0.00    +0.008 A 
ATOM     32  C   UNL     1       9.094  -1.949  25.546  0.00  0.00    -0.018 A 
ATOM     33  C   UNL     1       9.491  -0.603  25.569  0.00  0.00    +0.012 A 
ENDBRANCH  23  24
ENDBRANCH   1  23
TORSDOF 7
ENDMDL
MODEL 5
REMARK VINA RESULT:      -7.2      2.122      4.354
REMARK  Name = 
REMARK  7 active torsions:
REMARK  status: ('A' for Active; 'I' for Inactive)
REMARK    1  A    between atoms: C_2  and  C_3
REMARK    2  A    between atoms: C_2  and  N_14
REMARK    3  A    between atoms: C_2  and  C_28
REMARK    4  A    between atoms: C_3  and  C_4
REMARK    5  A    between atoms: N_14  and  S_15
REMARK    6  A    between atoms: S_15  and  C_18
REMARK    7  A    between atoms: N_30  and  O_31
REMARK                            x       y       z     vdW  Elec       q    Type
REMARK                         _______ _______ _______ _____ _____    ______ ____
ROOT
ATOM      1  C   UNL     1       6.251  -4.205  23.874  0.00  0.00    +0.168 C 
ENDROOT
BRANCH   1   2
ATOM      2  C   UNL     1       5.454  -5.370  23.283  0.00  0.00    +0.254 C 
ATOM      3  N   UNL     1       5.058  -6.313  24.209  0.00  0.00    -0.196 N 
ATOM      4  H   UNL     1       5.504  -6.436  25.112  0.00  0.00    +0.182 HD
ATOM      5  O   UNL     1       5.227  -5.499  22.081  0.00  0.00    -0.272 OA
BRANCH   3   6
ATOM      6  O   UNL     1       4.406  -7.450  23.680  0.00  0.00    -0.295 OA
ATOM      7  H   UNL     1       4.147  -7.942  24.490  0.00  0.00    +0.241 HD
ENDBRANCH   3   6
ENDBRANCH   1   2
BRANCH   1   8
ATOM      8  N   UNL     1       5.432  -2.978  24.017  0.00  0.00    -0.178 NA
ATOM      9  H   UNL     1       4.553  -2.965  23.495  0.00  0.00    +0.149 HD
BRANCH   8  10
ATOM     10  S   UNL     1       5.189  -2.348  25.561  0.00  0.00    +0.059 S 
ATOM     11  O   UNL     1       5.868  -3.198  26.514  0.00  0.00    -0.153 OA
ATOM     12  O   UNL     1       3.781  -2.040  25.659  0.00  0.00    -0.153 OA
BRANCH  10  13
ATOM     13  C   UNL     1       6.056  -0.800  25.515  0.00  0.00    +0.106 A 
ATOM     14  C   UNL     1       6.855  -0.424  26.597  0.00  0.00    +0.029 A 
ATOM     15  C   UNL     1       7.494   0.817  26.585  0.00  0.00    +0.010 A 
ATOM     16  C   UNL     1       7.343   1.688  25.494  0.00  0.00    -0.018 A 
ATOM     17  C   UNL     1       7.977   2.940  25.468  0.00  0.00    +0.008 A 
ATOM     18  C   UNL     1       7.820   3.796  24.376  0.00  0.00    +0.001 A 
ATOM     19  C   UNL     1       7.020   3.415  23.303  0.00  0.00    +0.001 A 
ATOM     20  C   UNL     1       6.377   2.176  23.316  0.00  0.00    +0.008 A 
ATOM     21  C   UNL     1       6.529   1.300  24.401  0.00  0.00    -0.016 A 
ATOM     22  C   UNL     1       5.887   0.053  24.423  0.00  0.00    +0.037 A 
ENDBRANCH  10  13
ENDBRANCH   8  10
ENDBRANCH   1   8
BRANCH   1  23
ATOM     23  C   UNL     1       7.427  -3.950  22.904  0.00  0.00    +0.065 C 
BRANCH  23  24
ATOM     24  C   UNL     1       8.287  -2.730  23.144  0.00  0.00    -0.045 A 
ATOM     25  C   UNL     1       8.993  -2.620  24.350  0.00  0.00    +0.004 A 
ATOM     26  C   UNL     1       9.759  -1.484  24.631  0.00  0.00    +0.009 A 
ATOM     27  C   UNL     1       9.821  -0.421  23.719  0.00  0.00    -0.018 A 
ATOM     28  C   UNL     1      10.584   0.730  23.973  0.00  0.00    +0.008 A 
ATOM     29  C   UNL     1      10.612   1.783  23.055  0.00  0.00    +0.001 A 
ATOM     30  C   UNL     1       9.878   1.700  21.876  0.00  0.00    +0.001 A 
ATOM     31  C   UNL     1       9.125   0.559  21.605  0.00  0.00    +0.008 A 
ATOM     32  C   UNL     1       9.093  -0.509  22.514  0.00  0.00    -0.018 A 
ATOM     33  C   UNL     1       8.338  -1.661  22.241  0.00  0.00    +0.012 A 
ENDBRANCH  23  24
ENDBRANCH   1  23
TORSDOF 7
ENDMDL
MODEL 6
REMARK VINA RESULT:      -7.1      1.969      3.106
REMARK  Name = 
REMARK  7 active torsions:
REMARK  status: ('A' for Active; 'I' for Inactive)
REMARK    1  A    between atoms: C_2  and  C_3
REMARK    2  A    between atoms: C_2  and  N_14
REMARK    3  A    between atoms: C_2  and  C_28
REMARK    4  A    between atoms: C_3  and  C_4
REMARK    5  A    between atoms: N_14  and  S_15
REMARK    6  A    between atoms: S_15  and  C_18
REMARK    7  A    between atoms: N_30  and  O_31
REMARK                            x       y       z     vdW  Elec       q    Type
REMARK                         _______ _______ _______ _____ _____    ______ ____
ROOT
ATOM      1  C   UNL     1       8.669  -2.741  24.941  0.00  0.00    +0.168 C 
ENDROOT
BRANCH   1   2
ATOM      2  C   UNL     1       8.896  -4.142  25.512  0.00  0.00    +0.254 C 
ATOM      3  N   UNL     1       8.107  -4.445  26.601  0.00  0.00    -0.196 N 
ATOM      4  H   UNL     1       7.668  -3.745  27.191  0.00  0.00    +0.182 HD
ATOM      5  O   UNL     1       9.747  -4.922  25.084  0.00  0.00    -0.272 OA
BRANCH   3   6
ATOM      6  O   UNL     1       8.364  -5.694  27.212  0.00  0.00    -0.295 OA
ATOM      7  H   UNL     1       9.257  -5.919  26.867  0.00  0.00    +0.241 HD
ENDBRANCH   3   6
ENDBRANCH   1   2
BRANCH   1   8
ATOM      8  N   UNL     1       9.861  -2.223  24.229  0.00  0.00    -0.178 NA
ATOM      9  H   UNL     1      10.687  -2.824  24.245  0.00  0.00    +0.149 HD
BRANCH   8  10
ATOM     10  S   UNL     1       9.658  -1.573  22.687  0.00  0.00    +0.059 S 
ATOM     11  O   UNL     1       8.393  -2.034  22.160  0.00  0.00    -0.153 OA
ATOM     12  O   UNL     1      10.909  -1.771  21.993  0.00  0.00    -0.153 OA
BRANCH  10  13
ATOM     13  C   UNL     1       9.505   0.169  22.992  0.00  0.00    +0.106 A 
ATOM     14  C   UNL     1      10.362   0.788  23.905  0.00  0.00    +0.029 A 
ATOM     15  C   UNL     1      10.206   2.146  24.187  0.00  0.00    +0.010 A 
ATOM     16  C   UNL     1       9.200   2.896  23.557  0.00  0.00    -0.018 A 
ATOM     17  C   UNL     1       9.030   4.262  23.831  0.00  0.00    +0.008 A 
ATOM     18  C   UNL     1       8.025   4.997  23.196  0.00  0.00    +0.001 A 
ATOM     19  C   UNL     1       7.175   4.372  22.289  0.00  0.00    +0.001 A 
ATOM     20  C   UNL     1       7.326   3.013  22.012  0.00  0.00    +0.008 A 
ATOM     21  C   UNL     1       8.334   2.261  22.633  0.00  0.00    -0.016 A 
ATOM     22  C   UNL     1       8.493   0.893  22.360  0.00  0.00    +0.037 A 
ENDBRANCH  10  13
ENDBRANCH   8  10
ENDBRANCH   1   8
BRANCH   1  23
ATOM     23  C   UNL     1       8.332  -1.833  26.145  0.00  0.00    +0.065 C 
BRANCH  23  24
ATOM     24  C   UNL     1       7.472  -0.615  25.893  0.00  0.00    -0.045 A 
ATOM     25  C   UNL     1       6.443  -0.693  24.944  0.00  0.00    +0.004 A 
ATOM     26  C   UNL     1       5.659   0.426  24.645  0.00  0.00    +0.009 A 
ATOM     27  C   UNL     1       5.900   1.656  25.273  0.00  0.00    -0.018 A 
ATOM     28  C   UNL     1       5.126   2.795  24.995  0.00  0.00    +0.008 A 
ATOM     29  C   UNL     1       5.401   4.013  25.622  0.00  0.00    +0.001 A 
ATOM     30  C   UNL     1       6.450   4.108  26.530  0.00  0.00    +0.001 A 
ATOM     31  C   UNL     1       7.219   2.983  26.826  0.00  0.00    +0.008 A 
ATOM     32  C   UNL     1       6.951   1.753  26.210  0.00  0.00    -0.018 A 
ATOM     33  C   UNL     1       7.721   0.618  26.508  0.00  0.00    +0.012 A 
ENDBRANCH  23  24
ENDBRANCH   1  23
TORSDOF 7
ENDMDL
MODEL 7
REMARK VINA RESULT:      -7.0      1.904      2.696
REMARK  Name = 
REMARK  7 active torsions:
REMARK  status: ('A' for Active; 'I' for Inactive)
REMARK    1  A    between atoms: C_2  and  C_3
REMARK    2  A    between atoms: C_2  and  N_14
REMARK    3  A    between atoms: C_2  and  C_28
REMARK    4  A    between atoms: C_3  and  C_4
REMARK    5  A    between atoms: N_14  and  S_15
REMARK    6  A    between atoms: S_15  and  C_18
REMARK    7  A    between atoms: N_30  and  O_31
REMARK                            x       y       z     vdW  Elec       q    Type
REMARK                         _______ _______ _______ _____ _____    ______ ____
ROOT
ATOM      1  C   UNL     1       5.080  -4.633  24.409  0.00  0.00    +0.168 C 
ENDROOT
BRANCH   1   2
ATOM      2  C   UNL     1       4.266  -5.894  24.705  0.00  0.00    +0.254 C 
ATOM      3  N   UNL     1       4.164  -6.766  23.641  0.00  0.00    -0.196 N 
ATOM      4  H   UNL     1       4.302  -6.491  22.674  0.00  0.00    +0.182 HD
ATOM      5  O   UNL     1       3.696  -6.102  25.776  0.00  0.00    -0.272 OA
BRANCH   3   6
ATOM      6  O   UNL     1       3.336  -7.892  23.852  0.00  0.00    -0.295 OA
ATOM      7  H   UNL     1       2.858  -7.967  22.996  0.00  0.00    +0.241 HD
ENDBRANCH   3   6
ENDBRANCH   1   2
BRANCH   1   8
ATOM      8  N   UNL     1       6.430  -4.945  23.884  0.00  0.00    -0.178 NA
ATOM      9  H   UNL     1       6.737  -5.915  23.990  0.00  0.00    +0.149 HD
BRANCH   8  10
ATOM     10  S   UNL     1       6.849  -4.378  22.353  0.00  0.00    +0.059 S 
ATOM     11  O   UNL     1       5.679  -3.776  21.753  0.00  0.00    -0.153 OA
ATOM     12  O   UNL     1       7.592  -5.439  21.714  0.00  0.00    -0.153 OA
BRANCH  10  13
ATOM     13  C   UNL     1       8.001  -3.074  22.699  0.00  0.00    +0.106 A 
ATOM     14  C   UNL     1       8.925  -3.226  23.735  0.00  0.00    +0.029 A 
ATOM     15  C   UNL     1       9.796  -2.179  24.044  0.00  0.00    +0.010 A 
ATOM     16  C   UNL     1       9.753  -0.977  23.320  0.00  0.00    -0.018 A 
ATOM     17  C   UNL     1      10.621   0.085  23.619  0.00  0.00    +0.008 A 
ATOM     18  C   UNL     1      10.568   1.275  22.890  0.00  0.00    +0.001 A 
ATOM     19  C   UNL     1       9.643   1.419  21.860  0.00  0.00    +0.001 A 
ATOM     20  C   UNL     1       8.769   0.375  21.554  0.00  0.00    +0.008 A 
ATOM     21  C   UNL     1       8.812  -0.830  22.271  0.00  0.00    -0.016 A 
ATOM     22  C   UNL     1       7.937  -1.885  21.970  0.00  0.00    +0.037 A 
ENDBRANCH  10  13
ENDBRANCH   8  10
ENDBRANCH   1   8
BRANCH   1  23
ATOM     23  C   UNL     1       5.193  -3.868  25.747  0.00  0.00    +0.065 C 
BRANCH  23  24
ATOM     24  C   UNL     1       5.969  -2.570  25.754  0.00  0.00    -0.045 A 
ATOM     25  C   UNL     1       6.970  -2.380  26.718  0.00  0.00    +0.004 A 
ATOM     26  C   UNL     1       7.675  -1.175  26.789  0.00  0.00    +0.009 A 
ATOM     27  C   UNL     1       7.381  -0.121  25.911  0.00  0.00    -0.018 A 
ATOM     28  C   UNL     1       8.075   1.098  25.959  0.00  0.00    +0.008 A 
ATOM     29  C   UNL     1       7.748   2.138  25.085  0.00  0.00    +0.001 A 
ATOM     30  C   UNL     1       6.725   1.972  24.156  0.00  0.00    +0.001 A 
ATOM     31  C   UNL     1       6.035   0.763  24.089  0.00  0.00    +0.008 A 
ATOM     32  C   UNL     1       6.357  -0.292  24.956  0.00  0.00    -0.018 A 
ATOM     33  C   UNL     1       5.666  -1.512  24.888  0.00  0.00    +0.012 A 
ENDBRANCH  23  24
ENDBRANCH   1  23
TORSDOF 7
ENDMDL
MODEL 8
REMARK VINA RESULT:      -7.0      3.612      7.010
REMARK  Name = 
REMARK  7 active torsions:
REMARK  status: ('A' for Active; 'I' for Inactive)
REMARK    1  A    between atoms: C_2  and  C_3
REMARK    2  A    between atoms: C_2  and  N_14
REMARK    3  A    between atoms: C_2  and  C_28
REMARK    4  A    between atoms: C_3  and  C_4
REMARK    5  A    between atoms: N_14  and  S_15
REMARK    6  A    between atoms: S_15  and  C_18
REMARK    7  A    between atoms: N_30  and  O_31
REMARK                            x       y       z     vdW  Elec       q    Type
REMARK                         _______ _______ _______ _____ _____    ______ ____
ROOT
ATOM      1  C   UNL     1       8.784   0.351  24.455  0.00  0.00    +0.168 C 
ENDROOT
BRANCH   1   2
ATOM      2  C   UNL     1       9.416   1.508  23.680  0.00  0.00    +0.254 C 
ATOM      3  N   UNL     1       9.621   1.248  22.341  0.00  0.00    -0.196 N 
ATOM      4  H   UNL     1       9.678   0.312  21.952  0.00  0.00    +0.182 HD
ATOM      5  O   UNL     1       9.770   2.565  24.201  0.00  0.00    -0.272 OA
BRANCH   3   6
ATOM      6  O   UNL     1      10.294   2.260  21.619  0.00  0.00    -0.295 OA
ATOM      7  H   UNL     1      11.239   2.024  21.754  0.00  0.00    +0.241 HD
ENDBRANCH   3   6
ENDBRANCH   1   2
BRANCH   1   8
ATOM      8  N   UNL     1       8.665   0.642  25.903  0.00  0.00    -0.178 NA
ATOM      9  H   UNL     1       9.208   1.439  26.245  0.00  0.00    +0.149 HD
BRANCH   8  10
ATOM     10  S   UNL     1       7.129   0.659  26.597  0.00  0.00    +0.059 S 
ATOM     11  O   UNL     1       6.332   1.657  25.919  0.00  0.00    -0.153 OA
ATOM     12  O   UNL     1       7.328   0.663  28.028  0.00  0.00    -0.153 OA
BRANCH  10  13
ATOM     13  C   UNL     1       6.468  -0.932  26.171  0.00  0.00    +0.106 A 
ATOM     14  C   UNL     1       5.471  -1.027  25.196  0.00  0.00    +0.029 A 
ATOM     15  C   UNL     1       4.912  -2.271  24.899  0.00  0.00    +0.010 A 
ATOM     16  C   UNL     1       5.345  -3.427  25.568  0.00  0.00    -0.018 A 
ATOM     17  C   UNL     1       4.792  -4.685  25.282  0.00  0.00    +0.008 A 
ATOM     18  C   UNL     1       5.233  -5.827  25.953  0.00  0.00    +0.001 A 
ATOM     19  C   UNL     1       6.225  -5.724  26.924  0.00  0.00    +0.001 A 
ATOM     20  C   UNL     1       6.780  -4.480  27.226  0.00  0.00    +0.008 A 
ATOM     21  C   UNL     1       6.356  -3.322  26.556  0.00  0.00    -0.016 A 
ATOM     22  C   UNL     1       6.909  -2.067  26.852  0.00  0.00    +0.037 A 
ENDBRANCH  10  13
ENDBRANCH   8  10
ENDBRANCH   1   8
BRANCH   1  23
ATOM     23  C   UNL     1       9.703  -0.871  24.232  0.00  0.00    +0.065 C 
BRANCH  23  24
ATOM     24  C   UNL     1       9.048  -2.201  23.933  0.00  0.00    -0.045 A 
ATOM     25  C   UNL     1       9.511  -3.351  24.590  0.00  0.00    +0.004 A 
ATOM     26  C   UNL     1       8.966  -4.607  24.304  0.00  0.00    +0.009 A 
ATOM     27  C   UNL     1       7.958  -4.746  23.338  0.00  0.00    -0.018 A 
ATOM     28  C   UNL     1       7.391  -5.993  23.033  0.00  0.00    +0.008 A 
ATOM     29  C   UNL     1       6.403  -6.106  22.053  0.00  0.00    +0.001 A 
ATOM     30  C   UNL     1       5.971  -4.975  21.365  0.00  0.00    +0.001 A 
ATOM     31  C   UNL     1       6.516  -3.728  21.665  0.00  0.00    +0.008 A 
ATOM     32  C   UNL     1       7.505  -3.599  22.652  0.00  0.00    -0.018 A 
ATOM     33  C   UNL     1       8.053  -2.344  22.959  0.00  0.00    +0.012 A 
ENDBRANCH  23  24
ENDBRANCH   1  23
TORSDOF 7
ENDMDL
MODEL 9
REMARK VINA RESULT:      -6.8      4.063      6.519
REMARK  Name = 
REMARK  7 active torsions:
REMARK  status: ('A' for Active; 'I' for Inactive)
REMARK    1  A    between atoms: C_2  and  C_3
REMARK    2  A    between atoms: C_2  and  N_14
REMARK    3  A    between atoms: C_2  and  C_28
REMARK    4  A    between atoms: C_3  and  C_4
REMARK    5  A    between atoms: N_14  and  S_15
REMARK    6  A    between atoms: S_15  and  C_18
REMARK    7  A    between atoms: N_30  and  O_31
REMARK                            x       y       z     vdW  Elec       q    Type
REMARK                         _______ _______ _______ _____ _____    ______ ____
ROOT
ATOM      1  C   UNL     1       7.926   2.438  24.069  0.00  0.00    +0.168 C 
ENDROOT
BRANCH   1   2
ATOM      2  C   UNL     1       7.628   3.842  23.539  0.00  0.00    +0.254 C 
ATOM      3  N   UNL     1       7.591   3.931  22.163  0.00  0.00    -0.196 N 
ATOM      4  H   UNL     1       8.035   3.261  21.544  0.00  0.00    +0.182 HD
ATOM      5  O   UNL     1       7.486   4.827  24.262  0.00  0.00    -0.272 OA
BRANCH   3   6
ATOM      6  O   UNL     1       7.416   5.234  21.642  0.00  0.00    -0.295 OA
ATOM      7  H   UNL     1       8.045   5.764  22.181  0.00  0.00    +0.241 HD
ENDBRANCH   3   6
ENDBRANCH   1   2
BRANCH   1   8
ATOM      8  N   UNL     1       8.133   1.457  22.978  0.00  0.00    -0.178 NA
ATOM      9  H   UNL     1       7.902   1.781  22.036  0.00  0.00    +0.149 HD
BRANCH   8  10
ATOM     10  S   UNL     1       9.574   0.582  22.945  0.00  0.00    +0.059 S 
ATOM     11  O   UNL     1      10.363   0.958  24.097  0.00  0.00    -0.153 OA
ATOM     12  O   UNL     1      10.076   0.676  21.594  0.00  0.00    -0.153 OA
BRANCH  10  13
ATOM     13  C   UNL     1       9.043  -1.094  23.185  0.00  0.00    +0.106 A 
ATOM     14  C   UNL     1       9.766  -1.932  24.037  0.00  0.00    +0.029 A 
ATOM     15  C   UNL     1       9.382  -3.266  24.185  0.00  0.00    +0.010 A 
ATOM     16  C   UNL     1       8.272  -3.771  23.488  0.00  0.00    -0.018 A 
ATOM     17  C   UNL     1       7.874  -5.110  23.624  0.00  0.00    +0.008 A 
ATOM     18  C   UNL     1       6.768  -5.599  22.926  0.00  0.00    +0.001 A 
ATOM     19  C   UNL     1       6.053  -4.758  22.078  0.00  0.00    +0.001 A 
ATOM     20  C   UNL     1       6.441  -3.426  21.926  0.00  0.00    +0.008 A 
ATOM     21  C   UNL     1       7.544  -2.915  22.624  0.00  0.00    -0.016 A 
ATOM     22  C   UNL     1       7.941  -1.577  22.478  0.00  0.00    +0.037 A 
ENDBRANCH  10  13
ENDBRANCH   8  10
ENDBRANCH   1   8
BRANCH   1  23
ATOM     23  C   UNL     1       6.707   2.032  24.927  0.00  0.00    +0.065 C 
BRANCH  23  24
ATOM     24  C   UNL     1       6.659   0.617  25.459  0.00  0.00    -0.045 A 
ATOM     25  C   UNL     1       7.661   0.186  26.340  0.00  0.00    +0.004 A 
ATOM     26  C   UNL     1       7.679  -1.130  26.814  0.00  0.00    +0.009 A 
ATOM     27  C   UNL     1       6.707  -2.052  26.402  0.00  0.00    -0.018 A 
ATOM     28  C   UNL     1       6.700  -3.378  26.864  0.00  0.00    +0.008 A 
ATOM     29  C   UNL     1       5.730  -4.281  26.422  0.00  0.00    +0.001 A 
ATOM     30  C   UNL     1       4.760  -3.872  25.512  0.00  0.00    +0.001 A 
ATOM     31  C   UNL     1       4.747  -2.555  25.053  0.00  0.00    +0.008 A 
ATOM     32  C   UNL     1       5.710  -1.636  25.494  0.00  0.00    -0.018 A 
ATOM     33  C   UNL     1       5.697  -0.309  25.036  0.00  0.00    +0.012 A 
ENDBRANCH  23  24
ENDBRANCH   1  23
TORSDOF 7
ENDMDL
