MODEL 1
REMARK VINA RESULT:      -3.8      0.000      0.000
REMARK  Name = 
REMARK  5 active torsions:
REMARK  status: ('A' for Active; 'I' for Inactive)
REMARK    1  A    between atoms: N_1  and  CA_2
REMARK    2  A    between atoms: CA_2  and  CB_4
REMARK    3  A    between atoms: CA_2  and  C_8
REMARK    4  A    between atoms: CB_4  and  CG_5
REMARK    5  A    between atoms: C_8  and  O_9
REMARK                            x       y       z     vdW  Elec       q    Type
REMARK                         _______ _______ _______ _____ _____    ______ ____
ROOT
ATOM      1  CA  ASN A   1       9.573  -0.506  23.799  0.00  0.00    +0.169 C 
ENDROOT
BRANCH   1   2
ATOM      2  N   ASN A   1       8.216  -0.195  23.262  0.00  0.00    -0.318 NA
ATOM      3  H1  ASN A   1       7.807   0.545  23.844  0.00  0.00    +0.119 HD
ATOM      4  H2  ASN A   1       8.326   0.260  22.349  0.00  0.00    +0.119 HD
ENDBRANCH   1   2
BRANCH   1   5
ATOM      5  C   ASN A   1      10.094  -1.752  23.061  0.00  0.00    +0.322 C 
ATOM      6  OXT ASN A   1      10.292  -2.846  23.564  0.00  0.00    -0.249 OA
BRANCH   5   7
ATOM      7  O   ASN A   1      10.279  -1.491  21.740  0.00  0.00    -0.480 OA
ATOM      8  H   ASN A   1       9.445  -1.061  21.424  0.00  0.00    +0.295 HD
ENDBRANCH   5   7
ENDBRANCH   1   5
BRANCH   1   9
ATOM      9  CB  ASN A   1      10.574   0.637  23.660  0.00  0.00    +0.125 C 
BRANCH   9  10
ATOM     10  CG  ASN A   1       9.987   1.843  22.974  0.00  0.00    +0.213 C 
ATOM     11  OD1 ASN A   1       9.518   2.793  23.588  0.00  0.00    -0.276 OA
ATOM     12  ND2 ASN A   1      10.031   1.847  21.613  0.00  0.00    -0.329 N 
ATOM     13 HD21 ASN A   1       9.566   2.617  21.152  0.00  0.00    +0.145 HD
ATOM     14 HD22 ASN A   1      10.193   1.012  21.069  0.00  0.00    +0.145 HD
ENDBRANCH   9  10
ENDBRANCH   1   9
TORSDOF 5
ENDMDL
MODEL 2
REMARK VINA RESULT:      -3.7      1.832      3.779
REMARK  Name = 
REMARK  5 active torsions:
REMARK  status: ('A' for Active; 'I' for Inactive)
REMARK    1  A    between atoms: N_1  and  CA_2
REMARK    2  A    between atoms: CA_2  and  CB_4
REMARK    3  A    between atoms: CA_2  and  C_8
REMARK    4  A    between atoms: CB_4  and  CG_5
REMARK    5  A    between atoms: C_8  and  O_9
REMARK                            x       y       z     vdW  Elec       q    Type
REMARK                         _______ _______ _______ _____ _____    ______ ____
ROOT
ATOM      1  CA  ASN A   1      10.112  -0.102  22.104  0.00  0.00    +0.169 C 
ENDROOT
BRANCH   1   2
ATOM      2  N   ASN A   1       9.693  -1.180  21.159  0.00  0.00    -0.318 NA
ATOM      3  H1  ASN A   1      10.379  -1.941  21.223  0.00  0.00    +0.119 HD
ATOM      4  H2  ASN A   1       8.833  -1.610  21.521  0.00  0.00    +0.119 HD
ENDBRANCH   1   2
BRANCH   1   5
ATOM      5  C   ASN A   1       9.077   1.033  22.005  0.00  0.00    +0.322 C 
ATOM      6  OXT ASN A   1       7.921   0.976  22.392  0.00  0.00    -0.249 OA
BRANCH   5   7
ATOM      7  O   ASN A   1       9.629   2.145  21.454  0.00  0.00    -0.480 OA
ATOM      8  H   ASN A   1       9.167   2.283  20.589  0.00  0.00    +0.295 HD
ENDBRANCH   5   7
ENDBRANCH   1   5
BRANCH   1   9
ATOM      9  CB  ASN A   1      10.244  -0.562  23.553  0.00  0.00    +0.125 C 
BRANCH   9  10
ATOM     10  CG  ASN A   1       9.568  -1.885  23.807  0.00  0.00    +0.213 C 
ATOM     11  OD1 ASN A   1      10.181  -2.944  23.858  0.00  0.00    -0.276 OA
ATOM     12  ND2 ASN A   1       8.223  -1.847  24.015  0.00  0.00    -0.329 N 
ATOM     13 HD21 ASN A   1       7.758  -2.740  24.105  0.00  0.00    +0.145 HD
ATOM     14 HD22 ASN A   1       7.653  -1.052  23.762  0.00  0.00    +0.145 HD
ENDBRANCH   9  10
ENDBRANCH   1   9
TORSDOF 5
ENDMDL
MODEL 3
REMARK VINA RESULT:      -3.7      3.531      5.693
REMARK  Name = 
REMARK  5 active torsions:
REMARK  status: ('A' for Active; 'I' for Inactive)
REMARK    1  A    between atoms: N_1  and  CA_2
REMARK    2  A    between atoms: CA_2  and  CB_4
REMARK    3  A    between atoms: CA_2  and  C_8
REMARK    4  A    between atoms: CB_4  and  CG_5
REMARK    5  A    between atoms: C_8  and  O_9
REMARK                            x       y       z     vdW  Elec       q    Type
REMARK                         _______ _______ _______ _____ _____    ______ ____
ROOT
ATOM      1  CA  ASN A   1      11.611   4.848  22.954  0.00  0.00    +0.169 C 
ENDROOT
BRANCH   1   2
ATOM      2  N   ASN A   1      10.433   5.749  23.124  0.00  0.00    -0.318 NA
ATOM      3  H1  ASN A   1      10.727   6.550  23.695  0.00  0.00    +0.119 HD
ATOM      4  H2  ASN A   1      10.220   6.178  22.215  0.00  0.00    +0.119 HD
ENDBRANCH   1   2
BRANCH   1   5
ATOM      5  C   ASN A   1      12.793   5.476  23.713  0.00  0.00    +0.322 C 
ATOM      6  OXT ASN A   1      12.705   6.224  24.673  0.00  0.00    -0.249 OA
BRANCH   5   7
ATOM      7  O   ASN A   1      13.978   5.061  23.193  0.00  0.00    -0.480 OA
ATOM      8  H   ASN A   1      14.525   5.876  23.066  0.00  0.00    +0.295 HD
ENDBRANCH   5   7
ENDBRANCH   1   5
BRANCH   1   9
ATOM      9  CB  ASN A   1      11.377   3.421  23.443  0.00  0.00    +0.125 C 
BRANCH   9  10
ATOM     10  CG  ASN A   1      10.073   2.846  22.956  0.00  0.00    +0.213 C 
ATOM     11  OD1 ASN A   1       9.022   2.969  23.572  0.00  0.00    -0.276 OA
ATOM     12  ND2 ASN A   1      10.108   2.196  21.759  0.00  0.00    -0.329 N 
ATOM     13 HD21 ASN A   1       9.252   1.741  21.471  0.00  0.00    +0.145 HD
ATOM     14 HD22 ASN A   1      10.967   1.877  21.335  0.00  0.00    +0.145 HD
ENDBRANCH   9  10
ENDBRANCH   1   9
TORSDOF 5
ENDMDL
MODEL 4
REMARK VINA RESULT:      -3.7      5.216      6.336
REMARK  Name = 
REMARK  5 active torsions:
REMARK  status: ('A' for Active; 'I' for Inactive)
REMARK    1  A    between atoms: N_1  and  CA_2
REMARK    2  A    between atoms: CA_2  and  CB_4
REMARK    3  A    between atoms: CA_2  and  C_8
REMARK    4  A    between atoms: CB_4  and  CG_5
REMARK    5  A    between atoms: C_8  and  O_9
REMARK                            x       y       z     vdW  Elec       q    Type
REMARK                         _______ _______ _______ _____ _____    ______ ____
ROOT
ATOM      1  CA  ASN A   1      12.213   5.682  23.351  0.00  0.00    +0.169 C 
ENDROOT
BRANCH   1   2
ATOM      2  N   ASN A   1      12.639   6.305  24.639  0.00  0.00    -0.318 NA
ATOM      3  H1  ASN A   1      13.629   6.079  24.788  0.00  0.00    +0.119 HD
ATOM      4  H2  ASN A   1      12.647   7.324  24.519  0.00  0.00    +0.119 HD
ENDBRANCH   1   2
BRANCH   1   5
ATOM      5  C   ASN A   1      13.478   5.455  22.503  0.00  0.00    +0.322 C 
ATOM      6  OXT ASN A   1      13.582   5.680  21.309  0.00  0.00    -0.249 OA
BRANCH   5   7
ATOM      7  O   ASN A   1      14.500   4.994  23.271  0.00  0.00    -0.480 OA
ATOM      8  H   ASN A   1      14.689   4.075  22.957  0.00  0.00    +0.295 HD
ENDBRANCH   5   7
ENDBRANCH   1   5
BRANCH   1   9
ATOM      9  CB  ASN A   1      11.454   4.369  23.516  0.00  0.00    +0.125 C 
BRANCH   9  10
ATOM     10  CG  ASN A   1       9.992   4.576  23.813  0.00  0.00    +0.213 C 
ATOM     11  OD1 ASN A   1       9.594   5.316  24.703  0.00  0.00    -0.276 OA
ATOM     12  ND2 ASN A   1       9.112   3.915  23.010  0.00  0.00    -0.329 N 
ATOM     13 HD21 ASN A   1       8.135   3.990  23.259  0.00  0.00    +0.145 HD
ATOM     14 HD22 ASN A   1       9.382   3.137  22.427  0.00  0.00    +0.145 HD
ENDBRANCH   9  10
ENDBRANCH   1   9
TORSDOF 5
ENDMDL
MODEL 5
REMARK VINA RESULT:      -3.7      1.589      3.675
REMARK  Name = 
REMARK  5 active torsions:
REMARK  status: ('A' for Active; 'I' for Inactive)
REMARK    1  A    between atoms: N_1  and  CA_2
REMARK    2  A    between atoms: CA_2  and  CB_4
REMARK    3  A    between atoms: CA_2  and  C_8
REMARK    4  A    between atoms: CB_4  and  CG_5
REMARK    5  A    between atoms: C_8  and  O_9
REMARK                            x       y       z     vdW  Elec       q    Type
REMARK                         _______ _______ _______ _____ _____    ______ ____
ROOT
ATOM      1  CA  ASN A   1       9.686   1.012  23.626  0.00  0.00    +0.169 C 
ENDROOT
BRANCH   1   2
ATOM      2  N   ASN A   1       9.299   1.479  24.990  0.00  0.00    -0.318 NA
ATOM      3  H1  ASN A   1      10.102   1.974  25.396  0.00  0.00    +0.119 HD
ATOM      4  H2  ASN A   1       8.595   2.219  24.890  0.00  0.00    +0.119 HD
ENDBRANCH   1   2
BRANCH   1   5
ATOM      5  C   ASN A   1      10.247   2.223  22.860  0.00  0.00    +0.322 C 
ATOM      6  OXT ASN A   1      10.874   3.147  23.351  0.00  0.00    -0.249 OA
BRANCH   5   7
ATOM      7  O   ASN A   1       9.983   2.121  21.531  0.00  0.00    -0.480 OA
ATOM      8  H   ASN A   1       9.146   1.597  21.455  0.00  0.00    +0.295 HD
ENDBRANCH   5   7
ENDBRANCH   1   5
BRANCH   1   9
ATOM      9  CB  ASN A   1      10.707  -0.123  23.624  0.00  0.00    +0.125 C 
BRANCH   9  10
ATOM     10  CG  ASN A   1      10.270  -1.297  22.787  0.00  0.00    +0.213 C 
ATOM     11  OD1 ASN A   1      10.235  -2.442  23.218  0.00  0.00    -0.276 OA
ATOM     12  ND2 ASN A   1       9.875  -1.018  21.514  0.00  0.00    -0.329 N 
ATOM     13 HD21 ASN A   1       9.659  -1.813  20.928  0.00  0.00    +0.145 HD
ATOM     14 HD22 ASN A   1      10.097  -0.149  21.051  0.00  0.00    +0.145 HD
ENDBRANCH   9  10
ENDBRANCH   1   9
TORSDOF 5
ENDMDL
MODEL 6
REMARK VINA RESULT:      -3.6      4.081      5.314
REMARK  Name = 
REMARK  5 active torsions:
REMARK  status: ('A' for Active; 'I' for Inactive)
REMARK    1  A    between atoms: N_1  and  CA_2
REMARK    2  A    between atoms: CA_2  and  CB_4
REMARK    3  A    between atoms: CA_2  and  C_8
REMARK    4  A    between atoms: CB_4  and  CG_5
REMARK    5  A    between atoms: C_8  and  O_9
REMARK                            x       y       z     vdW  Elec       q    Type
REMARK                         _______ _______ _______ _____ _____    ______ ____
ROOT
ATOM      1  CA  ASN A   1       8.845  -5.236  24.824  0.00  0.00    +0.169 C 
ENDROOT
BRANCH   1   2
ATOM      2  N   ASN A   1      10.323  -5.231  25.035  0.00  0.00    -0.318 NA
ATOM      3  H1  ASN A   1      10.523  -4.643  25.853  0.00  0.00    +0.119 HD
ATOM      4  H2  ASN A   1      10.608  -6.167  25.345  0.00  0.00    +0.119 HD
ENDBRANCH   1   2
BRANCH   1   5
ATOM      5  C   ASN A   1       8.177  -5.372  26.204  0.00  0.00    +0.322 C 
ATOM      6  OXT ASN A   1       7.093  -5.887  26.421  0.00  0.00    -0.249 OA
BRANCH   5   7
ATOM      7  O   ASN A   1       8.975  -4.867  27.181  0.00  0.00    -0.480 OA
ATOM      8  H   ASN A   1       9.653  -4.310  26.724  0.00  0.00    +0.295 HD
ENDBRANCH   5   7
ENDBRANCH   1   5
BRANCH   1   9
ATOM      9  CB  ASN A   1       8.314  -3.997  24.109  0.00  0.00    +0.125 C 
BRANCH   9  10
ATOM     10  CG  ASN A   1       9.108  -2.757  24.428  0.00  0.00    +0.213 C 
ATOM     11  OD1 ASN A   1       8.994  -2.149  25.484  0.00  0.00    -0.276 OA
ATOM     12  ND2 ASN A   1      10.003  -2.352  23.483  0.00  0.00    -0.329 N 
ATOM     13 HD21 ASN A   1      10.477  -1.477  23.661  0.00  0.00    +0.145 HD
ATOM     14 HD22 ASN A   1       9.972  -2.676  22.527  0.00  0.00    +0.145 HD
ENDBRANCH   9  10
ENDBRANCH   1   9
TORSDOF 5
ENDMDL
MODEL 7
REMARK VINA RESULT:      -3.6      1.696      1.997
REMARK  Name = 
REMARK  5 active torsions:
REMARK  status: ('A' for Active; 'I' for Inactive)
REMARK    1  A    between atoms: N_1  and  CA_2
REMARK    2  A    between atoms: CA_2  and  CB_4
REMARK    3  A    between atoms: CA_2  and  C_8
REMARK    4  A    between atoms: CB_4  and  CG_5
REMARK    5  A    between atoms: C_8  and  O_9
REMARK                            x       y       z     vdW  Elec       q    Type
REMARK                         _______ _______ _______ _____ _____    ______ ____
ROOT
ATOM      1  CA  ASN A   1       8.962  -1.360  22.334  0.00  0.00    +0.169 C 
ENDROOT
BRANCH   1   2
ATOM      2  N   ASN A   1      10.197  -1.439  21.500  0.00  0.00    -0.318 NA
ATOM      3  H1  ASN A   1      10.088  -2.223  20.846  0.00  0.00    +0.119 HD
ATOM      4  H2  ASN A   1      10.223  -0.620  20.881  0.00  0.00    +0.119 HD
ENDBRANCH   1   2
BRANCH   1   5
ATOM      5  C   ASN A   1       9.183  -2.236  23.580  0.00  0.00    +0.322 C 
ATOM      6  OXT ASN A   1      10.170  -2.916  23.805  0.00  0.00    -0.249 OA
BRANCH   5   7
ATOM      7  O   ASN A   1       8.133  -2.132  24.438  0.00  0.00    -0.480 OA
ATOM      8  H   ASN A   1       8.356  -2.700  25.217  0.00  0.00    +0.295 HD
ENDBRANCH   5   7
ENDBRANCH   1   5
BRANCH   1   9
ATOM      9  CB  ASN A   1       8.586   0.058  22.755  0.00  0.00    +0.125 C 
BRANCH   9  10
ATOM     10  CG  ASN A   1       9.732   1.027  22.623  0.00  0.00    +0.213 C 
ATOM     11  OD1 ASN A   1      10.660   1.070  23.421  0.00  0.00    -0.276 OA
ATOM     12  ND2 ASN A   1       9.708   1.849  21.537  0.00  0.00    -0.329 N 
ATOM     13 HD21 ASN A   1      10.433   2.552  21.492  0.00  0.00    +0.145 HD
ATOM     14 HD22 ASN A   1       8.874   2.007  20.990  0.00  0.00    +0.145 HD
ENDBRANCH   9  10
ENDBRANCH   1   9
TORSDOF 5
ENDMDL
MODEL 8
REMARK VINA RESULT:      -3.6      3.723      5.668
REMARK  Name = 
REMARK  5 active torsions:
REMARK  status: ('A' for Active; 'I' for Inactive)
REMARK    1  A    between atoms: N_1  and  CA_2
REMARK    2  A    between atoms: CA_2  and  CB_4
REMARK    3  A    between atoms: CA_2  and  C_8
REMARK    4  A    between atoms: CB_4  and  CG_5
REMARK    5  A    between atoms: C_8  and  O_9
REMARK                            x       y       z     vdW  Elec       q    Type
REMARK                         _______ _______ _______ _____ _____    ______ ____
ROOT
ATOM      1  CA  ASN A   1       7.988  -3.270  24.422  0.00  0.00    +0.169 C 
ENDROOT
BRANCH   1   2
ATOM      2  N   ASN A   1       8.303  -2.686  25.759  0.00  0.00    -0.318 NA
ATOM      3  H1  ASN A   1       9.019  -1.961  25.628  0.00  0.00    +0.119 HD
ATOM      4  H2  ASN A   1       7.487  -2.152  26.080  0.00  0.00    +0.119 HD
ENDBRANCH   1   2
BRANCH   1   5
ATOM      5  C   ASN A   1       8.989  -2.686  23.410  0.00  0.00    +0.322 C 
ATOM      6  OXT ASN A   1       8.699  -2.049  22.410  0.00  0.00    -0.249 OA
BRANCH   5   7
ATOM      7  O   ASN A   1      10.268  -2.941  23.790  0.00  0.00    -0.480 OA
ATOM      8  H   ASN A   1      10.211  -3.378  24.676  0.00  0.00    +0.295 HD
ENDBRANCH   5   7
ENDBRANCH   1   5
BRANCH   1   9
ATOM      9  CB  ASN A   1       8.037  -4.795  24.382  0.00  0.00    +0.125 C 
BRANCH   9  10
ATOM     10  CG  ASN A   1       8.628  -5.390  25.634  0.00  0.00    +0.213 C 
ATOM     11  OD1 ASN A   1       7.942  -5.783  26.570  0.00  0.00    -0.276 OA
ATOM     12  ND2 ASN A   1       9.985  -5.507  25.667  0.00  0.00    -0.329 N 
ATOM     13 HD21 ASN A   1      10.385  -5.831  26.537  0.00  0.00    +0.145 HD
ATOM     14 HD22 ASN A   1      10.592  -5.002  25.037  0.00  0.00    +0.145 HD
ENDBRANCH   9  10
ENDBRANCH   1   9
TORSDOF 5
ENDMDL
MODEL 9
REMARK VINA RESULT:      -3.5      1.871      3.856
REMARK  Name = 
REMARK  5 active torsions:
REMARK  status: ('A' for Active; 'I' for Inactive)
REMARK    1  A    between atoms: N_1  and  CA_2
REMARK    2  A    between atoms: CA_2  and  CB_4
REMARK    3  A    between atoms: CA_2  and  C_8
REMARK    4  A    between atoms: CB_4  and  CG_5
REMARK    5  A    between atoms: C_8  and  O_9
REMARK                            x       y       z     vdW  Elec       q    Type
REMARK                         _______ _______ _______ _____ _____    ______ ____
ROOT
ATOM      1  CA  ASN A   1      10.192   1.867  22.524  0.00  0.00    +0.169 C 
ENDROOT
BRANCH   1   2
ATOM      2  N   ASN A   1       9.277   2.025  21.355  0.00  0.00    -0.318 NA
ATOM      3  H1  ASN A   1       9.798   1.767  20.508  0.00  0.00    +0.119 HD
ATOM      4  H2  ASN A   1       8.552   1.301  21.412  0.00  0.00    +0.119 HD
ENDBRANCH   1   2
BRANCH   1   5
ATOM      5  C   ASN A   1       9.705   2.821  23.630  0.00  0.00    +0.322 C 
ATOM      6  OXT ASN A   1       9.234   2.483  24.704  0.00  0.00    -0.249 OA
BRANCH   5   7
ATOM      7  O   ASN A   1       9.898   4.117  23.271  0.00  0.00    -0.480 OA
ATOM      8  H   ASN A   1      10.617   4.462  23.857  0.00  0.00    +0.295 HD
ENDBRANCH   5   7
ENDBRANCH   1   5
BRANCH   1   9
ATOM      9  CB  ASN A   1      10.270   0.442  23.064  0.00  0.00    +0.125 C 
BRANCH   9  10
ATOM     10  CG  ASN A   1       9.297  -0.490  22.390  0.00  0.00    +0.213 C 
ATOM     11  OD1 ASN A   1       8.126  -0.588  22.733  0.00  0.00    -0.276 OA
ATOM     12  ND2 ASN A   1       9.778  -1.209  21.338  0.00  0.00    -0.329 N 
ATOM     13 HD21 ASN A   1       9.149  -1.892  20.937  0.00  0.00    +0.145 HD
ATOM     14 HD22 ASN A   1      10.765  -1.333  21.166  0.00  0.00    +0.145 HD
ENDBRANCH   9  10
ENDBRANCH   1   9
TORSDOF 5
ENDMDL
