MODEL 1
REMARK VINA RESULT:      -7.9      0.000      0.000
REMARK  Name = 
REMARK  10 active torsions:
REMARK  status: ('A' for Active; 'I' for Inactive)
REMARK    1  A    between atoms: C_2  and  O_3
REMARK    2  A    between atoms: C_2  and  C_4
REMARK    3  A    between atoms: C_2  and  C_17
REMARK    4  A    between atoms: N_6  and  C_7
REMARK    5  A    between atoms: C_10  and  C_14
REMARK    6  A    between atoms: C_14  and  O_15
REMARK    7  A    between atoms: C_23  and  C_24
REMARK    8  A    between atoms: C_23  and  C_25
REMARK    9  A    between atoms: C_28  and  C_29
REMARK   10  A    between atoms: C_28  and  C_30
REMARK                            x       y       z     vdW  Elec       q    Type
REMARK                         _______ _______ _______ _____ _____    ______ ____
ROOT
ATOM      1  C   UNL     1      10.112  -1.328  22.855  0.00  0.00    +0.230 C 
ENDROOT
BRANCH   1   2
ATOM      2  C   UNL     1       9.569   0.072  23.073  0.00  0.00    -0.010 A 
ATOM      3  C   UNL     1      10.013   1.165  22.332  0.00  0.00    +0.007 A 
ATOM      4  C   UNL     1       9.502   2.440  22.581  0.00  0.00    +0.005 A 
ATOM      5  C   UNL     1       8.526   2.677  23.571  0.00  0.00    -0.038 A 
ATOM      6  C   UNL     1       8.007   4.105  23.789  0.00  0.00    -0.010 C 
ATOM      7  C   UNL     1       6.721   4.121  24.647  0.00  0.00    +0.012 C 
ATOM      8  C   UNL     1       6.832   3.213  25.861  0.00  0.00    +0.012 C 
ATOM      9  C   UNL     1       7.034   1.735  25.462  0.00  0.00    -0.010 C 
ATOM     10  C   UNL     1       5.705   1.144  24.940  0.00  0.00    +0.016 C 
ATOM     11  C   UNL     1       7.422   0.979  26.755  0.00  0.00    +0.016 C 
ATOM     12  C   UNL     1       9.110   4.930  24.486  0.00  0.00    +0.016 C 
ATOM     13  C   UNL     1       7.651   4.798  22.453  0.00  0.00    +0.016 C 
ATOM     14  C   UNL     1       8.095   1.588  24.361  0.00  0.00    -0.038 A 
ATOM     15  C   UNL     1       8.628   0.308  24.089  0.00  0.00    +0.011 A 
ENDBRANCH   1   2
BRANCH   1  16
ATOM     16  C   UNL     1       9.114  -2.424  23.293  0.00  0.00    +0.250 C 
ATOM     17  N   UNL     1       8.047  -2.589  22.425  0.00  0.00    -0.281 N 
ATOM     18  H   UNL     1       7.965  -1.902  21.676  0.00  0.00    +0.155 HD
ATOM     19  O   UNL     1       9.290  -3.046  24.339  0.00  0.00    -0.272 OA
BRANCH  17  20
ATOM     20  C   UNL     1       7.001  -3.531  22.550  0.00  0.00    +0.069 A 
ATOM     21  C   UNL     1       5.799  -3.126  23.146  0.00  0.00    +0.145 A 
ATOM     22  F   UNL     1       5.663  -1.860  23.573  0.00  0.00    -0.204 F 
ATOM     23  C   UNL     1       4.738  -4.012  23.324  0.00  0.00    +0.055 A 
ATOM     24  C   UNL     1       4.861  -5.335  22.883  0.00  0.00    +0.062 A 
ATOM     25  C   UNL     1       6.050  -5.755  22.280  0.00  0.00    +0.017 A 
ATOM     26  C   UNL     1       7.104  -4.851  22.107  0.00  0.00    +0.027 A 
BRANCH  24  27
ATOM     27  C   UNL     1       3.734  -6.271  23.115  0.00  0.00    +0.337 C 
ATOM     28  O   UNL     1       2.602  -6.038  22.729  0.00  0.00    -0.245 OA
BRANCH  27  29
ATOM     29  O   UNL     1       4.079  -7.408  23.752  0.00  0.00    -0.477 OA
ATOM     30  H   UNL     1       3.356  -8.042  23.909  0.00  0.00    +0.295 HD
ENDBRANCH  27  29
ENDBRANCH  24  27
ENDBRANCH  17  20
ENDBRANCH   1  16
BRANCH   1  31
ATOM     31  O   UNL     1      10.510  -1.538  21.497  0.00  0.00    -0.378 OA
ATOM     32  H   UNL     1      10.760  -2.477  21.435  0.00  0.00    +0.211 HD
ENDBRANCH   1  31
TORSDOF 6
ENDMDL
MODEL 2
REMARK VINA RESULT:      -7.8      2.943      8.154
REMARK  Name = 
REMARK  10 active torsions:
REMARK  status: ('A' for Active; 'I' for Inactive)
REMARK    1  A    between atoms: C_2  and  O_3
REMARK    2  A    between atoms: C_2  and  C_4
REMARK    3  A    between atoms: C_2  and  C_17
REMARK    4  A    between atoms: N_6  and  C_7
REMARK    5  A    between atoms: C_10  and  C_14
REMARK    6  A    between atoms: C_14  and  O_15
REMARK    7  A    between atoms: C_23  and  C_24
REMARK    8  A    between atoms: C_23  and  C_25
REMARK    9  A    between atoms: C_28  and  C_29
REMARK   10  A    between atoms: C_28  and  C_30
REMARK                            x       y       z     vdW  Elec       q    Type
REMARK                         _______ _______ _______ _____ _____    ______ ____
ROOT
ATOM      1  C   UNL     1       9.032  -4.934  25.862  0.00  0.00    +0.230 C 
ENDROOT
BRANCH   1   2
ATOM      2  C   UNL     1       7.539  -5.190  25.800  0.00  0.00    -0.010 A 
ATOM      3  C   UNL     1       6.798  -5.541  26.927  0.00  0.00    +0.007 A 
ATOM      4  C   UNL     1       5.428  -5.789  26.822  0.00  0.00    +0.005 A 
ATOM      5  C   UNL     1       4.740  -5.692  25.593  0.00  0.00    -0.038 A 
ATOM      6  C   UNL     1       3.233  -5.976  25.551  0.00  0.00    -0.010 C 
ATOM      7  C   UNL     1       2.597  -5.491  24.229  0.00  0.00    +0.012 C 
ATOM      8  C   UNL     1       3.427  -5.882  23.017  0.00  0.00    +0.012 C 
ATOM      9  C   UNL     1       4.833  -5.244  23.048  0.00  0.00    -0.010 C 
ATOM     10  C   UNL     1       4.737  -3.741  22.698  0.00  0.00    +0.016 C 
ATOM     11  C   UNL     1       5.658  -5.944  21.942  0.00  0.00    +0.016 C 
ATOM     12  C   UNL     1       3.012  -7.496  25.711  0.00  0.00    +0.016 C 
ATOM     13  C   UNL     1       2.479  -5.253  26.692  0.00  0.00    +0.016 C 
ATOM     14  C   UNL     1       5.483  -5.379  24.433  0.00  0.00    -0.038 A 
ATOM     15  C   UNL     1       6.868  -5.132  24.567  0.00  0.00    +0.011 A 
ENDBRANCH   1   2
BRANCH   1  16
ATOM     16  C   UNL     1       9.457  -3.705  25.027  0.00  0.00    +0.250 C 
ATOM     17  N   UNL     1       8.746  -2.553  25.324  0.00  0.00    -0.281 N 
ATOM     18  H   UNL     1       7.952  -2.664  25.953  0.00  0.00    +0.155 HD
ATOM     19  O   UNL     1      10.336  -3.804  24.173  0.00  0.00    -0.272 OA
BRANCH  17  20
ATOM     20  C   UNL     1       8.934  -1.277  24.746  0.00  0.00    +0.069 A 
ATOM     21  C   UNL     1       8.290  -0.985  23.536  0.00  0.00    +0.145 A 
ATOM     22  F   UNL     1       7.505  -1.911  22.960  0.00  0.00    -0.204 F 
ATOM     23  C   UNL     1       8.455   0.244  22.899  0.00  0.00    +0.055 A 
ATOM     24  C   UNL     1       9.267   1.222  23.486  0.00  0.00    +0.062 A 
ATOM     25  C   UNL     1       9.912   0.950  24.695  0.00  0.00    +0.017 A 
ATOM     26  C   UNL     1       9.733  -0.288  25.321  0.00  0.00    +0.027 A 
BRANCH  24  27
ATOM     27  C   UNL     1       9.458   2.509  22.774  0.00  0.00    +0.337 C 
ATOM     28  O   UNL     1       9.044   3.567  23.215  0.00  0.00    -0.245 OA
BRANCH  27  29
ATOM     29  O   UNL     1      10.156   2.410  21.625  0.00  0.00    -0.477 OA
ATOM     30  H   UNL     1      11.004   1.932  21.683  0.00  0.00    +0.295 HD
ENDBRANCH  27  29
ENDBRANCH  24  27
ENDBRANCH  17  20
ENDBRANCH   1  16
BRANCH   1  31
ATOM     31  O   UNL     1       9.493  -4.797  27.209  0.00  0.00    -0.378 OA
ATOM     32  H   UNL     1       9.382  -3.856  27.435  0.00  0.00    +0.211 HD
ENDBRANCH   1  31
TORSDOF 6
ENDMDL
MODEL 3
REMARK VINA RESULT:      -7.8      2.021      2.933
REMARK  Name = 
REMARK  10 active torsions:
REMARK  status: ('A' for Active; 'I' for Inactive)
REMARK    1  A    between atoms: C_2  and  O_3
REMARK    2  A    between atoms: C_2  and  C_4
REMARK    3  A    between atoms: C_2  and  C_17
REMARK    4  A    between atoms: N_6  and  C_7
REMARK    5  A    between atoms: C_10  and  C_14
REMARK    6  A    between atoms: C_14  and  O_15
REMARK    7  A    between atoms: C_23  and  C_24
REMARK    8  A    between atoms: C_23  and  C_25
REMARK    9  A    between atoms: C_28  and  C_29
REMARK   10  A    between atoms: C_28  and  C_30
REMARK                            x       y       z     vdW  Elec       q    Type
REMARK                         _______ _______ _______ _____ _____    ______ ____
ROOT
ATOM      1  C   UNL     1       9.042  -4.267  25.014  0.00  0.00    +0.230 C 
ENDROOT
BRANCH   1   2
ATOM      2  C   UNL     1       9.168  -2.823  24.570  0.00  0.00    -0.010 A 
ATOM      3  C   UNL     1      10.091  -2.417  23.609  0.00  0.00    +0.007 A 
ATOM      4  C   UNL     1      10.188  -1.073  23.245  0.00  0.00    +0.005 A 
ATOM      5  C   UNL     1       9.366  -0.080  23.818  0.00  0.00    -0.038 A 
ATOM      6  C   UNL     1       9.525   1.379  23.369  0.00  0.00    -0.010 C 
ATOM      7  C   UNL     1       8.336   2.251  23.831  0.00  0.00    +0.012 C 
ATOM      8  C   UNL     1       7.964   1.992  25.282  0.00  0.00    +0.012 C 
ATOM      9  C   UNL     1       7.510   0.534  25.511  0.00  0.00    -0.010 C 
ATOM     10  C   UNL     1       6.087   0.330  24.943  0.00  0.00    +0.016 C 
ATOM     11  C   UNL     1       7.450   0.328  27.043  0.00  0.00    +0.016 C 
ATOM     12  C   UNL     1      10.840   1.936  23.956  0.00  0.00    +0.016 C 
ATOM     13  C   UNL     1       9.588   1.503  21.829  0.00  0.00    +0.016 C 
ATOM     14  C   UNL     1       8.453  -0.466  24.826  0.00  0.00    -0.038 A 
ATOM     15  C   UNL     1       8.375  -1.832  25.175  0.00  0.00    +0.011 A 
ENDBRANCH   1   2
BRANCH   1  16
ATOM     16  C   UNL     1       7.901  -5.013  24.288  0.00  0.00    +0.250 C 
ATOM     17  N   UNL     1       6.680  -4.941  24.940  0.00  0.00    -0.281 N 
ATOM     18  H   UNL     1       6.691  -4.524  25.870  0.00  0.00    +0.155 HD
ATOM     19  O   UNL     1       8.118  -5.618  23.240  0.00  0.00    -0.272 OA
BRANCH  17  20
ATOM     20  C   UNL     1       5.458  -5.498  24.499  0.00  0.00    +0.069 A 
ATOM     21  C   UNL     1       4.706  -4.800  23.545  0.00  0.00    +0.145 A 
ATOM     22  F   UNL     1       5.162  -3.632  23.064  0.00  0.00    -0.204 F 
ATOM     23  C   UNL     1       3.479  -5.281  23.089  0.00  0.00    +0.055 A 
ATOM     24  C   UNL     1       2.990  -6.498  23.578  0.00  0.00    +0.062 A 
ATOM     25  C   UNL     1       3.730  -7.210  24.525  0.00  0.00    +0.017 A 
ATOM     26  C   UNL     1       4.960  -6.714  24.970  0.00  0.00    +0.027 A 
BRANCH  24  27
ATOM     27  C   UNL     1       1.666  -6.973  23.106  0.00  0.00    +0.337 C 
ATOM     28  O   UNL     1       0.628  -6.398  23.385  0.00  0.00    -0.245 OA
BRANCH  27  29
ATOM     29  O   UNL     1       1.718  -8.066  22.319  0.00  0.00    -0.477 OA
ATOM     30  H   UNL     1       1.483  -8.910  22.748  0.00  0.00    +0.295 HD
ENDBRANCH  27  29
ENDBRANCH  24  27
ENDBRANCH  17  20
ENDBRANCH   1  16
BRANCH   1  31
ATOM     31  O   UNL     1      10.273  -4.980  24.859  0.00  0.00    -0.378 OA
ATOM     32  H   UNL     1      10.035  -5.843  24.475  0.00  0.00    +0.211 HD
ENDBRANCH   1  31
TORSDOF 6
ENDMDL
MODEL 4
REMARK VINA RESULT:      -7.6      3.567      8.405
REMARK  Name = 
REMARK  10 active torsions:
REMARK  status: ('A' for Active; 'I' for Inactive)
REMARK    1  A    between atoms: C_2  and  O_3
REMARK    2  A    between atoms: C_2  and  C_4
REMARK    3  A    between atoms: C_2  and  C_17
REMARK    4  A    between atoms: N_6  and  C_7
REMARK    5  A    between atoms: C_10  and  C_14
REMARK    6  A    between atoms: C_14  and  O_15
REMARK    7  A    between atoms: C_23  and  C_24
REMARK    8  A    between atoms: C_23  and  C_25
REMARK    9  A    between atoms: C_28  and  C_29
REMARK   10  A    between atoms: C_28  and  C_30
REMARK                            x       y       z     vdW  Elec       q    Type
REMARK                         _______ _______ _______ _____ _____    ______ ____
ROOT
ATOM      1  C   UNL     1       8.421  -5.445  24.791  0.00  0.00    +0.230 C 
ENDROOT
BRANCH   1   2
ATOM      2  C   UNL     1       7.270  -5.476  25.778  0.00  0.00    -0.010 A 
ATOM      3  C   UNL     1       7.458  -5.292  27.146  0.00  0.00    +0.007 A 
ATOM      4  C   UNL     1       6.373  -5.351  28.022  0.00  0.00    +0.005 A 
ATOM      5  C   UNL     1       5.057  -5.588  27.571  0.00  0.00    -0.038 A 
ATOM      6  C   UNL     1       3.911  -5.636  28.590  0.00  0.00    -0.010 C 
ATOM      7  C   UNL     1       2.530  -5.556  27.900  0.00  0.00    +0.012 C 
ATOM      8  C   UNL     1       2.442  -6.468  26.688  0.00  0.00    +0.012 C 
ATOM      9  C   UNL     1       3.463  -6.081  25.596  0.00  0.00    -0.010 C 
ATOM     10  C   UNL     1       2.994  -4.801  24.867  0.00  0.00    +0.016 C 
ATOM     11  C   UNL     1       3.473  -7.241  24.572  0.00  0.00    +0.016 C 
ATOM     12  C   UNL     1       4.018  -6.952  29.392  0.00  0.00    +0.016 C 
ATOM     13  C   UNL     1       3.974  -4.454  29.584  0.00  0.00    +0.016 C 
ATOM     14  C   UNL     1       4.853  -5.819  26.192  0.00  0.00    -0.038 A 
ATOM     15  C   UNL     1       5.969  -5.754  25.327  0.00  0.00    +0.011 A 
ENDBRANCH   1   2
BRANCH   1  16
ATOM     16  C   UNL     1       8.503  -4.109  24.018  0.00  0.00    +0.250 C 
ATOM     17  N   UNL     1       9.345  -3.175  24.601  0.00  0.00    -0.281 N 
ATOM     18  H   UNL     1       9.712  -3.413  25.521  0.00  0.00    +0.155 HD
ATOM     19  O   UNL     1       7.840  -3.938  22.997  0.00  0.00    -0.272 OA
BRANCH  17  20
ATOM     20  C   UNL     1       9.638  -1.884  24.106  0.00  0.00    +0.069 A 
ATOM     21  C   UNL     1       9.513  -0.788  24.970  0.00  0.00    +0.145 A 
ATOM     22  F   UNL     1       9.131  -0.985  26.242  0.00  0.00    -0.204 F 
ATOM     23  C   UNL     1       9.760   0.514  24.537  0.00  0.00    +0.055 A 
ATOM     24  C   UNL     1      10.161   0.738  23.215  0.00  0.00    +0.062 A 
ATOM     25  C   UNL     1      10.298  -0.344  22.341  0.00  0.00    +0.017 A 
ATOM     26  C   UNL     1      10.047  -1.644  22.793  0.00  0.00    +0.027 A 
BRANCH  24  27
ATOM     27  C   UNL     1      10.385   2.133  22.766  0.00  0.00    +0.337 C 
ATOM     28  O   UNL     1      10.925   2.968  23.471  0.00  0.00    -0.245 OA
BRANCH  27  29
ATOM     29  O   UNL     1       9.975   2.383  21.506  0.00  0.00    -0.477 OA
ATOM     30  H   UNL     1       9.435   3.185  21.386  0.00  0.00    +0.295 HD
ENDBRANCH  27  29
ENDBRANCH  24  27
ENDBRANCH  17  20
ENDBRANCH   1  16
BRANCH   1  31
ATOM     31  O   UNL     1       9.673  -5.724  25.425  0.00  0.00    -0.378 OA
ATOM     32  H   UNL     1      10.298  -5.057  25.087  0.00  0.00    +0.211 HD
ENDBRANCH   1  31
TORSDOF 6
ENDMDL
MODEL 5
REMARK VINA RESULT:      -7.6      3.342      7.974
REMARK  Name = 
REMARK  10 active torsions:
REMARK  status: ('A' for Active; 'I' for Inactive)
REMARK    1  A    between atoms: C_2  and  O_3
REMARK    2  A    between atoms: C_2  and  C_4
REMARK    3  A    between atoms: C_2  and  C_17
REMARK    4  A    between atoms: N_6  and  C_7
REMARK    5  A    between atoms: C_10  and  C_14
REMARK    6  A    between atoms: C_14  and  O_15
REMARK    7  A    between atoms: C_23  and  C_24
REMARK    8  A    between atoms: C_23  and  C_25
REMARK    9  A    between atoms: C_28  and  C_29
REMARK   10  A    between atoms: C_28  and  C_30
REMARK                            x       y       z     vdW  Elec       q    Type
REMARK                         _______ _______ _______ _____ _____    ______ ____
ROOT
ATOM      1  C   UNL     1      10.263  -0.459  23.398  0.00  0.00    +0.230 C 
ENDROOT
BRANCH   1   2
ATOM      2  C   UNL     1       9.238  -1.565  23.234  0.00  0.00    -0.010 A 
ATOM      3  C   UNL     1       8.465  -1.698  22.083  0.00  0.00    +0.007 A 
ATOM      4  C   UNL     1       7.517  -2.718  21.983  0.00  0.00    +0.005 A 
ATOM      5  C   UNL     1       7.306  -3.650  23.022  0.00  0.00    -0.038 A 
ATOM      6  C   UNL     1       6.249  -4.747  22.844  0.00  0.00    -0.010 C 
ATOM      7  C   UNL     1       6.395  -5.860  23.906  0.00  0.00    +0.012 C 
ATOM      8  C   UNL     1       6.604  -5.295  25.302  0.00  0.00    +0.012 C 
ATOM      9  C   UNL     1       7.902  -4.465  25.402  0.00  0.00    -0.010 C 
ATOM     10  C   UNL     1       9.128  -5.406  25.426  0.00  0.00    +0.016 C 
ATOM     11  C   UNL     1       7.842  -3.718  26.756  0.00  0.00    +0.016 C 
ATOM     12  C   UNL     1       4.848  -4.106  22.949  0.00  0.00    +0.016 C 
ATOM     13  C   UNL     1       6.364  -5.439  21.465  0.00  0.00    +0.016 C 
ATOM     14  C   UNL     1       8.051  -3.504  24.214  0.00  0.00    -0.038 A 
ATOM     15  C   UNL     1       9.003  -2.463  24.289  0.00  0.00    +0.011 A 
ENDBRANCH   1   2
BRANCH   1  16
ATOM     16  C   UNL     1       9.793   0.879  22.781  0.00  0.00    +0.250 C 
ATOM     17  N   UNL     1       8.875   1.563  23.560  0.00  0.00    -0.281 N 
ATOM     18  H   UNL     1       8.517   1.066  24.375  0.00  0.00    +0.155 HD
ATOM     19  O   UNL     1      10.213   1.241  21.684  0.00  0.00    -0.272 OA
BRANCH  17  20
ATOM     20  C   UNL     1       8.296   2.819  23.269  0.00  0.00    +0.069 A 
ATOM     21  C   UNL     1       7.100   2.855  22.539  0.00  0.00    +0.145 A 
ATOM     22  F   UNL     1       6.527   1.706  22.145  0.00  0.00    -0.204 F 
ATOM     23  C   UNL     1       6.491   4.061  22.195  0.00  0.00    +0.055 A 
ATOM     24  C   UNL     1       7.073   5.268  22.599  0.00  0.00    +0.062 A 
ATOM     25  C   UNL     1       8.262   5.251  23.333  0.00  0.00    +0.017 A 
ATOM     26  C   UNL     1       8.858   4.032  23.672  0.00  0.00    +0.027 A 
BRANCH  24  27
ATOM     27  C   UNL     1       6.429   6.540  22.192  0.00  0.00    +0.337 C 
ATOM     28  O   UNL     1       5.604   7.108  22.887  0.00  0.00    -0.245 OA
BRANCH  27  29
ATOM     29  O   UNL     1       6.861   7.028  21.011  0.00  0.00    -0.477 OA
ATOM     30  H   UNL     1       7.693   7.535  21.040  0.00  0.00    +0.295 HD
ENDBRANCH  27  29
ENDBRANCH  24  27
ENDBRANCH  17  20
ENDBRANCH   1  16
BRANCH   1  31
ATOM     31  O   UNL     1      10.626  -0.268  24.768  0.00  0.00    -0.378 OA
ATOM     32  H   UNL     1      10.893  -1.145  25.098  0.00  0.00    +0.211 HD
ENDBRANCH   1  31
TORSDOF 6
ENDMDL
MODEL 6
REMARK VINA RESULT:      -7.5      2.803      8.463
REMARK  Name = 
REMARK  10 active torsions:
REMARK  status: ('A' for Active; 'I' for Inactive)
REMARK    1  A    between atoms: C_2  and  O_3
REMARK    2  A    between atoms: C_2  and  C_4
REMARK    3  A    between atoms: C_2  and  C_17
REMARK    4  A    between atoms: N_6  and  C_7
REMARK    5  A    between atoms: C_10  and  C_14
REMARK    6  A    between atoms: C_14  and  O_15
REMARK    7  A    between atoms: C_23  and  C_24
REMARK    8  A    between atoms: C_23  and  C_25
REMARK    9  A    between atoms: C_28  and  C_29
REMARK   10  A    between atoms: C_28  and  C_30
REMARK                            x       y       z     vdW  Elec       q    Type
REMARK                         _______ _______ _______ _____ _____    ______ ____
ROOT
ATOM      1  C   UNL     1       7.837  -4.540  23.156  0.00  0.00    +0.230 C 
ENDROOT
BRANCH   1   2
ATOM      2  C   UNL     1       6.456  -5.056  23.513  0.00  0.00    -0.010 A 
ATOM      3  C   UNL     1       5.554  -5.496  22.547  0.00  0.00    +0.007 A 
ATOM      4  C   UNL     1       4.284  -5.943  22.919  0.00  0.00    +0.005 A 
ATOM      5  C   UNL     1       3.865  -5.976  24.266  0.00  0.00    -0.038 A 
ATOM      6  C   UNL     1       2.456  -6.482  24.602  0.00  0.00    -0.010 C 
ATOM      7  C   UNL     1       2.299  -6.773  26.112  0.00  0.00    +0.012 C 
ATOM      8  C   UNL     1       2.879  -5.661  26.972  0.00  0.00    +0.012 C 
ATOM      9  C   UNL     1       4.397  -5.489  26.749  0.00  0.00    -0.010 C 
ATOM     10  C   UNL     1       5.164  -6.640  27.437  0.00  0.00    +0.016 C 
ATOM     11  C   UNL     1       4.795  -4.164  27.442  0.00  0.00    +0.016 C 
ATOM     12  C   UNL     1       1.430  -5.413  24.166  0.00  0.00    +0.016 C 
ATOM     13  C   UNL     1       2.127  -7.801  23.865  0.00  0.00    +0.016 C 
ATOM     14  C   UNL     1       4.751  -5.493  25.255  0.00  0.00    -0.038 A 
ATOM     15  C   UNL     1       6.030  -5.047  24.852  0.00  0.00    +0.011 A 
ENDBRANCH   1   2
BRANCH   1  16
ATOM     16  C   UNL     1       7.882  -2.999  23.046  0.00  0.00    +0.250 C 
ATOM     17  N   UNL     1       9.133  -2.456  23.292  0.00  0.00    -0.281 N 
ATOM     18  H   UNL     1       9.844  -3.101  23.636  0.00  0.00    +0.155 HD
ATOM     19  O   UNL     1       6.864  -2.362  22.784  0.00  0.00    -0.272 OA
BRANCH  17  20
ATOM     20  C   UNL     1       9.481  -1.088  23.235  0.00  0.00    +0.069 A 
ATOM     21  C   UNL     1       9.665  -0.390  24.436  0.00  0.00    +0.145 A 
ATOM     22  F   UNL     1       9.520  -1.032  25.607  0.00  0.00    -0.204 F 
ATOM     23  C   UNL     1       9.983   0.967  24.450  0.00  0.00    +0.055 A 
ATOM     24  C   UNL     1      10.141   1.652  23.239  0.00  0.00    +0.062 A 
ATOM     25  C   UNL     1       9.967   0.971  22.032  0.00  0.00    +0.017 A 
ATOM     26  C   UNL     1       9.651  -0.392  22.036  0.00  0.00    +0.027 A 
BRANCH  24  27
ATOM     27  C   UNL     1      10.443   3.103  23.277  0.00  0.00    +0.337 C 
ATOM     28  O   UNL     1      11.569   3.532  23.461  0.00  0.00    -0.245 OA
BRANCH  27  29
ATOM     29  O   UNL     1       9.377   3.898  23.053  0.00  0.00    -0.477 OA
ATOM     30  H   UNL     1       9.574   4.779  22.686  0.00  0.00    +0.295 HD
ENDBRANCH  27  29
ENDBRANCH  24  27
ENDBRANCH  17  20
ENDBRANCH   1  16
BRANCH   1  31
ATOM     31  O   UNL     1       8.831  -4.997  24.078  0.00  0.00    -0.378 OA
ATOM     32  H   UNL     1       8.369  -5.124  24.926  0.00  0.00    +0.211 HD
ENDBRANCH   1  31
TORSDOF 6
ENDMDL
MODEL 7
REMARK VINA RESULT:      -7.4      3.261      8.340
REMARK  Name = 
REMARK  10 active torsions:
REMARK  status: ('A' for Active; 'I' for Inactive)
REMARK    1  A    between atoms: C_2  and  O_3
REMARK    2  A    between atoms: C_2  and  C_4
REMARK    3  A    between atoms: C_2  and  C_17
REMARK    4  A    between atoms: N_6  and  C_7
REMARK    5  A    between atoms: C_10  and  C_14
REMARK    6  A    between atoms: C_14  and  O_15
REMARK    7  A    between atoms: C_23  and  C_24
REMARK    8  A    between atoms: C_23  and  C_25
REMARK    9  A    between atoms: C_28  and  C_29
REMARK   10  A    between atoms: C_28  and  C_30
REMARK                            x       y       z     vdW  Elec       q    Type
REMARK                         _______ _______ _______ _____ _____    ______ ____
ROOT
ATOM      1  C   UNL     1       9.545  -1.194  21.911  0.00  0.00    +0.230 C 
ENDROOT
BRANCH   1   2
ATOM      2  C   UNL     1       8.809  -1.977  22.980  0.00  0.00    -0.010 A 
ATOM      3  C   UNL     1       9.018  -1.757  24.340  0.00  0.00    +0.007 A 
ATOM      4  C   UNL     1       8.334  -2.517  25.291  0.00  0.00    +0.005 A 
ATOM      5  C   UNL     1       7.411  -3.520  24.928  0.00  0.00    -0.038 A 
ATOM      6  C   UNL     1       6.694  -4.315  26.026  0.00  0.00    -0.010 C 
ATOM      7  C   UNL     1       5.491  -5.108  25.465  0.00  0.00    +0.012 C 
ATOM      8  C   UNL     1       5.835  -5.832  24.174  0.00  0.00    +0.012 C 
ATOM      9  C   UNL     1       6.235  -4.853  23.050  0.00  0.00    -0.010 C 
ATOM     10  C   UNL     1       4.979  -4.139  22.502  0.00  0.00    +0.016 C 
ATOM     11  C   UNL     1       6.835  -5.712  21.911  0.00  0.00    +0.016 C 
ATOM     12  C   UNL     1       7.704  -5.288  26.673  0.00  0.00    +0.016 C 
ATOM     13  C   UNL     1       6.133  -3.391  27.132  0.00  0.00    +0.016 C 
ATOM     14  C   UNL     1       7.219  -3.787  23.553  0.00  0.00    -0.038 A 
ATOM     15  C   UNL     1       7.923  -3.003  22.612  0.00  0.00    +0.011 A 
ENDBRANCH   1   2
BRANCH   1  16
ATOM     16  C   UNL     1       9.342   0.332  22.049  0.00  0.00    +0.250 C 
ATOM     17  N   UNL     1      10.043   0.898  23.102  0.00  0.00    -0.281 N 
ATOM     18  H   UNL     1      10.506   0.247  23.736  0.00  0.00    +0.155 HD
ATOM     19  O   UNL     1       8.595   0.934  21.280  0.00  0.00    -0.272 OA
BRANCH  17  20
ATOM     20  C   UNL     1      10.073   2.267  23.451  0.00  0.00    +0.069 A 
ATOM     21  C   UNL     1       8.982   2.809  24.143  0.00  0.00    +0.145 A 
ATOM     22  F   UNL     1       7.943   2.021  24.466  0.00  0.00    -0.204 F 
ATOM     23  C   UNL     1       8.937   4.157  24.493  0.00  0.00    +0.055 A 
ATOM     24  C   UNL     1      10.012   4.992  24.166  0.00  0.00    +0.062 A 
ATOM     25  C   UNL     1      11.111   4.467  23.482  0.00  0.00    +0.017 A 
ATOM     26  C   UNL     1      11.141   3.111  23.141  0.00  0.00    +0.027 A 
BRANCH  24  27
ATOM     27  C   UNL     1       9.928   6.431  24.517  0.00  0.00    +0.337 C 
ATOM     28  O   UNL     1      10.687   6.955  25.312  0.00  0.00    -0.245 OA
BRANCH  27  29
ATOM     29  O   UNL     1       8.969   7.108  23.854  0.00  0.00    -0.477 OA
ATOM     30  H   UNL     1       8.866   8.046  24.097  0.00  0.00    +0.295 HD
ENDBRANCH  27  29
ENDBRANCH  24  27
ENDBRANCH  17  20
ENDBRANCH   1  16
BRANCH   1  31
ATOM     31  O   UNL     1      10.942  -1.504  21.892  0.00  0.00    -0.378 OA
ATOM     32  H   UNL     1      11.292  -1.215  22.753  0.00  0.00    +0.211 HD
ENDBRANCH   1  31
TORSDOF 6
ENDMDL
MODEL 8
REMARK VINA RESULT:      -7.3      1.938      2.574
REMARK  Name = 
REMARK  10 active torsions:
REMARK  status: ('A' for Active; 'I' for Inactive)
REMARK    1  A    between atoms: C_2  and  O_3
REMARK    2  A    between atoms: C_2  and  C_4
REMARK    3  A    between atoms: C_2  and  C_17
REMARK    4  A    between atoms: N_6  and  C_7
REMARK    5  A    between atoms: C_10  and  C_14
REMARK    6  A    between atoms: C_14  and  O_15
REMARK    7  A    between atoms: C_23  and  C_24
REMARK    8  A    between atoms: C_23  and  C_25
REMARK    9  A    between atoms: C_28  and  C_29
REMARK   10  A    between atoms: C_28  and  C_30
REMARK                            x       y       z     vdW  Elec       q    Type
REMARK                         _______ _______ _______ _____ _____    ______ ____
ROOT
ATOM      1  C   UNL     1      10.066   0.571  24.846  0.00  0.00    +0.230 C 
ENDROOT
BRANCH   1   2
ATOM      2  C   UNL     1       9.402   1.896  24.524  0.00  0.00    -0.010 A 
ATOM      3  C   UNL     1       9.988   2.835  23.676  0.00  0.00    +0.007 A 
ATOM      4  C   UNL     1       9.353   4.052  23.424  0.00  0.00    +0.005 A 
ATOM      5  C   UNL     1       8.107   4.381  24.000  0.00  0.00    -0.038 A 
ATOM      6  C   UNL     1       7.465   5.737  23.677  0.00  0.00    -0.010 C 
ATOM      7  C   UNL     1       5.980   5.781  24.101  0.00  0.00    +0.012 C 
ATOM      8  C   UNL     1       5.765   5.207  25.492  0.00  0.00    +0.012 C 
ATOM      9  C   UNL     1       6.165   3.718  25.572  0.00  0.00    -0.010 C 
ATOM     10  C   UNL     1       5.096   2.847  24.873  0.00  0.00    +0.016 C 
ATOM     11  C   UNL     1       6.180   3.347  27.074  0.00  0.00    +0.016 C 
ATOM     12  C   UNL     1       8.252   6.844  24.412  0.00  0.00    +0.016 C 
ATOM     13  C   UNL     1       7.497   6.042  22.161  0.00  0.00    +0.016 C 
ATOM     14  C   UNL     1       7.519   3.460  24.895  0.00  0.00    -0.038 A 
ATOM     15  C   UNL     1       8.182   2.236  25.133  0.00  0.00    +0.011 A 
ENDBRANCH   1   2
BRANCH   1  16
ATOM     16  C   UNL     1       9.640  -0.554  23.877  0.00  0.00    +0.250 C 
ATOM     17  N   UNL     1       8.522  -1.260  24.292  0.00  0.00    -0.281 N 
ATOM     18  H   UNL     1       8.183  -1.053  25.231  0.00  0.00    +0.155 HD
ATOM     19  O   UNL     1      10.287  -0.774  22.854  0.00  0.00    -0.272 OA
BRANCH  17  20
ATOM     20  C   UNL     1       7.891  -2.317  23.600  0.00  0.00    +0.069 A 
ATOM     21  C   UNL     1       8.348  -3.625  23.808  0.00  0.00    +0.145 A 
ATOM     22  F   UNL     1       9.361  -3.848  24.662  0.00  0.00    -0.204 F 
ATOM     23  C   UNL     1       7.787  -4.710  23.136  0.00  0.00    +0.055 A 
ATOM     24  C   UNL     1       6.729  -4.498  22.245  0.00  0.00    +0.062 A 
ATOM     25  C   UNL     1       6.256  -3.201  22.030  0.00  0.00    +0.017 A 
ATOM     26  C   UNL     1       6.829  -2.124  22.714  0.00  0.00    +0.027 A 
BRANCH  24  27
ATOM     27  C   UNL     1       6.170  -5.661  21.513  0.00  0.00    +0.337 C 
ATOM     28  O   UNL     1       5.913  -5.622  20.322  0.00  0.00    -0.245 OA
BRANCH  27  29
ATOM     29  O   UNL     1       6.009  -6.766  22.269  0.00  0.00    -0.477 OA
ATOM     30  H   UNL     1       6.828  -7.203  22.563  0.00  0.00    +0.295 HD
ENDBRANCH  27  29
ENDBRANCH  24  27
ENDBRANCH  17  20
ENDBRANCH   1  16
BRANCH   1  31
ATOM     31  O   UNL     1      11.492   0.684  24.875  0.00  0.00    -0.378 OA
ATOM     32  H   UNL     1      11.752   0.541  25.803  0.00  0.00    +0.211 HD
ENDBRANCH   1  31
TORSDOF 6
ENDMDL
MODEL 9
REMARK VINA RESULT:      -7.2      2.948      3.311
REMARK  Name = 
REMARK  10 active torsions:
REMARK  status: ('A' for Active; 'I' for Inactive)
REMARK    1  A    between atoms: C_2  and  O_3
REMARK    2  A    between atoms: C_2  and  C_4
REMARK    3  A    between atoms: C_2  and  C_17
REMARK    4  A    between atoms: N_6  and  C_7
REMARK    5  A    between atoms: C_10  and  C_14
REMARK    6  A    between atoms: C_14  and  O_15
REMARK    7  A    between atoms: C_23  and  C_24
REMARK    8  A    between atoms: C_23  and  C_25
REMARK    9  A    between atoms: C_28  and  C_29
REMARK   10  A    between atoms: C_28  and  C_30
REMARK                            x       y       z     vdW  Elec       q    Type
REMARK                         _______ _______ _______ _____ _____    ______ ____
ROOT
ATOM      1  C   UNL     1       9.803  -0.467  22.532  0.00  0.00    +0.230 C 
ENDROOT
BRANCH   1   2
ATOM      2  C   UNL     1       9.441   0.950  22.932  0.00  0.00    -0.010 A 
ATOM      3  C   UNL     1      10.407   1.923  23.177  0.00  0.00    +0.007 A 
ATOM      4  C   UNL     1      10.030   3.210  23.565  0.00  0.00    +0.005 A 
ATOM      5  C   UNL     1       8.677   3.581  23.719  0.00  0.00    -0.038 A 
ATOM      6  C   UNL     1       8.335   5.014  24.146  0.00  0.00    -0.010 C 
ATOM      7  C   UNL     1       6.839   5.334  23.928  0.00  0.00    +0.012 C 
ATOM      8  C   UNL     1       5.937   4.213  24.418  0.00  0.00    +0.012 C 
ATOM      9  C   UNL     1       6.186   2.894  23.653  0.00  0.00    -0.010 C 
ATOM     10  C   UNL     1       5.574   2.984  22.236  0.00  0.00    +0.016 C 
ATOM     11  C   UNL     1       5.435   1.787  24.431  0.00  0.00    +0.016 C 
ATOM     12  C   UNL     1       8.693   5.184  25.639  0.00  0.00    +0.016 C 
ATOM     13  C   UNL     1       9.131   6.063  23.333  0.00  0.00    +0.016 C 
ATOM     14  C   UNL     1       7.686   2.595  23.517  0.00  0.00    -0.038 A 
ATOM     15  C   UNL     1       8.094   1.301  23.124  0.00  0.00    +0.011 A 
ENDBRANCH   1   2
BRANCH   1  16
ATOM     16  C   UNL     1       8.875  -1.520  23.178  0.00  0.00    +0.250 C 
ATOM     17  N   UNL     1       9.190  -1.813  24.495  0.00  0.00    -0.281 N 
ATOM     18  H   UNL     1      10.056  -1.409  24.850  0.00  0.00    +0.155 HD
ATOM     19  O   UNL     1       7.968  -2.036  22.527  0.00  0.00    -0.272 OA
BRANCH  17  20
ATOM     20  C   UNL     1       8.503  -2.709  25.345  0.00  0.00    +0.069 A 
ATOM     21  C   UNL     1       9.008  -4.006  25.504  0.00  0.00    +0.145 A 
ATOM     22  F   UNL     1      10.131  -4.366  24.861  0.00  0.00    -0.204 F 
ATOM     23  C   UNL     1       8.363  -4.947  26.306  0.00  0.00    +0.055 A 
ATOM     24  C   UNL     1       7.193  -4.589  26.985  0.00  0.00    +0.062 A 
ATOM     25  C   UNL     1       6.678  -3.298  26.843  0.00  0.00    +0.017 A 
ATOM     26  C   UNL     1       7.340  -2.366  26.036  0.00  0.00    +0.027 A 
BRANCH  24  27
ATOM     27  C   UNL     1       6.503  -5.615  27.804  0.00  0.00    +0.337 C 
ATOM     28  O   UNL     1       7.107  -6.392  28.523  0.00  0.00    -0.245 OA
BRANCH  27  29
ATOM     29  O   UNL     1       5.158  -5.588  27.711  0.00  0.00    -0.477 OA
ATOM     30  H   UNL     1       4.790  -4.951  27.072  0.00  0.00    +0.295 HD
ENDBRANCH  27  29
ENDBRANCH  24  27
ENDBRANCH  17  20
ENDBRANCH   1  16
BRANCH   1  31
ATOM     31  O   UNL     1       9.818  -0.631  21.110  0.00  0.00    -0.378 OA
ATOM     32  H   UNL     1      10.687  -1.016  20.895  0.00  0.00    +0.211 HD
ENDBRANCH   1  31
TORSDOF 6
ENDMDL
