MODEL 1
REMARK VINA RESULT:      -5.0      0.000      0.000
REMARK  Name = 
REMARK  2 active torsions:
REMARK  status: ('A' for Active; 'I' for Inactive)
REMARK    1  A    between atoms: O_1  and  C_2
REMARK    2  A    between atoms: C_2  and  CA_4
REMARK                            x       y       z     vdW  Elec       q    Type
REMARK                         _______ _______ _______ _____ _____    ______ ____
ROOT
ATOM      1  CA  UNL     1       9.414   3.228  23.297  0.00  0.00    +0.164 C 
ATOM      2  N   UNL     1       9.465   2.389  22.037  0.00  0.00    -0.301 NA
ATOM      3  H   UNL     1       8.496   2.252  21.731  0.00  0.00    +0.123 HD
ATOM      4  C   UNL     1       9.979   1.088  22.491  0.00  0.00    +0.058 C 
ATOM      5  C   UNL     1       9.298   0.895  23.836  0.00  0.00    +0.008 C 
ATOM      6  C   UNL     1       9.920  -0.291  24.560  0.00  0.00    +0.005 C 
ATOM      7  C   UNL     1       9.753  -1.557  23.709  0.00  0.00    +0.000 C 
ATOM      8  C   UNL     1      10.227  -1.381  22.257  0.00  0.00    +0.002 C 
ATOM      9  C   UNL     1       9.686  -0.108  21.593  0.00  0.00    +0.019 C 
ATOM     10  C   UNL     1       9.442   2.258  24.483  0.00  0.00    +0.035 C 
ENDROOT
BRANCH   1  11
ATOM     11  C   UNL     1      10.620   4.176  23.326  0.00  0.00    +0.322 C 
ATOM     12  OXT UNL     1      11.782   3.828  23.460  0.00  0.00    -0.249 OA
BRANCH  11  13
ATOM     13  O   UNL     1      10.242   5.473  23.183  0.00  0.00    -0.480 OA
ATOM     14  H   UNL     1       9.252   5.465  23.201  0.00  0.00    +0.295 HD
ENDBRANCH  11  13
ENDBRANCH   1  11
TORSDOF 2
ENDMDL
MODEL 2
REMARK VINA RESULT:      -4.9      1.597      2.291
REMARK  Name = 
REMARK  2 active torsions:
REMARK  status: ('A' for Active; 'I' for Inactive)
REMARK    1  A    between atoms: O_1  and  C_2
REMARK    2  A    between atoms: C_2  and  CA_4
REMARK                            x       y       z     vdW  Elec       q    Type
REMARK                         _______ _______ _______ _____ _____    ______ ____
ROOT
ATOM      1  CA  UNL     1      10.252   2.679  23.675  0.00  0.00    +0.164 C 
ATOM      2  N   UNL     1      10.090   1.539  24.658  0.00  0.00    -0.301 NA
ATOM      3  H   UNL     1      11.034   1.216  24.898  0.00  0.00    +0.123 HD
ATOM      4  C   UNL     1       9.440   0.477  23.874  0.00  0.00    +0.058 C 
ATOM      5  C   UNL     1      10.113   0.585  22.517  0.00  0.00    +0.008 C 
ATOM      6  C   UNL     1       9.371  -0.280  21.507  0.00  0.00    +0.005 C 
ATOM      7  C   UNL     1       9.383  -1.741  21.976  0.00  0.00    +0.000 C 
ATOM      8  C   UNL     1       8.913  -1.918  23.429  0.00  0.00    +0.002 C 
ATOM      9  C   UNL     1       9.585  -0.944  24.406  0.00  0.00    +0.019 C 
ATOM     10  C   UNL     1      10.131   2.081  22.269  0.00  0.00    +0.035 C 
ENDROOT
BRANCH   1  11
ATOM     11  C   UNL     1       9.161   3.727  23.928  0.00  0.00    +0.322 C 
ATOM     12  OXT UNL     1       8.798   4.108  25.030  0.00  0.00    -0.249 OA
BRANCH  11  13
ATOM     13  O   UNL     1       8.633   4.193  22.767  0.00  0.00    -0.480 OA
ATOM     14  H   UNL     1       9.385   4.619  22.284  0.00  0.00    +0.295 HD
ENDBRANCH  11  13
ENDBRANCH   1  11
TORSDOF 2
ENDMDL
MODEL 3
REMARK VINA RESULT:      -4.9      5.042      6.207
REMARK  Name = 
REMARK  2 active torsions:
REMARK  status: ('A' for Active; 'I' for Inactive)
REMARK    1  A    between atoms: O_1  and  C_2
REMARK    2  A    between atoms: C_2  and  CA_4
REMARK                            x       y       z     vdW  Elec       q    Type
REMARK                         _______ _______ _______ _____ _____    ______ ____
ROOT
ATOM      1  CA  UNL     1       8.966  -3.505  24.834  0.00  0.00    +0.164 C 
ATOM      2  N   UNL     1      10.073  -3.015  23.924  0.00  0.00    -0.301 NA
ATOM      3  H   UNL     1      10.722  -2.477  24.507  0.00  0.00    +0.123 HD
ATOM      4  C   UNL     1       9.400  -2.073  23.015  0.00  0.00    +0.058 C 
ATOM      5  C   UNL     1       8.415  -1.357  23.923  0.00  0.00    +0.008 C 
ATOM      6  C   UNL     1       7.457  -0.523  23.083  0.00  0.00    +0.005 C 
ATOM      7  C   UNL     1       8.252   0.507  22.269  0.00  0.00    +0.000 C 
ATOM      8  C   UNL     1       9.417  -0.111  21.477  0.00  0.00    +0.002 C 
ATOM      9  C   UNL     1      10.291  -1.050  22.320  0.00  0.00    +0.019 C 
ATOM     10  C   UNL     1       7.820  -2.492  24.733  0.00  0.00    +0.035 C 
ENDROOT
BRANCH   1  11
ATOM     11  C   UNL     1       8.516  -4.900  24.382  0.00  0.00    +0.322 C 
ATOM     12  OXT UNL     1       7.393  -5.184  23.998  0.00  0.00    -0.249 OA
BRANCH  11  13
ATOM     13  O   UNL     1       9.528  -5.803  24.459  0.00  0.00    -0.480 OA
ATOM     14  H   UNL     1       9.323  -6.491  23.776  0.00  0.00    +0.295 HD
ENDBRANCH  11  13
ENDBRANCH   1  11
TORSDOF 2
ENDMDL
MODEL 4
REMARK VINA RESULT:      -4.9      2.305      3.443
REMARK  Name = 
REMARK  2 active torsions:
REMARK  status: ('A' for Active; 'I' for Inactive)
REMARK    1  A    between atoms: O_1  and  C_2
REMARK    2  A    between atoms: C_2  and  CA_4
REMARK                            x       y       z     vdW  Elec       q    Type
REMARK                         _______ _______ _______ _____ _____    ______ ____
ROOT
ATOM      1  CA  UNL     1      11.468   5.380  23.071  0.00  0.00    +0.164 C 
ATOM      2  N   UNL     1      11.459   3.903  22.737  0.00  0.00    -0.301 NA
ATOM      3  H   UNL     1      11.022   3.809  21.815  0.00  0.00    +0.123 HD
ATOM      4  C   UNL     1      10.544   3.315  23.728  0.00  0.00    +0.058 C 
ATOM      5  C   UNL     1       9.444   4.356  23.846  0.00  0.00    +0.008 C 
ATOM      6  C   UNL     1       8.542   4.017  25.025  0.00  0.00    +0.005 C 
ATOM      7  C   UNL     1       7.922   2.629  24.815  0.00  0.00    +0.000 C 
ATOM      8  C   UNL     1       8.958   1.544  24.477  0.00  0.00    +0.002 C 
ATOM      9  C   UNL     1       9.936   1.965  23.371  0.00  0.00    +0.019 C 
ATOM     10  C   UNL     1      10.218   5.657  23.914  0.00  0.00    +0.035 C 
ENDROOT
BRANCH   1  11
ATOM     11  C   UNL     1      12.748   5.719  23.847  0.00  0.00    +0.322 C 
ATOM     12  OXT UNL     1      12.797   6.417  24.846  0.00  0.00    -0.249 OA
BRANCH  11  13
ATOM     13  O   UNL     1      13.842   5.143  23.285  0.00  0.00    -0.480 OA
ATOM     14  H   UNL     1      14.096   4.404  23.893  0.00  0.00    +0.295 HD
ENDBRANCH  11  13
ENDBRANCH   1  11
TORSDOF 2
ENDMDL
MODEL 5
REMARK VINA RESULT:      -4.9      4.653      6.179
REMARK  Name = 
REMARK  2 active torsions:
REMARK  status: ('A' for Active; 'I' for Inactive)
REMARK    1  A    between atoms: O_1  and  C_2
REMARK    2  A    between atoms: C_2  and  CA_4
REMARK                            x       y       z     vdW  Elec       q    Type
REMARK                         _______ _______ _______ _____ _____    ______ ____
ROOT
ATOM      1  CA  UNL     1       8.314  -3.489  25.037  0.00  0.00    +0.164 C 
ATOM      2  N   UNL     1       8.846  -2.174  25.568  0.00  0.00    -0.301 NA
ATOM      3  H   UNL     1       8.032  -1.593  25.795  0.00  0.00    +0.123 HD
ATOM      4  C   UNL     1       9.521  -1.565  24.411  0.00  0.00    +0.058 C 
ATOM      5  C   UNL     1       8.607  -1.919  23.250  0.00  0.00    +0.008 C 
ATOM      6  C   UNL     1       9.295  -1.579  21.934  0.00  0.00    +0.005 C 
ATOM      7  C   UNL     1       9.622  -0.080  21.898  0.00  0.00    +0.000 C 
ATOM      8  C   UNL     1      10.369   0.410  23.150  0.00  0.00    +0.002 C 
ATOM      9  C   UNL     1       9.723  -0.055  24.462  0.00  0.00    +0.019 C 
ATOM     10  C   UNL     1       8.283  -3.377  23.509  0.00  0.00    +0.035 C 
ENDROOT
BRANCH   1  11
ATOM     11  C   UNL     1       9.233  -4.630  25.493  0.00  0.00    +0.322 C 
ATOM     12  OXT UNL     1      10.276  -4.950  24.946  0.00  0.00    -0.249 OA
BRANCH  11  13
ATOM     13  O   UNL     1       8.746  -5.257  26.594  0.00  0.00    -0.480 OA
ATOM     14  H   UNL     1       7.870  -4.832  26.777  0.00  0.00    +0.295 HD
ENDBRANCH  11  13
ENDBRANCH   1  11
TORSDOF 2
ENDMDL
MODEL 6
REMARK VINA RESULT:      -4.9      2.958      4.608
REMARK  Name = 
REMARK  2 active torsions:
REMARK  status: ('A' for Active; 'I' for Inactive)
REMARK    1  A    between atoms: O_1  and  C_2
REMARK    2  A    between atoms: C_2  and  CA_4
REMARK                            x       y       z     vdW  Elec       q    Type
REMARK                         _______ _______ _______ _____ _____    ______ ____
ROOT
ATOM      1  CA  UNL     1       9.780   0.674  21.751  0.00  0.00    +0.164 C 
ATOM      2  N   UNL     1       8.658   1.523  21.190  0.00  0.00    -0.301 NA
ATOM      3  H   UNL     1       9.091   2.222  20.578  0.00  0.00    +0.123 HD
ATOM      4  C   UNL     1       8.119   2.228  22.364  0.00  0.00    +0.058 C 
ATOM      5  C   UNL     1       9.362   2.559  23.172  0.00  0.00    +0.008 C 
ATOM      6  C   UNL     1       8.958   3.068  24.549  0.00  0.00    +0.005 C 
ATOM      7  C   UNL     1       8.089   4.324  24.397  0.00  0.00    +0.000 C 
ATOM      8  C   UNL     1       6.916   4.139  23.420  0.00  0.00    +0.002 C 
ATOM      9  C   UNL     1       7.334   3.504  22.086  0.00  0.00    +0.019 C 
ATOM     10  C   UNL     1      10.154   1.268  23.113  0.00  0.00    +0.035 C 
ENDROOT
BRANCH   1  11
ATOM     11  C   UNL     1       9.300  -0.776  21.889  0.00  0.00    +0.322 C 
ATOM     12  OXT UNL     1       8.216  -1.116  22.336  0.00  0.00    -0.249 OA
BRANCH  11  13
ATOM     13  O   UNL     1      10.235  -1.658  21.452  0.00  0.00    -0.480 OA
ATOM     14  H   UNL     1      10.569  -1.289  20.595  0.00  0.00    +0.295 HD
ENDBRANCH  11  13
ENDBRANCH   1  11
TORSDOF 2
ENDMDL
MODEL 7
REMARK VINA RESULT:      -4.8      1.818      2.344
REMARK  Name = 
REMARK  2 active torsions:
REMARK  status: ('A' for Active; 'I' for Inactive)
REMARK    1  A    between atoms: O_1  and  C_2
REMARK    2  A    between atoms: C_2  and  CA_4
REMARK                            x       y       z     vdW  Elec       q    Type
REMARK                         _______ _______ _______ _____ _____    ______ ____
ROOT
ATOM      1  CA  UNL     1       7.914   4.621  23.397  0.00  0.00    +0.164 C 
ATOM      2  N   UNL     1       7.660   3.659  22.256  0.00  0.00    -0.301 NA
ATOM      3  H   UNL     1       6.818   3.126  22.497  0.00  0.00    +0.123 HD
ATOM      4  C   UNL     1       8.804   2.734  22.304  0.00  0.00    +0.058 C 
ATOM      5  C   UNL     1       9.029   2.537  23.794  0.00  0.00    +0.008 C 
ATOM      6  C   UNL     1      10.344   1.803  24.021  0.00  0.00    +0.005 C 
ATOM      7  C   UNL     1      10.298   0.439  23.319  0.00  0.00    +0.000 C 
ATOM      8  C   UNL     1       9.867   0.527  21.846  0.00  0.00    +0.002 C 
ATOM      9  C   UNL     1       8.609   1.380  21.632  0.00  0.00    +0.019 C 
ATOM     10  C   UNL     1       8.916   3.946  24.340  0.00  0.00    +0.035 C 
ENDROOT
BRANCH   1  11
ATOM     11  C   UNL     1       8.475   5.936  22.838  0.00  0.00    +0.322 C 
ATOM     12  OXT UNL     1       9.339   6.612  23.372  0.00  0.00    -0.249 OA
BRANCH  11  13
ATOM     13  O   UNL     1       7.889   6.270  21.660  0.00  0.00    -0.480 OA
ATOM     14  H   UNL     1       7.357   5.479  21.393  0.00  0.00    +0.295 HD
ENDBRANCH  11  13
ENDBRANCH   1  11
TORSDOF 2
ENDMDL
MODEL 8
REMARK VINA RESULT:      -4.8      2.184      3.229
REMARK  Name = 
REMARK  2 active torsions:
REMARK  status: ('A' for Active; 'I' for Inactive)
REMARK    1  A    between atoms: O_1  and  C_2
REMARK    2  A    between atoms: C_2  and  CA_4
REMARK                            x       y       z     vdW  Elec       q    Type
REMARK                         _______ _______ _______ _____ _____    ______ ____
ROOT
ATOM      1  CA  UNL     1      10.469   1.169  23.684  0.00  0.00    +0.164 C 
ATOM      2  N   UNL     1       9.906   1.097  25.087  0.00  0.00    -0.301 NA
ATOM      3  H   UNL     1      10.701   0.960  25.721  0.00  0.00    +0.123 HD
ATOM      4  C   UNL     1       9.111  -0.141  25.093  0.00  0.00    +0.058 C 
ATOM      5  C   UNL     1       9.952  -1.098  24.265  0.00  0.00    +0.008 C 
ATOM      6  C   UNL     1       9.147  -2.354  23.959  0.00  0.00    +0.005 C 
ATOM      7  C   UNL     1       8.734  -3.032  25.273  0.00  0.00    +0.000 C 
ATOM      8  C   UNL     1       8.058  -2.072  26.266  0.00  0.00    +0.002 C 
ATOM      9  C   UNL     1       8.828  -0.758  26.458  0.00  0.00    +0.019 C 
ATOM     10  C   UNL     1      10.377  -0.241  23.090  0.00  0.00    +0.035 C 
ENDROOT
BRANCH   1  11
ATOM     11  C   UNL     1       9.654   2.174  22.860  0.00  0.00    +0.322 C 
ATOM     12  OXT UNL     1       8.830   2.950  23.317  0.00  0.00    -0.249 OA
BRANCH  11  13
ATOM     13  O   UNL     1       9.956   2.102  21.538  0.00  0.00    -0.480 OA
ATOM     14  H   UNL     1      10.376   2.970  21.313  0.00  0.00    +0.295 HD
ENDBRANCH  11  13
ENDBRANCH   1  11
TORSDOF 2
ENDMDL
MODEL 9
REMARK VINA RESULT:      -4.8      3.936      5.487
REMARK  Name = 
REMARK  2 active torsions:
REMARK  status: ('A' for Active; 'I' for Inactive)
REMARK    1  A    between atoms: O_1  and  C_2
REMARK    2  A    between atoms: C_2  and  CA_4
REMARK                            x       y       z     vdW  Elec       q    Type
REMARK                         _______ _______ _______ _____ _____    ______ ____
ROOT
ATOM      1  CA  UNL     1       8.056  -2.321  23.858  0.00  0.00    +0.164 C 
ATOM      2  N   UNL     1       8.444  -1.222  24.824  0.00  0.00    -0.301 NA
ATOM      3  H   UNL     1       7.593  -0.685  25.022  0.00  0.00    +0.123 HD
ATOM      4  C   UNL     1       9.346  -0.359  24.044  0.00  0.00    +0.058 C 
ATOM      5  C   UNL     1       8.709  -0.348  22.665  0.00  0.00    +0.008 C 
ATOM      6  C   UNL     1       9.661   0.297  21.667  0.00  0.00    +0.005 C 
ATOM      7  C   UNL     1       9.970   1.734  22.107  0.00  0.00    +0.000 C 
ATOM      8  C   UNL     1      10.422   1.839  23.572  0.00  0.00    +0.002 C 
ATOM      9  C   UNL     1       9.513   1.071  24.543  0.00  0.00    +0.019 C 
ATOM     10  C   UNL     1       8.355  -1.805  22.446  0.00  0.00    +0.035 C 
ENDROOT
BRANCH   1  11
ATOM     11  C   UNL     1       8.869  -3.584  24.173  0.00  0.00    +0.322 C 
ATOM     12  OXT UNL     1      10.087  -3.635  24.238  0.00  0.00    -0.249 OA
BRANCH  11  13
ATOM     13  O   UNL     1       8.066  -4.661  24.373  0.00  0.00    -0.480 OA
ATOM     14  H   UNL     1       7.462  -4.407  25.116  0.00  0.00    +0.295 HD
ENDBRANCH  11  13
ENDBRANCH   1  11
TORSDOF 2
ENDMDL
