MODEL 1
REMARK VINA RESULT:      -6.7      0.000      0.000
REMARK  Name = 
REMARK  3 active torsions:
REMARK  status: ('A' for Active; 'I' for Inactive)
REMARK    1  A    between atoms: C_2  and  C_16
REMARK    2  A    between atoms: N_7  and  C_8
REMARK    3  A    between atoms: C_14  and  O_15
REMARK                            x       y       z     vdW  Elec       q    Type
REMARK                         _______ _______ _______ _____ _____    ______ ____
ROOT
ATOM      1  C   UNL     1       8.638  -3.722  23.976  0.00  0.00    +0.170 C 
ATOM      2  N   UNL     1       8.744  -2.341  24.431  0.00  0.00    -0.251 N 
ATOM      3  C   UNL     1       8.718  -2.192  25.830  0.00  0.00    +0.231 C 
ATOM      4  O   UNL     1       8.710  -1.143  26.467  0.00  0.00    -0.274 OA
ATOM      5  C   UNL     1       8.679  -3.519  26.561  0.00  0.00    +0.167 C 
ATOM      6  S   UNL     1       9.170  -4.764  25.377  0.00  0.00    -0.124 S 
ENDROOT
BRANCH   1   7
ATOM      7  C   UNL     1       7.227  -4.139  23.570  0.00  0.00    -0.016 A 
ATOM      8  C   UNL     1       6.577  -5.159  24.290  0.00  0.00    +0.021 A 
ATOM      9  C   UNL     1       5.248  -5.485  24.014  0.00  0.00    +0.018 A 
ATOM     10 BR   UNL     1       4.389  -6.838  25.019  0.00  0.00    -0.050 Br
ATOM     11  C   UNL     1       4.541  -4.809  23.023  0.00  0.00    +0.015 A 
ATOM     12  C   UNL     1       5.171  -3.806  22.293  0.00  0.00    +0.001 A 
ATOM     13  C   UNL     1       6.501  -3.475  22.562  0.00  0.00    +0.006 A 
ENDBRANCH   1   7
BRANCH   2  14
ATOM     14  C   UNL     1       8.735  -1.232  23.501  0.00  0.00    +0.081 A 
ATOM     15  C   UNL     1       9.727  -1.034  22.512  0.00  0.00    +0.138 A 
ATOM     16  C   UNL     1       9.686   0.058  21.629  0.00  0.00    +0.049 A 
ATOM     17  C   UNL     1       8.645   0.975  21.696  0.00  0.00    +0.023 A 
ATOM     18  C   UNL     1       7.653   0.800  22.649  0.00  0.00    +0.043 A 
ATOM     19 CL   UNL     1       6.344   1.917  22.721  0.00  0.00    -0.083 Cl
ATOM     20  C   UNL     1       7.698  -0.280  23.538  0.00  0.00    +0.047 A 
BRANCH  15  21
ATOM     21  O   UNL     1      10.803  -1.871  22.404  0.00  0.00    -0.505 OA
ATOM     22  H   UNL     1      10.827  -2.473  23.167  0.00  0.00    +0.292 HD
ENDBRANCH  15  21
ENDBRANCH   2  14
TORSDOF 3
ENDMDL
MODEL 2
REMARK VINA RESULT:      -6.6      2.221      2.527
REMARK  Name = 
REMARK  3 active torsions:
REMARK  status: ('A' for Active; 'I' for Inactive)
REMARK    1  A    between atoms: C_2  and  C_16
REMARK    2  A    between atoms: N_7  and  C_8
REMARK    3  A    between atoms: C_14  and  O_15
REMARK                            x       y       z     vdW  Elec       q    Type
REMARK                         _______ _______ _______ _____ _____    ______ ____
ROOT
ATOM      1  C   UNL     1       7.909  -4.245  25.227  0.00  0.00    +0.170 C 
ATOM      2  N   UNL     1       7.493  -2.880  25.528  0.00  0.00    -0.251 N 
ATOM      3  C   UNL     1       6.568  -2.780  26.583  0.00  0.00    +0.231 C 
ATOM      4  O   UNL     1       6.001  -1.767  26.983  0.00  0.00    -0.274 OA
ATOM      5  C   UNL     1       6.277  -4.115  27.239  0.00  0.00    +0.167 C 
ATOM      6  S   UNL     1       7.587  -5.221  26.735  0.00  0.00    -0.124 S 
ENDROOT
BRANCH   1   7
ATOM      7  C   UNL     1       7.155  -4.885  24.065  0.00  0.00    -0.016 A 
ATOM      8  C   UNL     1       5.794  -5.208  24.223  0.00  0.00    +0.021 A 
ATOM      9  C   UNL     1       5.049  -5.691  23.145  0.00  0.00    +0.018 A 
ATOM     10 BR   UNL     1       3.215  -6.087  23.378  0.00  0.00    -0.050 Br
ATOM     11  C   UNL     1       5.638  -5.862  21.895  0.00  0.00    +0.015 A 
ATOM     12  C   UNL     1       6.985  -5.559  21.723  0.00  0.00    +0.001 A 
ATOM     13  C   UNL     1       7.736  -5.077  22.797  0.00  0.00    +0.006 A 
ENDBRANCH   1   7
BRANCH   2  14
ATOM     14  C   UNL     1       7.905  -1.762  24.706  0.00  0.00    +0.081 A 
ATOM     15  C   UNL     1       7.113  -1.223  23.666  0.00  0.00    +0.138 A 
ATOM     16  C   UNL     1       7.550  -0.139  22.887  0.00  0.00    +0.049 A 
ATOM     17  C   UNL     1       8.784   0.450  23.134  0.00  0.00    +0.023 A 
ATOM     18  C   UNL     1       9.577  -0.050  24.155  0.00  0.00    +0.043 A 
ATOM     19 CL   UNL     1      11.095   0.692  24.488  0.00  0.00    -0.083 Cl
ATOM     20  C   UNL     1       9.149  -1.139  24.925  0.00  0.00    +0.047 A 
BRANCH  15  21
ATOM     21  O   UNL     1       5.904  -1.769  23.335  0.00  0.00    -0.505 OA
ATOM     22  H   UNL     1       5.585  -2.326  24.065  0.00  0.00    +0.292 HD
ENDBRANCH  15  21
ENDBRANCH   2  14
TORSDOF 3
ENDMDL
MODEL 3
REMARK VINA RESULT:      -6.5      3.528      5.510
REMARK  Name = 
REMARK  3 active torsions:
REMARK  status: ('A' for Active; 'I' for Inactive)
REMARK    1  A    between atoms: C_2  and  C_16
REMARK    2  A    between atoms: N_7  and  C_8
REMARK    3  A    between atoms: C_14  and  O_15
REMARK                            x       y       z     vdW  Elec       q    Type
REMARK                         _______ _______ _______ _____ _____    ______ ____
ROOT
ATOM      1  C   UNL     1       7.160  -0.843  24.837  0.00  0.00    +0.170 C 
ATOM      2  N   UNL     1       7.462  -2.218  25.216  0.00  0.00    -0.251 N 
ATOM      3  C   UNL     1       8.284  -2.335  26.353  0.00  0.00    +0.231 C 
ATOM      4  O   UNL     1       8.749  -3.364  26.832  0.00  0.00    -0.274 OA
ATOM      5  C   UNL     1       8.599  -0.996  26.990  0.00  0.00    +0.167 C 
ATOM      6  S   UNL     1       7.410   0.167  26.337  0.00  0.00    -0.124 S 
ENDROOT
BRANCH   1   7
ATOM      7  C   UNL     1       8.051  -0.292  23.727  0.00  0.00    -0.016 A 
ATOM      8  C   UNL     1       8.768   0.899  23.949  0.00  0.00    +0.021 A 
ATOM      9  C   UNL     1       9.675   1.368  22.996  0.00  0.00    +0.018 A 
ATOM     10 BR   UNL     1      10.648   2.955  23.333  0.00  0.00    -0.050 Br
ATOM     11  C   UNL     1       9.886   0.668  21.812  0.00  0.00    +0.015 A 
ATOM     12  C   UNL     1       9.178  -0.505  21.571  0.00  0.00    +0.001 A 
ATOM     13  C   UNL     1       8.268  -0.979  22.518  0.00  0.00    +0.006 A 
ENDBRANCH   1   7
BRANCH   2  14
ATOM     14  C   UNL     1       7.053  -3.339  24.397  0.00  0.00    +0.081 A 
ATOM     15  C   UNL     1       7.963  -4.239  23.795  0.00  0.00    +0.138 A 
ATOM     16  C   UNL     1       7.528  -5.314  23.002  0.00  0.00    +0.049 A 
ATOM     17  C   UNL     1       6.171  -5.532  22.800  0.00  0.00    +0.023 A 
ATOM     18  C   UNL     1       5.255  -4.671  23.386  0.00  0.00    +0.043 A 
ATOM     19 CL   UNL     1       3.571  -4.950  23.164  0.00  0.00    -0.083 Cl
ATOM     20  C   UNL     1       5.687  -3.592  24.167  0.00  0.00    +0.047 A 
BRANCH  15  21
ATOM     21  O   UNL     1       9.315  -4.073  23.915  0.00  0.00    -0.505 OA
ATOM     22  H   UNL     1       9.745  -4.255  23.062  0.00  0.00    +0.292 HD
ENDBRANCH  15  21
ENDBRANCH   2  14
TORSDOF 3
ENDMDL
MODEL 4
REMARK VINA RESULT:      -6.2      3.937      6.067
REMARK  Name = 
REMARK  3 active torsions:
REMARK  status: ('A' for Active; 'I' for Inactive)
REMARK    1  A    between atoms: C_2  and  C_16
REMARK    2  A    between atoms: N_7  and  C_8
REMARK    3  A    between atoms: C_14  and  O_15
REMARK                            x       y       z     vdW  Elec       q    Type
REMARK                         _______ _______ _______ _____ _____    ______ ____
ROOT
ATOM      1  C   UNL     1       9.714  -1.506  24.225  0.00  0.00    +0.170 C 
ATOM      2  N   UNL     1       8.772  -2.588  23.961  0.00  0.00    -0.251 N 
ATOM      3  C   UNL     1       8.294  -2.625  22.638  0.00  0.00    +0.231 C 
ATOM      4  O   UNL     1       7.441  -3.376  22.176  0.00  0.00    -0.274 OA
ATOM      5  C   UNL     1       8.940  -1.579  21.751  0.00  0.00    +0.167 C 
ATOM      6  S   UNL     1      10.407  -1.026  22.607  0.00  0.00    -0.124 S 
ENDROOT
BRANCH   1   7
ATOM      7  C   UNL     1       9.083  -0.274  24.868  0.00  0.00    -0.016 A 
ATOM      8  C   UNL     1       9.326   0.994  24.307  0.00  0.00    +0.021 A 
ATOM      9  C   UNL     1       8.676   2.126  24.805  0.00  0.00    +0.018 A 
ATOM     10 BR   UNL     1       8.997   3.813  24.012  0.00  0.00    -0.050 Br
ATOM     11  C   UNL     1       7.777   2.021  25.862  0.00  0.00    +0.015 A 
ATOM     12  C   UNL     1       7.533   0.778  26.436  0.00  0.00    +0.001 A 
ATOM     13  C   UNL     1       8.181  -0.358  25.946  0.00  0.00    +0.006 A 
ENDBRANCH   1   7
BRANCH   2  14
ATOM     14  C   UNL     1       8.286  -3.447  25.020  0.00  0.00    +0.081 A 
ATOM     15  C   UNL     1       9.000  -4.566  25.508  0.00  0.00    +0.138 A 
ATOM     16  C   UNL     1       8.493  -5.379  26.534  0.00  0.00    +0.049 A 
ATOM     17  C   UNL     1       7.265  -5.089  27.116  0.00  0.00    +0.023 A 
ATOM     18  C   UNL     1       6.547  -3.992  26.665  0.00  0.00    +0.043 A 
ATOM     19 CL   UNL     1       5.038  -3.609  27.400  0.00  0.00    -0.083 Cl
ATOM     20  C   UNL     1       7.045  -3.187  25.633  0.00  0.00    +0.047 A 
BRANCH  15  21
ATOM     21  O   UNL     1      10.198  -4.940  24.964  0.00  0.00    -0.505 OA
ATOM     22  H   UNL     1      10.249  -4.633  24.043  0.00  0.00    +0.292 HD
ENDBRANCH  15  21
ENDBRANCH   2  14
TORSDOF 3
ENDMDL
MODEL 5
REMARK VINA RESULT:      -6.2      3.812      5.992
REMARK  Name = 
REMARK  3 active torsions:
REMARK  status: ('A' for Active; 'I' for Inactive)
REMARK    1  A    between atoms: C_2  and  C_16
REMARK    2  A    between atoms: N_7  and  C_8
REMARK    3  A    between atoms: C_14  and  O_15
REMARK                            x       y       z     vdW  Elec       q    Type
REMARK                         _______ _______ _______ _____ _____    ______ ____
ROOT
ATOM      1  C   UNL     1       9.673   0.789  24.496  0.00  0.00    +0.170 C 
ATOM      2  N   UNL     1       9.304  -0.126  23.422  0.00  0.00    -0.251 N 
ATOM      3  C   UNL     1       9.462   0.410  22.131  0.00  0.00    +0.231 C 
ATOM      4  O   UNL     1       9.152  -0.115  21.065  0.00  0.00    -0.274 OA
ATOM      5  C   UNL     1      10.072   1.797  22.140  0.00  0.00    +0.167 C 
ATOM      6  S   UNL     1      10.802   2.017  23.756  0.00  0.00    -0.124 S 
ENDROOT
BRANCH   1   7
ATOM      7  C   UNL     1       8.492   1.529  25.118  0.00  0.00    -0.016 A 
ATOM      8  C   UNL     1       7.649   0.847  26.016  0.00  0.00    +0.021 A 
ATOM      9  C   UNL     1       6.628   1.526  26.685  0.00  0.00    +0.018 A 
ATOM     10 BR   UNL     1       5.532   0.592  27.911  0.00  0.00    -0.050 Br
ATOM     11  C   UNL     1       6.425   2.887  26.477  0.00  0.00    +0.015 A 
ATOM     12  C   UNL     1       7.240   3.575  25.584  0.00  0.00    +0.001 A 
ATOM     13  C   UNL     1       8.262   2.903  24.910  0.00  0.00    +0.006 A 
ENDBRANCH   1   7
BRANCH   2  14
ATOM     14  C   UNL     1       8.702  -1.413  23.695  0.00  0.00    +0.081 A 
ATOM     15  C   UNL     1       7.355  -1.725  23.395  0.00  0.00    +0.138 A 
ATOM     16  C   UNL     1       6.805  -2.986  23.679  0.00  0.00    +0.049 A 
ATOM     17  C   UNL     1       7.588  -3.979  24.256  0.00  0.00    +0.023 A 
ATOM     18  C   UNL     1       8.914  -3.704  24.552  0.00  0.00    +0.043 A 
ATOM     19 CL   UNL     1       9.899  -4.938  25.241  0.00  0.00    -0.083 Cl
ATOM     20  C   UNL     1       9.461  -2.444  24.281  0.00  0.00    +0.047 A 
BRANCH  15  21
ATOM     21  O   UNL     1       6.509  -0.793  22.861  0.00  0.00    -0.505 OA
ATOM     22  H   UNL     1       6.287  -1.038  21.946  0.00  0.00    +0.292 HD
ENDBRANCH  15  21
ENDBRANCH   2  14
TORSDOF 3
ENDMDL
MODEL 6
REMARK VINA RESULT:      -6.1      2.490      3.120
REMARK  Name = 
REMARK  3 active torsions:
REMARK  status: ('A' for Active; 'I' for Inactive)
REMARK    1  A    between atoms: C_2  and  C_16
REMARK    2  A    between atoms: N_7  and  C_8
REMARK    3  A    between atoms: C_14  and  O_15
REMARK                            x       y       z     vdW  Elec       q    Type
REMARK                         _______ _______ _______ _____ _____    ______ ____
ROOT
ATOM      1  C   UNL     1       8.439  -1.003  22.571  0.00  0.00    +0.170 C 
ATOM      2  N   UNL     1       8.401   0.199  23.395  0.00  0.00    -0.251 N 
ATOM      3  C   UNL     1       9.176   0.118  24.567  0.00  0.00    +0.231 C 
ATOM      4  O   UNL     1       9.255   0.950  25.466  0.00  0.00    -0.274 OA
ATOM      5  C   UNL     1       9.957  -1.176  24.666  0.00  0.00    +0.167 C 
ATOM      6  S   UNL     1       9.969  -1.887  23.027  0.00  0.00    -0.124 S 
ENDROOT
BRANCH   1   7
ATOM      7  C   UNL     1       7.255  -1.942  22.783  0.00  0.00    -0.016 A 
ATOM      8  C   UNL     1       7.186  -3.140  22.047  0.00  0.00    +0.021 A 
ATOM      9  C   UNL     1       6.175  -4.070  22.298  0.00  0.00    +0.018 A 
ATOM     10 BR   UNL     1       6.127  -5.686  21.317  0.00  0.00    -0.050 Br
ATOM     11  C   UNL     1       5.217  -3.830  23.279  0.00  0.00    +0.015 A 
ATOM     12  C   UNL     1       5.262  -2.647  24.008  0.00  0.00    +0.001 A 
ATOM     13  C   UNL     1       6.269  -1.711  23.762  0.00  0.00    +0.006 A 
ENDBRANCH   1   7
BRANCH   2  14
ATOM     14  C   UNL     1       7.526   1.308  23.081  0.00  0.00    +0.081 A 
ATOM     15  C   UNL     1       7.803   2.260  22.072  0.00  0.00    +0.138 A 
ATOM     16  C   UNL     1       6.930   3.326  21.799  0.00  0.00    +0.049 A 
ATOM     17  C   UNL     1       5.746   3.464  22.513  0.00  0.00    +0.023 A 
ATOM     18  C   UNL     1       5.444   2.539  23.501  0.00  0.00    +0.043 A 
ATOM     19 CL   UNL     1       3.965   2.686  24.372  0.00  0.00    -0.083 Cl
ATOM     20  C   UNL     1       6.318   1.483  23.784  0.00  0.00    +0.047 A 
BRANCH  15  21
ATOM     21  O   UNL     1       8.963   2.216  21.350  0.00  0.00    -0.505 OA
ATOM     22  H   UNL     1       8.762   2.293  20.402  0.00  0.00    +0.292 HD
ENDBRANCH  15  21
ENDBRANCH   2  14
TORSDOF 3
ENDMDL
MODEL 7
REMARK VINA RESULT:      -6.1      4.153      6.298
REMARK  Name = 
REMARK  3 active torsions:
REMARK  status: ('A' for Active; 'I' for Inactive)
REMARK    1  A    between atoms: C_2  and  C_16
REMARK    2  A    between atoms: N_7  and  C_8
REMARK    3  A    between atoms: C_14  and  O_15
REMARK                            x       y       z     vdW  Elec       q    Type
REMARK                         _______ _______ _______ _____ _____    ______ ____
ROOT
ATOM      1  C   UNL     1       9.420   0.910  24.424  0.00  0.00    +0.170 C 
ATOM      2  N   UNL     1       9.234  -0.121  23.409  0.00  0.00    -0.251 N 
ATOM      3  C   UNL     1       9.578   0.284  22.106  0.00  0.00    +0.231 C 
ATOM      4  O   UNL     1       9.443  -0.355  21.068  0.00  0.00    -0.274 OA
ATOM      5  C   UNL     1      10.155   1.685  22.061  0.00  0.00    +0.167 C 
ATOM      6  S   UNL     1      10.626   2.093  23.735  0.00  0.00    -0.124 S 
ENDROOT
BRANCH   1   7
ATOM      7  C   UNL     1       8.145   1.670  24.780  0.00  0.00    -0.016 A 
ATOM      8  C   UNL     1       7.719   2.726  23.952  0.00  0.00    +0.021 A 
ATOM      9  C   UNL     1       6.501   3.366  24.189  0.00  0.00    +0.018 A 
ATOM     10 BR   UNL     1       5.940   4.761  23.041  0.00  0.00    -0.050 Br
ATOM     11  C   UNL     1       5.686   2.974  25.246  0.00  0.00    +0.015 A 
ATOM     12  C   UNL     1       6.095   1.940  26.082  0.00  0.00    +0.001 A 
ATOM     13  C   UNL     1       7.313   1.295  25.853  0.00  0.00    +0.006 A 
ENDBRANCH   1   7
BRANCH   2  14
ATOM     14  C   UNL     1       8.620  -1.394  23.724  0.00  0.00    +0.081 A 
ATOM     15  C   UNL     1       7.255  -1.682  23.490  0.00  0.00    +0.138 A 
ATOM     16  C   UNL     1       6.694  -2.928  23.812  0.00  0.00    +0.049 A 
ATOM     17  C   UNL     1       7.483  -3.931  24.362  0.00  0.00    +0.023 A 
ATOM     18  C   UNL     1       8.827  -3.680  24.593  0.00  0.00    +0.043 A 
ATOM     19 CL   UNL     1       9.818  -4.927  25.249  0.00  0.00    -0.083 Cl
ATOM     20  C   UNL     1       9.386  -2.434  24.284  0.00  0.00    +0.047 A 
BRANCH  15  21
ATOM     21  O   UNL     1       6.404  -0.737  22.985  0.00  0.00    -0.505 OA
ATOM     22  H   UNL     1       6.199  -0.944  22.057  0.00  0.00    +0.292 HD
ENDBRANCH  15  21
ENDBRANCH   2  14
TORSDOF 3
ENDMDL
MODEL 8
REMARK VINA RESULT:      -6.0      3.466      5.696
REMARK  Name = 
REMARK  3 active torsions:
REMARK  status: ('A' for Active; 'I' for Inactive)
REMARK    1  A    between atoms: C_2  and  C_16
REMARK    2  A    between atoms: N_7  and  C_8
REMARK    3  A    between atoms: C_14  and  O_15
REMARK                            x       y       z     vdW  Elec       q    Type
REMARK                         _______ _______ _______ _____ _____    ______ ____
ROOT
ATOM      1  C   UNL     1       7.210  -1.998  25.107  0.00  0.00    +0.170 C 
ATOM      2  N   UNL     1       7.111  -3.451  25.174  0.00  0.00    -0.251 N 
ATOM      3  C   UNL     1       8.093  -4.058  25.979  0.00  0.00    +0.231 C 
ATOM      4  O   UNL     1       8.284  -5.260  26.141  0.00  0.00    -0.274 OA
ATOM      5  C   UNL     1       8.985  -3.051  26.676  0.00  0.00    +0.167 C 
ATOM      6  S   UNL     1       8.139  -1.480  26.589  0.00  0.00    -0.124 S 
ENDROOT
BRANCH   1   7
ATOM      7  C   UNL     1       7.939  -1.479  23.871  0.00  0.00    -0.016 A 
ATOM      8  C   UNL     1       7.613  -0.207  23.363  0.00  0.00    +0.021 A 
ATOM      9  C   UNL     1       8.338   0.340  22.303  0.00  0.00    +0.018 A 
ATOM     10 BR   UNL     1       7.899   2.065  21.661  0.00  0.00    -0.050 Br
ATOM     11  C   UNL     1       9.395  -0.360  21.728  0.00  0.00    +0.015 A 
ATOM     12  C   UNL     1       9.724  -1.623  22.209  0.00  0.00    +0.001 A 
ATOM     13  C   UNL     1       9.003  -2.178  23.268  0.00  0.00    +0.006 A 
ENDBRANCH   1   7
BRANCH   2  14
ATOM     14  C   UNL     1       6.163  -4.186  24.364  0.00  0.00    +0.081 A 
ATOM     15  C   UNL     1       4.835  -4.457  24.767  0.00  0.00    +0.138 A 
ATOM     16  C   UNL     1       3.945  -5.177  23.954  0.00  0.00    +0.049 A 
ATOM     17  C   UNL     1       4.350  -5.636  22.706  0.00  0.00    +0.023 A 
ATOM     18  C   UNL     1       5.644  -5.376  22.280  0.00  0.00    +0.043 A 
ATOM     19 CL   UNL     1       6.145  -5.916  20.724  0.00  0.00    -0.083 Cl
ATOM     20  C   UNL     1       6.536  -4.669  23.094  0.00  0.00    +0.047 A 
BRANCH  15  21
ATOM     21  O   UNL     1       4.371  -4.072  25.995  0.00  0.00    -0.505 OA
ATOM     22  H   UNL     1       4.129  -4.858  26.514  0.00  0.00    +0.292 HD
ENDBRANCH  15  21
ENDBRANCH   2  14
TORSDOF 3
ENDMDL
MODEL 9
REMARK VINA RESULT:      -6.0      3.014      4.086
REMARK  Name = 
REMARK  3 active torsions:
REMARK  status: ('A' for Active; 'I' for Inactive)
REMARK    1  A    between atoms: C_2  and  C_16
REMARK    2  A    between atoms: N_7  and  C_8
REMARK    3  A    between atoms: C_14  and  O_15
REMARK                            x       y       z     vdW  Elec       q    Type
REMARK                         _______ _______ _______ _____ _____    ______ ____
ROOT
ATOM      1  C   UNL     1       5.321  -3.787  24.107  0.00  0.00    +0.170 C 
ATOM      2  N   UNL     1       6.507  -3.984  23.281  0.00  0.00    -0.251 N 
ATOM      3  C   UNL     1       6.528  -5.208  22.587  0.00  0.00    +0.231 C 
ATOM      4  O   UNL     1       7.435  -5.655  21.893  0.00  0.00    -0.274 OA
ATOM      5  C   UNL     1       5.260  -6.015  22.782  0.00  0.00    +0.167 C 
ATOM      6  S   UNL     1       4.034  -4.885  23.424  0.00  0.00    -0.124 S 
ENDROOT
BRANCH   1   7
ATOM      7  C   UNL     1       5.523  -4.134  25.580  0.00  0.00    -0.016 A 
ATOM      8  C   UNL     1       4.787  -3.438  26.557  0.00  0.00    +0.021 A 
ATOM      9  C   UNL     1       4.867  -3.807  27.902  0.00  0.00    +0.018 A 
ATOM     10 BR   UNL     1       3.842  -2.876  29.189  0.00  0.00    -0.050 Br
ATOM     11  C   UNL     1       5.676  -4.867  28.300  0.00  0.00    +0.015 A 
ATOM     12  C   UNL     1       6.420  -5.559  27.350  0.00  0.00    +0.001 A 
ATOM     13  C   UNL     1       6.347  -5.195  26.003  0.00  0.00    +0.006 A 
ENDBRANCH   1   7
BRANCH   2  14
ATOM     14  C   UNL     1       7.611  -3.049  23.301  0.00  0.00    +0.081 A 
ATOM     15  C   UNL     1       8.896  -3.368  23.799  0.00  0.00    +0.138 A 
ATOM     16  C   UNL     1       9.943  -2.431  23.805  0.00  0.00    +0.049 A 
ATOM     17  C   UNL     1       9.742  -1.152  23.300  0.00  0.00    +0.023 A 
ATOM     18  C   UNL     1       8.495  -0.815  22.797  0.00  0.00    +0.043 A 
ATOM     19 CL   UNL     1       8.245   0.759  22.143  0.00  0.00    -0.083 Cl
ATOM     20  C   UNL     1       7.447  -1.743  22.800  0.00  0.00    +0.047 A 
BRANCH  15  21
ATOM     21  O   UNL     1       9.165  -4.592  24.346  0.00  0.00    -0.505 OA
ATOM     22  H   UNL     1      10.069  -4.599  24.706  0.00  0.00    +0.292 HD
ENDBRANCH  15  21
ENDBRANCH   2  14
TORSDOF 3
ENDMDL
