MODEL 1
REMARK VINA RESULT:      -5.8      0.000      0.000
REMARK  Name = 
REMARK  4 active torsions:
REMARK  status: ('A' for Active; 'I' for Inactive)
REMARK    1  A    between atoms: O_1  and  C_2
REMARK    2  A    between atoms: C_7  and  C_8
REMARK    3  A    between atoms: C_13  and  S_14
REMARK    4  A    between atoms: S_14  and  O_15
REMARK                            x       y       z     vdW  Elec       q    Type
REMARK                         _______ _______ _______ _____ _____    ______ ____
ROOT
ATOM      1  C   UNL     1      10.154   3.030  23.478  0.00  0.00    +0.011 A 
ATOM      2  C   UNL     1       9.170   3.840  24.101  0.00  0.00    +0.104 A 
ATOM      3  C   UNL     1       9.441   5.195  24.399  0.00  0.00    +0.028 A 
ATOM      4  C   UNL     1      10.684   5.764  24.127  0.00  0.00    +0.002 A 
ATOM      5  C   UNL     1      11.663   4.994  23.529  0.00  0.00    +0.001 A 
ATOM      6  C   UNL     1      11.392   3.666  23.191  0.00  0.00    +0.010 A 
ENDROOT
BRANCH   1   8
ATOM      7  C   UNL     1      10.232   0.528  24.012  0.00  0.00    +0.125 A 
ATOM      8  C   UNL     1       9.998   1.585  23.101  0.00  0.00    +0.025 A 
ATOM      9  C   UNL     1       9.686   1.189  21.787  0.00  0.00    +0.012 A 
ATOM     10  C   UNL     1       9.577  -0.159  21.416  0.00  0.00    +0.001 A 
ATOM     11  C   UNL     1       9.821  -1.167  22.343  0.00  0.00    +0.004 A 
ATOM     12  C   UNL     1      10.164  -0.820  23.643  0.00  0.00    +0.046 A 
BRANCH   7  13
ATOM     13  O   UNL     1      10.551   0.797  25.318  0.00  0.00    -0.506 OA
ATOM     14  H   UNL     1      11.336   0.257  25.530  0.00  0.00    +0.292 HD
ENDBRANCH   7  13
ENDBRANCH   1   8
BRANCH   2  15
ATOM     15  S   UNL     1       7.526   3.207  24.591  0.00  0.00    +0.028 S 
ATOM     16  O   UNL     1       6.720   4.408  25.000  0.00  0.00    -0.161 OA
BRANCH  15  17
ATOM     17  O   UNL     1       8.080   2.542  25.946  0.00  0.00    -0.265 OA
ATOM     18  H   UNL     1       8.681   3.177  26.396  0.00  0.00    +0.243 HD
ENDBRANCH  15  17
ENDBRANCH   2  15
TORSDOF 4
ENDMDL
MODEL 2
REMARK VINA RESULT:      -5.8      4.486      6.912
REMARK  Name = 
REMARK  4 active torsions:
REMARK  status: ('A' for Active; 'I' for Inactive)
REMARK    1  A    between atoms: O_1  and  C_2
REMARK    2  A    between atoms: C_7  and  C_8
REMARK    3  A    between atoms: C_13  and  S_14
REMARK    4  A    between atoms: S_14  and  O_15
REMARK                            x       y       z     vdW  Elec       q    Type
REMARK                         _______ _______ _______ _____ _____    ______ ____
ROOT
ATOM      1  C   UNL     1       8.336  -2.678  23.377  0.00  0.00    +0.011 A 
ATOM      2  C   UNL     1       7.525  -3.782  23.007  0.00  0.00    +0.104 A 
ATOM      3  C   UNL     1       7.683  -5.033  23.647  0.00  0.00    +0.028 A 
ATOM      4  C   UNL     1       8.654  -5.231  24.626  0.00  0.00    +0.002 A 
ATOM      5  C   UNL     1       9.463  -4.175  24.998  0.00  0.00    +0.001 A 
ATOM      6  C   UNL     1       9.288  -2.923  24.403  0.00  0.00    +0.010 A 
ENDROOT
BRANCH   1   8
ATOM      7  C   UNL     1       9.236  -0.810  21.878  0.00  0.00    +0.125 A 
ATOM      8  C   UNL     1       8.270  -1.299  22.788  0.00  0.00    +0.025 A 
ATOM      9  C   UNL     1       7.283  -0.372  23.172  0.00  0.00    +0.012 A 
ATOM     10  C   UNL     1       7.237   0.931  22.657  0.00  0.00    +0.001 A 
ATOM     11  C   UNL     1       8.211   1.372  21.767  0.00  0.00    +0.004 A 
ATOM     12  C   UNL     1       9.223   0.500  21.388  0.00  0.00    +0.046 A 
BRANCH   7  13
ATOM     13  O   UNL     1      10.250  -1.623  21.440  0.00  0.00    -0.506 OA
ATOM     14  H   UNL     1      11.035  -1.402  21.976  0.00  0.00    +0.292 HD
ENDBRANCH   7  13
ENDBRANCH   1   8
BRANCH   2  15
ATOM     15  S   UNL     1       6.268  -3.692  21.682  0.00  0.00    +0.028 S 
ATOM     16  O   UNL     1       4.934  -3.649  22.373  0.00  0.00    -0.161 OA
BRANCH  15  17
ATOM     17  O   UNL     1       6.502  -5.215  21.226  0.00  0.00    -0.265 OA
ATOM     18  H   UNL     1       7.368  -5.287  20.768  0.00  0.00    +0.243 HD
ENDBRANCH  15  17
ENDBRANCH   2  15
TORSDOF 4
ENDMDL
MODEL 3
REMARK VINA RESULT:      -5.7      1.426      1.929
REMARK  Name = 
REMARK  4 active torsions:
REMARK  status: ('A' for Active; 'I' for Inactive)
REMARK    1  A    between atoms: O_1  and  C_2
REMARK    2  A    between atoms: C_7  and  C_8
REMARK    3  A    between atoms: C_13  and  S_14
REMARK    4  A    between atoms: S_14  and  O_15
REMARK                            x       y       z     vdW  Elec       q    Type
REMARK                         _______ _______ _______ _____ _____    ______ ____
ROOT
ATOM      1  C   UNL     1      10.329   3.359  23.609  0.00  0.00    +0.011 A 
ATOM      2  C   UNL     1       9.260   4.196  24.022  0.00  0.00    +0.104 A 
ATOM      3  C   UNL     1       9.459   5.588  24.177  0.00  0.00    +0.028 A 
ATOM      4  C   UNL     1      10.708   6.172  23.967  0.00  0.00    +0.002 A 
ATOM      5  C   UNL     1      11.767   5.376  23.574  0.00  0.00    +0.001 A 
ATOM      6  C   UNL     1      11.571   4.008  23.376  0.00  0.00    +0.010 A 
ENDROOT
BRANCH   1   8
ATOM      7  C   UNL     1       9.672   1.294  22.248  0.00  0.00    +0.125 A 
ATOM      8  C   UNL     1      10.255   1.875  23.399  0.00  0.00    +0.025 A 
ATOM      9  C   UNL     1      10.690   0.963  24.378  0.00  0.00    +0.012 A 
ATOM     10  C   UNL     1      10.590  -0.426  24.208  0.00  0.00    +0.001 A 
ATOM     11  C   UNL     1      10.004  -0.954  23.063  0.00  0.00    +0.004 A 
ATOM     12  C   UNL     1       9.530  -0.089  22.085  0.00  0.00    +0.046 A 
BRANCH   7  13
ATOM     13  O   UNL     1       9.205   2.087  21.232  0.00  0.00    -0.506 OA
ATOM     14  H   UNL     1       8.231   2.059  21.281  0.00  0.00    +0.292 HD
ENDBRANCH   7  13
ENDBRANCH   1   8
BRANCH   2  15
ATOM     15  S   UNL     1       7.592   3.559  24.413  0.00  0.00    +0.028 S 
ATOM     16  O   UNL     1       6.941   3.253  23.093  0.00  0.00    -0.161 OA
BRANCH  15  17
ATOM     17  O   UNL     1       7.045   4.998  24.873  0.00  0.00    -0.265 OA
ATOM     18  H   UNL     1       6.598   5.433  24.114  0.00  0.00    +0.243 HD
ENDBRANCH  15  17
ENDBRANCH   2  15
TORSDOF 4
ENDMDL
MODEL 4
REMARK VINA RESULT:      -5.7      4.443      7.566
REMARK  Name = 
REMARK  4 active torsions:
REMARK  status: ('A' for Active; 'I' for Inactive)
REMARK    1  A    between atoms: O_1  and  C_2
REMARK    2  A    between atoms: C_7  and  C_8
REMARK    3  A    between atoms: C_13  and  S_14
REMARK    4  A    between atoms: S_14  and  O_15
REMARK                            x       y       z     vdW  Elec       q    Type
REMARK                         _______ _______ _______ _____ _____    ______ ____
ROOT
ATOM      1  C   UNL     1       7.291  -3.344  22.551  0.00  0.00    +0.011 A 
ATOM      2  C   UNL     1       7.939  -4.369  23.289  0.00  0.00    +0.104 A 
ATOM      3  C   UNL     1       7.678  -5.729  23.005  0.00  0.00    +0.028 A 
ATOM      4  C   UNL     1       6.758  -6.105  22.027  0.00  0.00    +0.002 A 
ATOM      5  C   UNL     1       6.106  -5.125  21.302  0.00  0.00    +0.001 A 
ATOM      6  C   UNL     1       6.388  -3.779  21.544  0.00  0.00    +0.010 A 
ENDROOT
BRANCH   1   8
ATOM      7  C   UNL     1       8.601  -1.168  22.237  0.00  0.00    +0.125 A 
ATOM      8  C   UNL     1       7.479  -1.867  22.742  0.00  0.00    +0.025 A 
ATOM      9  C   UNL     1       6.588  -1.097  23.512  0.00  0.00    +0.012 A 
ATOM     10  C   UNL     1       6.777   0.276  23.729  0.00  0.00    +0.001 A 
ATOM     11  C   UNL     1       7.897   0.922  23.218  0.00  0.00    +0.004 A 
ATOM     12  C   UNL     1       8.820   0.192  22.480  0.00  0.00    +0.046 A 
BRANCH   7  13
ATOM     13  O   UNL     1       9.540  -1.819  21.479  0.00  0.00    -0.506 OA
ATOM     14  H   UNL     1       9.656  -1.293  20.666  0.00  0.00    +0.292 HD
ENDBRANCH   7  13
ENDBRANCH   1   8
BRANCH   2  15
ATOM     15  S   UNL     1       9.105  -4.026  24.654  0.00  0.00    +0.028 S 
ATOM     16  O   UNL     1      10.252  -3.270  24.044  0.00  0.00    -0.161 OA
BRANCH  15  17
ATOM     17  O   UNL     1       9.573  -5.559  24.767  0.00  0.00    -0.265 OA
ATOM     18  H   UNL     1       8.788  -6.125  24.939  0.00  0.00    +0.243 HD
ENDBRANCH  15  17
ENDBRANCH   2  15
TORSDOF 4
ENDMDL
MODEL 5
REMARK VINA RESULT:      -5.6      5.558      7.517
REMARK  Name = 
REMARK  4 active torsions:
REMARK  status: ('A' for Active; 'I' for Inactive)
REMARK    1  A    between atoms: O_1  and  C_2
REMARK    2  A    between atoms: C_7  and  C_8
REMARK    3  A    between atoms: C_13  and  S_14
REMARK    4  A    between atoms: S_14  and  O_15
REMARK                            x       y       z     vdW  Elec       q    Type
REMARK                         _______ _______ _______ _____ _____    ______ ____
ROOT
ATOM      1  C   UNL     1       7.736  -3.298  23.215  0.00  0.00    +0.011 A 
ATOM      2  C   UNL     1       8.845  -3.514  24.073  0.00  0.00    +0.104 A 
ATOM      3  C   UNL     1      10.013  -2.726  23.946  0.00  0.00    +0.028 A 
ATOM      4  C   UNL     1      10.125  -1.747  22.960  0.00  0.00    +0.002 A 
ATOM      5  C   UNL     1       9.063  -1.525  22.105  0.00  0.00    +0.001 A 
ATOM      6  C   UNL     1       7.889  -2.268  22.249  0.00  0.00    +0.010 A 
ENDROOT
BRANCH   1   8
ATOM      7  C   UNL     1       6.252  -5.278  22.560  0.00  0.00    +0.125 A 
ATOM      8  C   UNL     1       6.439  -4.053  23.244  0.00  0.00    +0.025 A 
ATOM      9  C   UNL     1       5.297  -3.545  23.890  0.00  0.00    +0.012 A 
ATOM     10  C   UNL     1       4.070  -4.224  23.889  0.00  0.00    +0.001 A 
ATOM     11  C   UNL     1       3.929  -5.423  23.199  0.00  0.00    +0.004 A 
ATOM     12  C   UNL     1       5.022  -5.944  22.520  0.00  0.00    +0.046 A 
BRANCH   7  13
ATOM     13  O   UNL     1       7.294  -5.863  21.888  0.00  0.00    -0.506 OA
ATOM     14  H   UNL     1       6.904  -6.356  21.142  0.00  0.00    +0.292 HD
ENDBRANCH   7  13
ENDBRANCH   1   8
BRANCH   2  15
ATOM     15  S   UNL     1       8.871  -4.816  25.356  0.00  0.00    +0.028 S 
ATOM     16  O   UNL     1       8.909  -4.101  26.678  0.00  0.00    -0.161 OA
BRANCH  15  17
ATOM     17  O   UNL     1      10.383  -5.247  25.023  0.00  0.00    -0.265 OA
ATOM     18  H   UNL     1      10.535  -5.175  24.055  0.00  0.00    +0.243 HD
ENDBRANCH  15  17
ENDBRANCH   2  15
TORSDOF 4
ENDMDL
MODEL 6
REMARK VINA RESULT:      -5.5      4.329      7.269
REMARK  Name = 
REMARK  4 active torsions:
REMARK  status: ('A' for Active; 'I' for Inactive)
REMARK    1  A    between atoms: O_1  and  C_2
REMARK    2  A    between atoms: C_7  and  C_8
REMARK    3  A    between atoms: C_13  and  S_14
REMARK    4  A    between atoms: S_14  and  O_15
REMARK                            x       y       z     vdW  Elec       q    Type
REMARK                         _______ _______ _______ _____ _____    ______ ____
ROOT
ATOM      1  C   UNL     1       8.027  -2.929  23.426  0.00  0.00    +0.011 A 
ATOM      2  C   UNL     1       8.141  -4.203  24.040  0.00  0.00    +0.104 A 
ATOM      3  C   UNL     1       7.396  -5.302  23.552  0.00  0.00    +0.028 A 
ATOM      4  C   UNL     1       6.507  -5.163  22.488  0.00  0.00    +0.002 A 
ATOM      5  C   UNL     1       6.370  -3.930  21.880  0.00  0.00    +0.001 A 
ATOM      6  C   UNL     1       7.132  -2.848  22.325  0.00  0.00    +0.010 A 
ENDROOT
BRANCH   1   8
ATOM      7  C   UNL     1       9.889  -1.198  23.135  0.00  0.00    +0.125 A 
ATOM      8  C   UNL     1       8.760  -1.685  23.835  0.00  0.00    +0.025 A 
ATOM      9  C   UNL     1       8.418  -0.967  24.996  0.00  0.00    +0.012 A 
ATOM     10  C   UNL     1       9.121   0.174  25.408  0.00  0.00    +0.001 A 
ATOM     11  C   UNL     1      10.230   0.614  24.692  0.00  0.00    +0.004 A 
ATOM     12  C   UNL     1      10.623  -0.085  23.558  0.00  0.00    +0.046 A 
BRANCH   7  13
ATOM     13  O   UNL     1      10.319  -1.824  21.993  0.00  0.00    -0.506 OA
ATOM     14  H   UNL     1      10.360  -2.777  22.196  0.00  0.00    +0.292 HD
ENDBRANCH   7  13
ENDBRANCH   1   8
BRANCH   2  15
ATOM     15  S   UNL     1       9.203  -4.514  25.494  0.00  0.00    +0.028 S 
ATOM     16  O   UNL     1      10.507  -5.036  24.957  0.00  0.00    -0.161 OA
BRANCH  15  17
ATOM     17  O   UNL     1       8.353  -5.795  25.961  0.00  0.00    -0.265 OA
ATOM     18  H   UNL     1       7.407  -5.543  26.046  0.00  0.00    +0.243 HD
ENDBRANCH  15  17
ENDBRANCH   2  15
TORSDOF 4
ENDMDL
MODEL 7
REMARK VINA RESULT:      -5.5      4.057      7.216
REMARK  Name = 
REMARK  4 active torsions:
REMARK  status: ('A' for Active; 'I' for Inactive)
REMARK    1  A    between atoms: O_1  and  C_2
REMARK    2  A    between atoms: C_7  and  C_8
REMARK    3  A    between atoms: C_13  and  S_14
REMARK    4  A    between atoms: S_14  and  O_15
REMARK                            x       y       z     vdW  Elec       q    Type
REMARK                         _______ _______ _______ _____ _____    ______ ____
ROOT
ATOM      1  C   UNL     1       7.510  -3.005  22.615  0.00  0.00    +0.011 A 
ATOM      2  C   UNL     1       8.035  -3.949  23.535  0.00  0.00    +0.104 A 
ATOM      3  C   UNL     1       7.509  -5.261  23.594  0.00  0.00    +0.028 A 
ATOM      4  C   UNL     1       6.445  -5.655  22.784  0.00  0.00    +0.002 A 
ATOM      5  C   UNL     1       5.910  -4.751  21.886  0.00  0.00    +0.001 A 
ATOM      6  C   UNL     1       6.449  -3.466  21.790  0.00  0.00    +0.010 A 
ENDROOT
BRANCH   1   8
ATOM      7  C   UNL     1       7.250  -0.480  22.939  0.00  0.00    +0.125 A 
ATOM      8  C   UNL     1       7.976  -1.589  22.443  0.00  0.00    +0.025 A 
ATOM      9  C   UNL     1       9.128  -1.270  21.701  0.00  0.00    +0.012 A 
ATOM     10  C   UNL     1       9.550   0.053  21.502  0.00  0.00    +0.001 A 
ATOM     11  C   UNL     1       8.802   1.114  22.003  0.00  0.00    +0.004 A 
ATOM     12  C   UNL     1       7.639   0.844  22.712  0.00  0.00    +0.046 A 
BRANCH   7  13
ATOM     13  O   UNL     1       6.105  -0.671  23.669  0.00  0.00    -0.506 OA
ATOM     14  H   UNL     1       6.013  -1.634  23.797  0.00  0.00    +0.292 HD
ENDBRANCH   7  13
ENDBRANCH   1   8
BRANCH   2  15
ATOM     15  S   UNL     1       9.372  -3.549  24.715  0.00  0.00    +0.028 S 
ATOM     16  O   UNL     1      10.154  -4.819  24.908  0.00  0.00    -0.161 OA
BRANCH  15  17
ATOM     17  O   UNL     1       8.367  -3.434  25.963  0.00  0.00    -0.265 OA
ATOM     18  H   UNL     1       7.857  -2.597  25.894  0.00  0.00    +0.243 HD
ENDBRANCH  15  17
ENDBRANCH   2  15
TORSDOF 4
ENDMDL
MODEL 8
REMARK VINA RESULT:      -5.3      3.123      5.729
REMARK  Name = 
REMARK  4 active torsions:
REMARK  status: ('A' for Active; 'I' for Inactive)
REMARK    1  A    between atoms: O_1  and  C_2
REMARK    2  A    between atoms: C_7  and  C_8
REMARK    3  A    between atoms: C_13  and  S_14
REMARK    4  A    between atoms: S_14  and  O_15
REMARK                            x       y       z     vdW  Elec       q    Type
REMARK                         _______ _______ _______ _____ _____    ______ ____
ROOT
ATOM      1  C   UNL     1       8.831  -2.025  24.191  0.00  0.00    +0.011 A 
ATOM      2  C   UNL     1       7.496  -2.292  24.589  0.00  0.00    +0.104 A 
ATOM      3  C   UNL     1       7.149  -3.551  25.132  0.00  0.00    +0.028 A 
ATOM      4  C   UNL     1       8.090  -4.572  25.260  0.00  0.00    +0.002 A 
ATOM      5  C   UNL     1       9.395  -4.339  24.870  0.00  0.00    +0.001 A 
ATOM      6  C   UNL     1       9.758  -3.086  24.372  0.00  0.00    +0.010 A 
ENDROOT
BRANCH   1   8
ATOM      7  C   UNL     1       9.815   0.328  24.409  0.00  0.00    +0.125 A 
ATOM      8  C   UNL     1       9.336  -0.736  23.609  0.00  0.00    +0.025 A 
ATOM      9  C   UNL     1       9.285  -0.474  22.227  0.00  0.00    +0.012 A 
ATOM     10  C   UNL     1       9.718   0.741  21.678  0.00  0.00    +0.001 A 
ATOM     11  C   UNL     1      10.177   1.763  22.502  0.00  0.00    +0.004 A 
ATOM     12  C   UNL     1      10.212   1.559  23.875  0.00  0.00    +0.046 A 
BRANCH   7  13
ATOM     13  O   UNL     1       9.900   0.189  25.770  0.00  0.00    -0.506 OA
ATOM     14  H   UNL     1       9.270  -0.513  26.019  0.00  0.00    +0.292 HD
ENDBRANCH   7  13
ENDBRANCH   1   8
BRANCH   2  15
ATOM     15  S   UNL     1       6.141  -1.079  24.404  0.00  0.00    +0.028 S 
ATOM     16  O   UNL     1       4.943  -1.684  25.082  0.00  0.00    -0.161 OA
BRANCH  15  17
ATOM     17  O   UNL     1       5.972  -1.364  22.832  0.00  0.00    -0.265 OA
ATOM     18  H   UNL     1       6.847  -1.595  22.448  0.00  0.00    +0.243 HD
ENDBRANCH  15  17
ENDBRANCH   2  15
TORSDOF 4
ENDMDL
MODEL 9
REMARK VINA RESULT:      -5.3      5.795      8.301
REMARK  Name = 
REMARK  4 active torsions:
REMARK  status: ('A' for Active; 'I' for Inactive)
REMARK    1  A    between atoms: O_1  and  C_2
REMARK    2  A    between atoms: C_7  and  C_8
REMARK    3  A    between atoms: C_13  and  S_14
REMARK    4  A    between atoms: S_14  and  O_15
REMARK                            x       y       z     vdW  Elec       q    Type
REMARK                         _______ _______ _______ _____ _____    ______ ____
ROOT
ATOM      1  C   UNL     1       6.776  -4.244  24.316  0.00  0.00    +0.011 A 
ATOM      2  C   UNL     1       6.161  -5.176  23.440  0.00  0.00    +0.104 A 
ATOM      3  C   UNL     1       5.282  -6.162  23.946  0.00  0.00    +0.028 A 
ATOM      4  C   UNL     1       5.021  -6.271  25.311  0.00  0.00    +0.002 A 
ATOM      5  C   UNL     1       5.614  -5.381  26.185  0.00  0.00    +0.001 A 
ATOM      6  C   UNL     1       6.451  -4.377  25.692  0.00  0.00    +0.010 A 
ENDROOT
BRANCH   1   8
ATOM      7  C   UNL     1       9.122  -3.255  24.062  0.00  0.00    +0.125 A 
ATOM      8  C   UNL     1       7.719  -3.148  23.914  0.00  0.00    +0.025 A 
ATOM      9  C   UNL     1       7.258  -1.905  23.441  0.00  0.00    +0.012 A 
ATOM     10  C   UNL     1       8.130  -0.861  23.101  0.00  0.00    +0.001 A 
ATOM     11  C   UNL     1       9.503  -1.008  23.267  0.00  0.00    +0.004 A 
ATOM     12  C   UNL     1       9.999  -2.206  23.763  0.00  0.00    +0.046 A 
BRANCH   7  13
ATOM     13  O   UNL     1       9.684  -4.418  24.523  0.00  0.00    -0.506 OA
ATOM     14  H   UNL     1       9.356  -4.545  25.432  0.00  0.00    +0.292 HD
ENDBRANCH   7  13
ENDBRANCH   1   8
BRANCH   2  15
ATOM     15  S   UNL     1       6.476  -5.205  21.639  0.00  0.00    +0.028 S 
ATOM     16  O   UNL     1       5.758  -4.013  21.070  0.00  0.00    -0.161 OA
BRANCH  15  17
ATOM     17  O   UNL     1       5.522  -6.475  21.397  0.00  0.00    -0.265 OA
ATOM     18  H   UNL     1       4.775  -6.213  20.814  0.00  0.00    +0.243 HD
ENDBRANCH  15  17
ENDBRANCH   2  15
TORSDOF 4
ENDMDL
