MODEL 1
REMARK VINA RESULT:      -7.9      0.000      0.000
REMARK  Name = 
REMARK  8 active torsions:
REMARK  status: ('A' for Active; 'I' for Inactive)
REMARK    1  A    between atoms: C_1  and  N_2
REMARK    2  A    between atoms: C_3  and  C_5
REMARK    3  A    between atoms: C_8  and  C_9
REMARK    4  A    between atoms: C_10  and  N_12
REMARK    5  A    between atoms: C_13  and  C_14
REMARK    6  A    between atoms: C_16  and  O_17
REMARK    7  A    between atoms: O_17  and  C_18
REMARK    8  A    between atoms: C_18  and  C_19
REMARK                            x       y       z     vdW  Elec       q    Type
REMARK                         _______ _______ _______ _____ _____    ______ ____
ROOT
ATOM      1  N   UNL     1       7.245  -3.983  25.028  0.00  0.00    -0.280 N 
ATOM      2  C   UNL     1       6.805  -2.622  25.079  0.00  0.00    +0.274 A 
ATOM      3  O   UNL     1       5.628  -2.260  25.039  0.00  0.00    -0.266 OA
ATOM      4  C   UNL     1       7.855  -1.531  25.081  0.00  0.00    +0.124 A 
ATOM      5 BR   UNL     1       7.320   0.207  25.541  0.00  0.00    -0.041 Br
ATOM      6  C   UNL     1       9.103  -1.822  24.688  0.00  0.00    +0.142 A 
ATOM      7  C   UNL     1       9.475  -3.196  24.545  0.00  0.00    +0.068 A 
ATOM      8  C   UNL     1       8.624  -4.217  24.743  0.00  0.00    +0.028 A 
ATOM      9  C   UNL     1       9.280  -5.573  24.698  0.00  0.00    +0.064 C 
ENDROOT
BRANCH   1  12
ATOM     10  C   UNL     1       4.956  -6.624  26.591  0.00  0.00    +0.039 A 
ATOM     11  C   UNL     1       5.931  -5.630  26.378  0.00  0.00    +0.039 A 
ATOM     12  C   UNL     1       6.223  -5.062  25.113  0.00  0.00    +0.053 A 
ATOM     13  C   UNL     1       5.488  -5.610  24.022  0.00  0.00    -0.026 A 
ATOM     14  C   UNL     1       5.564  -5.205  22.578  0.00  0.00    +0.046 C 
ATOM     15  C   UNL     1       4.585  -6.691  24.238  0.00  0.00    +0.006 A 
ATOM     16  C   UNL     1       4.304  -7.180  25.504  0.00  0.00    +0.013 A 
BRANCH  10  20
ATOM     17  C   UNL     1       2.998  -7.466  29.726  0.00  0.00    +0.128 C 
ATOM     18  N   UNL     1       3.365  -7.037  28.399  0.00  0.00    -0.314 N 
ATOM     19  H   UNL     1       2.685  -6.529  27.847  0.00  0.00    +0.149 HD
ATOM     20  C   UNL     1       4.679  -7.089  27.980  0.00  0.00    +0.244 C 
ATOM     21  O   UNL     1       5.601  -7.447  28.704  0.00  0.00    -0.270 OA
ENDBRANCH  10  20
ENDBRANCH   1  12
BRANCH   6  22
ATOM     22  O   UNL     1      10.077  -0.844  24.514  0.00  0.00    -0.486 OA
BRANCH  22  23
ATOM     23  C   UNL     1      10.333  -0.450  23.155  0.00  0.00    +0.267 C 
BRANCH  23  24
ATOM     24  C   UNL     1       9.592   0.799  22.760  0.00  0.00    +0.025 A 
ATOM     25  C   UNL     1       8.554   0.786  21.821  0.00  0.00    +0.012 A 
ATOM     26  C   UNL     1       7.847   1.958  21.542  0.00  0.00    +0.039 A 
ATOM     27  C   UNL     1       8.170   3.136  22.210  0.00  0.00    +0.126 A 
ATOM     28  F   UNL     1       7.484   4.254  21.941  0.00  0.00    -0.205 F 
ATOM     29  C   UNL     1       9.182   3.169  23.157  0.00  0.00    +0.077 A 
ATOM     30  C   UNL     1       9.877   1.998  23.430  0.00  0.00    +0.132 A 
ATOM     31  F   UNL     1      10.832   2.023  24.371  0.00  0.00    -0.205 F 
ENDBRANCH  23  24
ENDBRANCH  22  23
ENDBRANCH   6  22
TORSDOF 5
ENDMDL
MODEL 2
REMARK VINA RESULT:      -7.9      2.430      3.277
REMARK  Name = 
REMARK  8 active torsions:
REMARK  status: ('A' for Active; 'I' for Inactive)
REMARK    1  A    between atoms: C_1  and  N_2
REMARK    2  A    between atoms: C_3  and  C_5
REMARK    3  A    between atoms: C_8  and  C_9
REMARK    4  A    between atoms: C_10  and  N_12
REMARK    5  A    between atoms: C_13  and  C_14
REMARK    6  A    between atoms: C_16  and  O_17
REMARK    7  A    between atoms: O_17  and  C_18
REMARK    8  A    between atoms: C_18  and  C_19
REMARK                            x       y       z     vdW  Elec       q    Type
REMARK                         _______ _______ _______ _____ _____    ______ ____
ROOT
ATOM      1  N   UNL     1       6.035  -4.465  24.012  0.00  0.00    -0.280 N 
ATOM      2  C   UNL     1       5.750  -3.083  24.256  0.00  0.00    +0.274 A 
ATOM      3  O   UNL     1       4.806  -2.666  24.929  0.00  0.00    -0.266 OA
ATOM      4  C   UNL     1       6.603  -2.044  23.559  0.00  0.00    +0.124 A 
ATOM      5 BR   UNL     1       6.503  -0.271  24.165  0.00  0.00    -0.041 Br
ATOM      6  C   UNL     1       7.337  -2.403  22.498  0.00  0.00    +0.142 A 
ATOM      7  C   UNL     1       7.512  -3.797  22.224  0.00  0.00    +0.068 A 
ATOM      8  C   UNL     1       6.940  -4.771  22.952  0.00  0.00    +0.028 A 
ATOM      9  C   UNL     1       7.399  -6.157  22.579  0.00  0.00    +0.064 C 
ENDROOT
BRANCH   1  12
ATOM     10  C   UNL     1       3.431  -7.191  24.680  0.00  0.00    +0.039 A 
ATOM     11  C   UNL     1       4.208  -6.172  24.093  0.00  0.00    +0.039 A 
ATOM     12  C   UNL     1       5.257  -5.491  24.759  0.00  0.00    +0.053 A 
ATOM     13  C   UNL     1       5.454  -5.869  26.118  0.00  0.00    -0.026 A 
ATOM     14  C   UNL     1       6.491  -5.343  27.069  0.00  0.00    +0.046 C 
ATOM     15  C   UNL     1       4.590  -6.822  26.730  0.00  0.00    +0.006 A 
ATOM     16  C   UNL     1       3.605  -7.492  26.020  0.00  0.00    +0.013 A 
BRANCH  10  20
ATOM     17  C   UNL     1       1.062  -7.889  21.804  0.00  0.00    +0.128 C 
ATOM     18  N   UNL     1       2.045  -7.285  22.670  0.00  0.00    -0.314 N 
ATOM     19  H   UNL     1       2.329  -6.331  22.492  0.00  0.00    +0.149 HD
ATOM     20  C   UNL     1       2.407  -7.893  23.856  0.00  0.00    +0.244 C 
ATOM     21  O   UNL     1       1.895  -8.930  24.261  0.00  0.00    -0.270 OA
ENDBRANCH  10  20
ENDBRANCH   1  12
BRANCH   6  22
ATOM     22  O   UNL     1       8.020  -1.477  21.715  0.00  0.00    -0.486 OA
BRANCH  22  23
ATOM     23  C   UNL     1       9.439  -1.397  21.934  0.00  0.00    +0.267 C 
BRANCH  23  24
ATOM     24  C   UNL     1       9.875  -0.047  22.438  0.00  0.00    +0.025 A 
ATOM     25  C   UNL     1       9.758   1.113  21.664  0.00  0.00    +0.012 A 
ATOM     26  C   UNL     1      10.109   2.353  22.203  0.00  0.00    +0.039 A 
ATOM     27  C   UNL     1      10.563   2.433  23.516  0.00  0.00    +0.126 A 
ATOM     28  F   UNL     1      10.892   3.626  24.027  0.00  0.00    -0.205 F 
ATOM     29  C   UNL     1      10.670   1.300  24.308  0.00  0.00    +0.077 A 
ATOM     30  C   UNL     1      10.316   0.071  23.764  0.00  0.00    +0.132 A 
ATOM     31  F   UNL     1      10.386  -1.019  24.543  0.00  0.00    -0.205 F 
ENDBRANCH  23  24
ENDBRANCH  22  23
ENDBRANCH   6  22
TORSDOF 5
ENDMDL
MODEL 3
REMARK VINA RESULT:      -7.5      4.517      9.594
REMARK  Name = 
REMARK  8 active torsions:
REMARK  status: ('A' for Active; 'I' for Inactive)
REMARK    1  A    between atoms: C_1  and  N_2
REMARK    2  A    between atoms: C_3  and  C_5
REMARK    3  A    between atoms: C_8  and  C_9
REMARK    4  A    between atoms: C_10  and  N_12
REMARK    5  A    between atoms: C_13  and  C_14
REMARK    6  A    between atoms: C_16  and  O_17
REMARK    7  A    between atoms: O_17  and  C_18
REMARK    8  A    between atoms: C_18  and  C_19
REMARK                            x       y       z     vdW  Elec       q    Type
REMARK                         _______ _______ _______ _____ _____    ______ ____
ROOT
ATOM      1  N   UNL     1       7.947   2.280  24.062  0.00  0.00    -0.280 N 
ATOM      2  C   UNL     1       7.547   1.884  25.378  0.00  0.00    +0.274 A 
ATOM      3  O   UNL     1       7.567   2.613  26.370  0.00  0.00    -0.266 OA
ATOM      4  C   UNL     1       7.163   0.436  25.603  0.00  0.00    +0.124 A 
ATOM      5 BR   UNL     1       6.271  -0.002  27.193  0.00  0.00    -0.041 Br
ATOM      6  C   UNL     1       7.532  -0.486  24.704  0.00  0.00    +0.142 A 
ATOM      7  C   UNL     1       8.028  -0.049  23.435  0.00  0.00    +0.068 A 
ATOM      8  C   UNL     1       8.188   1.244  23.109  0.00  0.00    +0.028 A 
ATOM      9  C   UNL     1       8.566   1.466  21.668  0.00  0.00    +0.064 C 
ENDROOT
BRANCH   1  12
ATOM     10  C   UNL     1       9.999   5.476  23.581  0.00  0.00    +0.039 A 
ATOM     11  C   UNL     1       9.592   4.153  23.842  0.00  0.00    +0.039 A 
ATOM     12  C   UNL     1       8.243   3.718  23.814  0.00  0.00    +0.053 A 
ATOM     13  C   UNL     1       7.285   4.739  23.552  0.00  0.00    -0.026 A 
ATOM     14  C   UNL     1       5.795   4.584  23.442  0.00  0.00    +0.046 C 
ATOM     15  C   UNL     1       7.704   6.092  23.399  0.00  0.00    +0.006 A 
ATOM     16  C   UNL     1       9.042   6.458  23.392  0.00  0.00    +0.013 A 
BRANCH  10  20
ATOM     17  C   UNL     1      13.582   5.630  22.351  0.00  0.00    +0.128 C 
ATOM     18  N   UNL     1      12.168   5.364  22.462  0.00  0.00    -0.314 N 
ATOM     19  H   UNL     1      11.747   4.701  21.824  0.00  0.00    +0.149 HD
ATOM     20  C   UNL     1      11.454   5.800  23.559  0.00  0.00    +0.244 C 
ATOM     21  O   UNL     1      11.969   6.383  24.506  0.00  0.00    -0.270 OA
ENDBRANCH  10  20
ENDBRANCH   1  12
BRANCH   6  22
ATOM     22  O   UNL     1       7.353  -1.850  24.919  0.00  0.00    -0.486 OA
BRANCH  22  23
ATOM     23  C   UNL     1       8.242  -2.720  24.196  0.00  0.00    +0.267 C 
BRANCH  23  24
ATOM     24  C   UNL     1       7.517  -3.629  23.239  0.00  0.00    +0.025 A 
ATOM     25  C   UNL     1       6.671  -3.137  22.238  0.00  0.00    +0.012 A 
ATOM     26  C   UNL     1       6.079  -4.016  21.329  0.00  0.00    +0.039 A 
ATOM     27  C   UNL     1       6.343  -5.380  21.413  0.00  0.00    +0.126 A 
ATOM     28  F   UNL     1       5.775  -6.216  20.534  0.00  0.00    -0.205 F 
ATOM     29  C   UNL     1       7.191  -5.888  22.385  0.00  0.00    +0.077 A 
ATOM     30  C   UNL     1       7.778  -5.005  23.283  0.00  0.00    +0.132 A 
ATOM     31  F   UNL     1       8.626  -5.494  24.200  0.00  0.00    -0.205 F 
ENDBRANCH  23  24
ENDBRANCH  22  23
ENDBRANCH   6  22
TORSDOF 5
ENDMDL
MODEL 4
REMARK VINA RESULT:      -7.5      4.120      8.571
REMARK  Name = 
REMARK  8 active torsions:
REMARK  status: ('A' for Active; 'I' for Inactive)
REMARK    1  A    between atoms: C_1  and  N_2
REMARK    2  A    between atoms: C_3  and  C_5
REMARK    3  A    between atoms: C_8  and  C_9
REMARK    4  A    between atoms: C_10  and  N_12
REMARK    5  A    between atoms: C_13  and  C_14
REMARK    6  A    between atoms: C_16  and  O_17
REMARK    7  A    between atoms: O_17  and  C_18
REMARK    8  A    between atoms: C_18  and  C_19
REMARK                            x       y       z     vdW  Elec       q    Type
REMARK                         _______ _______ _______ _____ _____    ______ ____
ROOT
ATOM      1  N   UNL     1       7.649  -2.160  23.662  0.00  0.00    -0.280 N 
ATOM      2  C   UNL     1       7.090  -3.184  22.831  0.00  0.00    +0.274 A 
ATOM      3  O   UNL     1       6.795  -3.044  21.643  0.00  0.00    -0.266 OA
ATOM      4  C   UNL     1       6.735  -4.509  23.471  0.00  0.00    +0.124 A 
ATOM      5 BR   UNL     1       6.381  -5.966  22.343  0.00  0.00    -0.041 Br
ATOM      6  C   UNL     1       6.615  -4.582  24.803  0.00  0.00    +0.142 A 
ATOM      7  C   UNL     1       7.091  -3.490  25.596  0.00  0.00    +0.068 A 
ATOM      8  C   UNL     1       7.615  -2.369  25.073  0.00  0.00    +0.028 A 
ATOM      9  C   UNL     1       8.197  -1.433  26.101  0.00  0.00    +0.064 C 
ENDROOT
BRANCH   1  12
ATOM     10  C   UNL     1       7.458   1.450  22.402  0.00  0.00    +0.039 A 
ATOM     11  C   UNL     1       7.155   0.185  22.943  0.00  0.00    +0.039 A 
ATOM     12  C   UNL     1       8.080  -0.886  23.024  0.00  0.00    +0.053 A 
ATOM     13  C   UNL     1       9.360  -0.621  22.458  0.00  0.00    -0.026 A 
ATOM     14  C   UNL     1      10.543  -1.544  22.410  0.00  0.00    +0.046 C 
ATOM     15  C   UNL     1       9.616   0.626  21.817  0.00  0.00    +0.006 A 
ATOM     16  C   UNL     1       8.689   1.657  21.804  0.00  0.00    +0.013 A 
BRANCH  10  20
ATOM     17  C   UNL     1       4.179   3.195  23.162  0.00  0.00    +0.128 C 
ATOM     18  N   UNL     1       5.237   2.218  23.070  0.00  0.00    -0.314 N 
ATOM     19  H   UNL     1       5.031   1.255  23.303  0.00  0.00    +0.149 HD
ATOM     20  C   UNL     1       6.428   2.526  22.444  0.00  0.00    +0.244 C 
ATOM     21  O   UNL     1       6.640   3.603  21.899  0.00  0.00    -0.270 OA
ENDBRANCH  10  20
ENDBRANCH   1  12
BRANCH   6  22
ATOM     22  O   UNL     1       6.141  -5.721  25.448  0.00  0.00    -0.486 OA
BRANCH  22  23
ATOM     23  C   UNL     1       4.802  -5.635  25.966  0.00  0.00    +0.267 C 
BRANCH  23  24
ATOM     24  C   UNL     1       3.766  -6.115  24.984  0.00  0.00    +0.025 A 
ATOM     25  C   UNL     1       3.354  -7.451  24.927  0.00  0.00    +0.012 A 
ATOM     26  C   UNL     1       2.337  -7.832  24.048  0.00  0.00    +0.039 A 
ATOM     27  C   UNL     1       1.726  -6.878  23.240  0.00  0.00    +0.126 A 
ATOM     28  F   UNL     1       0.749  -7.250  22.405  0.00  0.00    -0.205 F 
ATOM     29  C   UNL     1       2.106  -5.545  23.293  0.00  0.00    +0.077 A 
ATOM     30  C   UNL     1       3.116  -5.175  24.172  0.00  0.00    +0.132 A 
ATOM     31  F   UNL     1       3.457  -3.880  24.247  0.00  0.00    -0.205 F 
ENDBRANCH  23  24
ENDBRANCH  22  23
ENDBRANCH   6  22
TORSDOF 5
ENDMDL
MODEL 5
REMARK VINA RESULT:      -7.5      4.061      9.432
REMARK  Name = 
REMARK  8 active torsions:
REMARK  status: ('A' for Active; 'I' for Inactive)
REMARK    1  A    between atoms: C_1  and  N_2
REMARK    2  A    between atoms: C_3  and  C_5
REMARK    3  A    between atoms: C_8  and  C_9
REMARK    4  A    between atoms: C_10  and  N_12
REMARK    5  A    between atoms: C_13  and  C_14
REMARK    6  A    between atoms: C_16  and  O_17
REMARK    7  A    between atoms: O_17  and  C_18
REMARK    8  A    between atoms: C_18  and  C_19
REMARK                            x       y       z     vdW  Elec       q    Type
REMARK                         _______ _______ _______ _____ _____    ______ ____
ROOT
ATOM      1  N   UNL     1       8.433   1.737  24.453  0.00  0.00    -0.280 N 
ATOM      2  C   UNL     1       8.915   0.758  23.526  0.00  0.00    +0.274 A 
ATOM      3  O   UNL     1       9.258   0.994  22.366  0.00  0.00    -0.266 OA
ATOM      4  C   UNL     1       8.916  -0.694  23.955  0.00  0.00    +0.124 A 
ATOM      5 BR   UNL     1       9.896  -1.917  22.925  0.00  0.00    -0.041 Br
ATOM      6  C   UNL     1       8.167  -1.068  25.001  0.00  0.00    +0.142 A 
ATOM      7  C   UNL     1       7.612  -0.055  25.846  0.00  0.00    +0.068 A 
ATOM      8  C   UNL     1       7.765   1.261  25.621  0.00  0.00    +0.028 A 
ATOM      9  C   UNL     1       7.236   2.132  26.731  0.00  0.00    +0.064 C 
ENDROOT
BRANCH   1  12
ATOM     10  C   UNL     1       9.982   5.142  23.640  0.00  0.00    +0.039 A 
ATOM     11  C   UNL     1       9.778   3.803  24.028  0.00  0.00    +0.039 A 
ATOM     12  C   UNL     1       8.510   3.173  24.071  0.00  0.00    +0.053 A 
ATOM     13  C   UNL     1       7.408   4.014  23.741  0.00  0.00    -0.026 A 
ATOM     14  C   UNL     1       5.957   3.633  23.681  0.00  0.00    +0.046 C 
ATOM     15  C   UNL     1       7.620   5.395  23.458  0.00  0.00    +0.006 A 
ATOM     16  C   UNL     1       8.888   5.951  23.387  0.00  0.00    +0.013 A 
BRANCH  10  20
ATOM     17  C   UNL     1      13.482   5.726  22.304  0.00  0.00    +0.128 C 
ATOM     18  N   UNL     1      12.125   5.265  22.473  0.00  0.00    -0.314 N 
ATOM     19  H   UNL     1      11.796   4.502  21.896  0.00  0.00    +0.149 HD
ATOM     20  C   UNL     1      11.373   5.673  23.556  0.00  0.00    +0.244 C 
ATOM     21  O   UNL     1      11.811   6.394  24.445  0.00  0.00    -0.270 OA
ENDBRANCH  10  20
ENDBRANCH   1  12
BRANCH   6  22
ATOM     22  O   UNL     1       7.994  -2.403  25.355  0.00  0.00    -0.486 OA
BRANCH  22  23
ATOM     23  C   UNL     1       6.683  -2.948  25.124  0.00  0.00    +0.267 C 
BRANCH  23  24
ATOM     24  C   UNL     1       6.595  -3.729  23.841  0.00  0.00    +0.025 A 
ATOM     25  C   UNL     1       6.786  -5.115  23.796  0.00  0.00    +0.012 A 
ATOM     26  C   UNL     1       6.622  -5.806  22.593  0.00  0.00    +0.039 A 
ATOM     27  C   UNL     1       6.254  -5.114  21.443  0.00  0.00    +0.126 A 
ATOM     28  F   UNL     1       6.093  -5.784  20.295  0.00  0.00    -0.205 F 
ATOM     29  C   UNL     1       6.041  -3.745  21.467  0.00  0.00    +0.077 A 
ATOM     30  C   UNL     1       6.205  -3.066  22.669  0.00  0.00    +0.132 A 
ATOM     31  F   UNL     1       5.964  -1.747  22.698  0.00  0.00    -0.205 F 
ENDBRANCH  23  24
ENDBRANCH  22  23
ENDBRANCH   6  22
TORSDOF 5
ENDMDL
MODEL 6
REMARK VINA RESULT:      -7.4      2.727      3.964
REMARK  Name = 
REMARK  8 active torsions:
REMARK  status: ('A' for Active; 'I' for Inactive)
REMARK    1  A    between atoms: C_1  and  N_2
REMARK    2  A    between atoms: C_3  and  C_5
REMARK    3  A    between atoms: C_8  and  C_9
REMARK    4  A    between atoms: C_10  and  N_12
REMARK    5  A    between atoms: C_13  and  C_14
REMARK    6  A    between atoms: C_16  and  O_17
REMARK    7  A    between atoms: O_17  and  C_18
REMARK    8  A    between atoms: C_18  and  C_19
REMARK                            x       y       z     vdW  Elec       q    Type
REMARK                         _______ _______ _______ _____ _____    ______ ____
ROOT
ATOM      1  N   UNL     1       6.777  -2.006  24.401  0.00  0.00    -0.280 N 
ATOM      2  C   UNL     1       7.844  -1.813  23.466  0.00  0.00    +0.274 A 
ATOM      3  O   UNL     1       8.616  -2.695  23.086  0.00  0.00    -0.266 OA
ATOM      4  C   UNL     1       8.120  -0.407  22.975  0.00  0.00    +0.124 A 
ATOM      5 BR   UNL     1       9.230  -0.198  21.478  0.00  0.00    -0.041 Br
ATOM      6  C   UNL     1       7.629   0.633  23.661  0.00  0.00    +0.142 A 
ATOM      7  C   UNL     1       6.638   0.389  24.664  0.00  0.00    +0.068 A 
ATOM      8  C   UNL     1       6.202  -0.839  24.990  0.00  0.00    +0.028 A 
ATOM      9  C   UNL     1       5.043  -0.838  25.952  0.00  0.00    +0.064 C 
ENDROOT
BRANCH   1  12
ATOM     10  C   UNL     1       4.914  -5.347  24.550  0.00  0.00    +0.039 A 
ATOM     11  C   UNL     1       5.304  -4.024  24.264  0.00  0.00    +0.039 A 
ATOM     12  C   UNL     1       6.445  -3.395  24.822  0.00  0.00    +0.053 A 
ATOM     13  C   UNL     1       7.169  -4.183  25.762  0.00  0.00    -0.026 A 
ATOM     14  C   UNL     1       8.420  -3.800  26.500  0.00  0.00    +0.046 C 
ATOM     15  C   UNL     1       6.698  -5.479  26.123  0.00  0.00    +0.006 A 
ATOM     16  C   UNL     1       5.600  -6.065  25.514  0.00  0.00    +0.013 A 
BRANCH  10  20
ATOM     17  C   UNL     1       2.116  -7.764  23.714  0.00  0.00    +0.128 C 
ATOM     18  N   UNL     1       3.250  -7.122  24.333  0.00  0.00    -0.314 N 
ATOM     19  H   UNL     1       3.792  -7.642  25.011  0.00  0.00    +0.149 HD
ATOM     20  C   UNL     1       3.740  -5.930  23.840  0.00  0.00    +0.244 C 
ATOM     21  O   UNL     1       3.287  -5.379  22.844  0.00  0.00    -0.270 OA
ENDBRANCH  10  20
ENDBRANCH   1  12
BRANCH   6  22
ATOM     22  O   UNL     1       7.969   1.949  23.363  0.00  0.00    -0.486 OA
BRANCH  22  23
ATOM     23  C   UNL     1       8.423   2.745  24.472  0.00  0.00    +0.267 C 
BRANCH  23  24
ATOM     24  C   UNL     1       9.513   3.711  24.088  0.00  0.00    +0.025 A 
ATOM     25  C   UNL     1       9.383   5.093  24.268  0.00  0.00    +0.012 A 
ATOM     26  C   UNL     1      10.450   5.941  23.965  0.00  0.00    +0.039 A 
ATOM     27  C   UNL     1      11.647   5.407  23.496  0.00  0.00    +0.126 A 
ATOM     28  F   UNL     1      12.668   6.226  23.213  0.00  0.00    -0.205 F 
ATOM     29  C   UNL     1      11.805   4.040  23.328  0.00  0.00    +0.077 A 
ATOM     30  C   UNL     1      10.739   3.204  23.635  0.00  0.00    +0.132 A 
ATOM     31  F   UNL     1      10.905   1.879  23.505  0.00  0.00    -0.205 F 
ENDBRANCH  23  24
ENDBRANCH  22  23
ENDBRANCH   6  22
TORSDOF 5
ENDMDL
MODEL 7
REMARK VINA RESULT:      -7.4      2.614      3.647
REMARK  Name = 
REMARK  8 active torsions:
REMARK  status: ('A' for Active; 'I' for Inactive)
REMARK    1  A    between atoms: C_1  and  N_2
REMARK    2  A    between atoms: C_3  and  C_5
REMARK    3  A    between atoms: C_8  and  C_9
REMARK    4  A    between atoms: C_10  and  N_12
REMARK    5  A    between atoms: C_13  and  C_14
REMARK    6  A    between atoms: C_16  and  O_17
REMARK    7  A    between atoms: O_17  and  C_18
REMARK    8  A    between atoms: C_18  and  C_19
REMARK                            x       y       z     vdW  Elec       q    Type
REMARK                         _______ _______ _______ _____ _____    ______ ____
ROOT
ATOM      1  N   UNL     1       5.776  -4.885  25.353  0.00  0.00    -0.280 N 
ATOM      2  C   UNL     1       7.069  -5.159  25.903  0.00  0.00    +0.274 A 
ATOM      3  O   UNL     1       7.272  -5.729  26.977  0.00  0.00    -0.266 OA
ATOM      4  C   UNL     1       8.284  -4.627  25.173  0.00  0.00    +0.124 A 
ATOM      5 BR   UNL     1       9.967  -5.303  25.653  0.00  0.00    -0.041 Br
ATOM      6  C   UNL     1       8.129  -3.650  24.270  0.00  0.00    +0.142 A 
ATOM      7  C   UNL     1       6.808  -3.332  23.822  0.00  0.00    +0.068 A 
ATOM      8  C   UNL     1       5.702  -3.933  24.292  0.00  0.00    +0.028 A 
ATOM      9  C   UNL     1       4.443  -3.554  23.556  0.00  0.00    +0.064 C 
ENDROOT
BRANCH   1  12
ATOM     10  C   UNL     1       2.808  -7.231  25.943  0.00  0.00    +0.039 A 
ATOM     11  C   UNL     1       3.918  -6.561  25.392  0.00  0.00    +0.039 A 
ATOM     12  C   UNL     1       4.583  -5.478  26.018  0.00  0.00    +0.053 A 
ATOM     13  C   UNL     1       4.012  -5.053  27.252  0.00  0.00    -0.026 A 
ATOM     14  C   UNL     1       4.499  -3.952  28.150  0.00  0.00    +0.046 C 
ATOM     15  C   UNL     1       2.824  -5.669  27.742  0.00  0.00    +0.006 A 
ATOM     16  C   UNL     1       2.238  -6.755  27.111  0.00  0.00    +0.013 A 
BRANCH  10  20
ATOM     17  C   UNL     1       0.936 -10.482  25.395  0.00  0.00    +0.128 C 
ATOM     18  N   UNL     1       1.523  -9.309  25.995  0.00  0.00    -0.314 N 
ATOM     19  H   UNL     1       1.562  -9.246  27.004  0.00  0.00    +0.149 HD
ATOM     20  C   UNL     1       2.241  -8.411  25.230  0.00  0.00    +0.244 C 
ATOM     21  O   UNL     1       2.460  -8.573  24.035  0.00  0.00    -0.270 OA
ENDBRANCH  10  20
ENDBRANCH   1  12
BRANCH   6  22
ATOM     22  O   UNL     1       9.210  -3.005  23.676  0.00  0.00    -0.486 OA
BRANCH  22  23
ATOM     23  C   UNL     1       8.883  -2.034  22.667  0.00  0.00    +0.267 C 
BRANCH  23  24
ATOM     24  C   UNL     1       9.396  -0.658  22.994  0.00  0.00    +0.025 A 
ATOM     25  C   UNL     1       9.795  -0.298  24.287  0.00  0.00    +0.012 A 
ATOM     26  C   UNL     1      10.334   0.969  24.525  0.00  0.00    +0.039 A 
ATOM     27  C   UNL     1      10.484   1.867  23.473  0.00  0.00    +0.126 A 
ATOM     28  F   UNL     1      11.006   3.077  23.709  0.00  0.00    -0.205 F 
ATOM     29  C   UNL     1      10.113   1.526  22.181  0.00  0.00    +0.077 A 
ATOM     30  C   UNL     1       9.581   0.263  21.953  0.00  0.00    +0.132 A 
ATOM     31  F   UNL     1       9.255  -0.078  20.697  0.00  0.00    -0.205 F 
ENDBRANCH  23  24
ENDBRANCH  22  23
ENDBRANCH   6  22
TORSDOF 5
ENDMDL
MODEL 8
REMARK VINA RESULT:      -7.4      4.083      9.252
REMARK  Name = 
REMARK  8 active torsions:
REMARK  status: ('A' for Active; 'I' for Inactive)
REMARK    1  A    between atoms: C_1  and  N_2
REMARK    2  A    between atoms: C_3  and  C_5
REMARK    3  A    between atoms: C_8  and  C_9
REMARK    4  A    between atoms: C_10  and  N_12
REMARK    5  A    between atoms: C_13  and  C_14
REMARK    6  A    between atoms: C_16  and  O_17
REMARK    7  A    between atoms: O_17  and  C_18
REMARK    8  A    between atoms: C_18  and  C_19
REMARK                            x       y       z     vdW  Elec       q    Type
REMARK                         _______ _______ _______ _____ _____    ______ ____
ROOT
ATOM      1  N   UNL     1       8.044   0.076  23.466  0.00  0.00    -0.280 N 
ATOM      2  C   UNL     1       7.137  -0.345  24.491  0.00  0.00    +0.274 A 
ATOM      3  O   UNL     1       6.938   0.258  25.547  0.00  0.00    -0.266 OA
ATOM      4  C   UNL     1       6.438  -1.677  24.324  0.00  0.00    +0.124 A 
ATOM      5 BR   UNL     1       4.975  -2.052  25.437  0.00  0.00    -0.041 Br
ATOM      6  C   UNL     1       6.924  -2.566  23.447  0.00  0.00    +0.142 A 
ATOM      7  C   UNL     1       7.910  -2.133  22.505  0.00  0.00    +0.068 A 
ATOM      8  C   UNL     1       8.411  -0.887  22.479  0.00  0.00    +0.028 A 
ATOM      9  C   UNL     1       9.310  -0.617  21.300  0.00  0.00    +0.064 C 
ENDROOT
BRANCH   1  12
ATOM     10  C   UNL     1       8.366   3.889  23.354  0.00  0.00    +0.039 A 
ATOM     11  C   UNL     1       7.900   2.564  23.244  0.00  0.00    +0.039 A 
ATOM     12  C   UNL     1       8.669   1.423  23.582  0.00  0.00    +0.053 A 
ATOM     13  C   UNL     1      10.003   1.696  24.000  0.00  0.00    -0.026 A 
ATOM     14  C   UNL     1      11.042   0.703  24.436  0.00  0.00    +0.046 C 
ATOM     15  C   UNL     1      10.494   3.034  24.001  0.00  0.00    +0.006 A 
ATOM     16  C   UNL     1       9.685   4.120  23.703  0.00  0.00    +0.013 A 
BRANCH  10  20
ATOM     17  C   UNL     1       6.911   6.899  21.567  0.00  0.00    +0.128 C 
ATOM     18  N   UNL     1       7.748   5.787  21.944  0.00  0.00    -0.314 N 
ATOM     19  H   UNL     1       8.656   5.693  21.509  0.00  0.00    +0.149 HD
ATOM     20  C   UNL     1       7.439   5.015  23.047  0.00  0.00    +0.244 C 
ATOM     21  O   UNL     1       6.486   5.247  23.782  0.00  0.00    -0.270 OA
ENDBRANCH  10  20
ENDBRANCH   1  12
BRANCH   6  22
ATOM     22  O   UNL     1       6.432  -3.865  23.352  0.00  0.00    -0.486 OA
BRANCH  22  23
ATOM     23  C   UNL     1       7.238  -4.886  23.965  0.00  0.00    +0.267 C 
BRANCH  23  24
ATOM     24  C   UNL     1       6.642  -5.409  25.244  0.00  0.00    +0.025 A 
ATOM     25  C   UNL     1       7.162  -5.078  26.501  0.00  0.00    +0.012 A 
ATOM     26  C   UNL     1       6.530  -5.529  27.661  0.00  0.00    +0.039 A 
ATOM     27  C   UNL     1       5.374  -6.298  27.565  0.00  0.00    +0.126 A 
ATOM     28  F   UNL     1       4.770  -6.722  28.683  0.00  0.00    -0.205 F 
ATOM     29  C   UNL     1       4.830  -6.623  26.332  0.00  0.00    +0.077 A 
ATOM     30  C   UNL     1       5.464  -6.168  25.183  0.00  0.00    +0.132 A 
ATOM     31  F   UNL     1       4.917  -6.454  23.992  0.00  0.00    -0.205 F 
ENDBRANCH  23  24
ENDBRANCH  22  23
ENDBRANCH   6  22
TORSDOF 5
ENDMDL
MODEL 9
REMARK VINA RESULT:      -7.3      3.898      9.141
REMARK  Name = 
REMARK  8 active torsions:
REMARK  status: ('A' for Active; 'I' for Inactive)
REMARK    1  A    between atoms: C_1  and  N_2
REMARK    2  A    between atoms: C_3  and  C_5
REMARK    3  A    between atoms: C_8  and  C_9
REMARK    4  A    between atoms: C_10  and  N_12
REMARK    5  A    between atoms: C_13  and  C_14
REMARK    6  A    between atoms: C_16  and  O_17
REMARK    7  A    between atoms: O_17  and  C_18
REMARK    8  A    between atoms: C_18  and  C_19
REMARK                            x       y       z     vdW  Elec       q    Type
REMARK                         _______ _______ _______ _____ _____    ______ ____
ROOT
ATOM      1  N   UNL     1       8.281   0.977  23.672  0.00  0.00    -0.280 N 
ATOM      2  C   UNL     1       8.003   0.337  24.923  0.00  0.00    +0.274 A 
ATOM      3  O   UNL     1       7.874   0.921  25.999  0.00  0.00    -0.266 OA
ATOM      4  C   UNL     1       7.963  -1.176  24.958  0.00  0.00    +0.124 A 
ATOM      5 BR   UNL     1       7.221  -2.003  26.470  0.00  0.00    -0.041 Br
ATOM      6  C   UNL     1       8.517  -1.870  23.955  0.00  0.00    +0.142 A 
ATOM      7  C   UNL     1       8.879  -1.175  22.758  0.00  0.00    +0.068 A 
ATOM      8  C   UNL     1       8.735   0.151  22.599  0.00  0.00    +0.028 A 
ATOM      9  C   UNL     1       9.028   0.633  21.202  0.00  0.00    +0.064 C 
ENDROOT
BRANCH   1  12
ATOM     10  C   UNL     1       9.541   4.592  23.659  0.00  0.00    +0.039 A 
ATOM     11  C   UNL     1       9.449   3.189  23.742  0.00  0.00    +0.039 A 
ATOM     12  C   UNL     1       8.238   2.463  23.611  0.00  0.00    +0.053 A 
ATOM     13  C   UNL     1       7.072   3.263  23.440  0.00  0.00    -0.026 A 
ATOM     14  C   UNL     1       5.659   2.786  23.257  0.00  0.00    +0.046 C 
ATOM     15  C   UNL     1       7.167   4.685  23.468  0.00  0.00    +0.006 A 
ATOM     16  C   UNL     1       8.384   5.344  23.555  0.00  0.00    +0.013 A 
BRANCH  10  20
ATOM     17  C   UNL     1      13.231   5.190  23.028  0.00  0.00    +0.128 C 
ATOM     18  N   UNL     1      11.899   4.636  23.020  0.00  0.00    -0.314 N 
ATOM     19  H   UNL     1      11.760   3.707  22.643  0.00  0.00    +0.149 HD
ATOM     20  C   UNL     1      10.881   5.240  23.731  0.00  0.00    +0.244 C 
ATOM     21  O   UNL     1      11.049   6.230  24.433  0.00  0.00    -0.270 OA
ENDBRANCH  10  20
ENDBRANCH   1  12
BRANCH   6  22
ATOM     22  O   UNL     1       8.656  -3.254  23.993  0.00  0.00    -0.486 OA
BRANCH  22  23
ATOM     23  C   UNL     1       7.844  -3.991  23.063  0.00  0.00    +0.267 C 
BRANCH  23  24
ATOM     24  C   UNL     1       6.522  -4.410  23.648  0.00  0.00    +0.025 A 
ATOM     25  C   UNL     1       6.429  -5.315  24.713  0.00  0.00    +0.012 A 
ATOM     26  C   UNL     1       5.184  -5.616  25.269  0.00  0.00    +0.039 A 
ATOM     27  C   UNL     1       4.038  -5.004  24.771  0.00  0.00    +0.126 A 
ATOM     28  F   UNL     1       2.848  -5.294  25.313  0.00  0.00    -0.205 F 
ATOM     29  C   UNL     1       4.107  -4.092  23.729  0.00  0.00    +0.077 A 
ATOM     30  C   UNL     1       5.350  -3.796  23.184  0.00  0.00    +0.132 A 
ATOM     31  F   UNL     1       5.419  -2.887  22.200  0.00  0.00    -0.205 F 
ENDBRANCH  23  24
ENDBRANCH  22  23
ENDBRANCH   6  22
TORSDOF 5
ENDMDL
