MODEL 1
REMARK VINA RESULT:      -5.9      0.000      0.000
REMARK  Name = 
REMARK  5 active torsions:
REMARK  status: ('A' for Active; 'I' for Inactive)
REMARK    1  A    between atoms: C_1  and  N_2
REMARK    2  A    between atoms: N_2  and  C_3
REMARK    3  A    between atoms: N_2  and  C_4
REMARK    4  A    between atoms: C_9  and  S_14
REMARK    5  A    between atoms: S_14  and  O_15
REMARK                            x       y       z     vdW  Elec       q    Type
REMARK                         _______ _______ _______ _____ _____    ______ ____
ROOT
ATOM      1  C   UNL     1       8.541  -2.724  25.231  0.00  0.00    +0.037 A 
ATOM      2  C   UNL     1       8.446  -2.032  26.464  0.00  0.00    +0.024 A 
ATOM      3  C   UNL     1       8.715  -0.683  26.601  0.00  0.00    +0.002 A 
ATOM      4  C   UNL     1       9.069   0.054  25.488  0.00  0.00    +0.010 A 
ATOM      5  C   UNL     1       9.119  -0.514  24.198  0.00  0.00    +0.011 A 
ATOM      6  C   UNL     1       9.433   0.269  23.045  0.00  0.00    +0.125 A 
ATOM      7  C   UNL     1       9.449  -0.276  21.759  0.00  0.00    +0.030 A 
ATOM      8  C   UNL     1       9.175  -1.615  21.596  0.00  0.00    +0.003 A 
ATOM      9  C   UNL     1       8.893  -2.404  22.715  0.00  0.00    +0.010 A 
ATOM     10  C   UNL     1       8.837  -1.920  24.053  0.00  0.00    +0.005 A 
ENDROOT
BRANCH   1  12
ATOM     11  C   UNL     1       9.512  -4.982  25.386  0.00  0.00    +0.129 C 
ATOM     12  N   UNL     1       8.329  -4.115  25.283  0.00  0.00    -0.336 N 
ATOM     13  C   UNL     1       7.123  -4.809  24.863  0.00  0.00    +0.129 C 
ENDBRANCH   1  12
BRANCH   6  14
ATOM     14  S   UNL     1       9.867   2.000  23.160  0.00  0.00    +0.110 S 
ATOM     15  O   UNL     1      11.043   2.131  23.990  0.00  0.00    -0.142 OA
ATOM     16  O   UNL     1       8.663   2.755  23.434  0.00  0.00    -0.142 OA
BRANCH  14  17
ATOM     17  O   UNL     1      10.252   2.411  21.646  0.00  0.00    -0.250 OA
ATOM     18  H   UNL     1       9.986   1.669  21.063  0.00  0.00    +0.245 HD
ENDBRANCH  14  17
ENDBRANCH   6  14
TORSDOF 3
ENDMDL
MODEL 2
REMARK VINA RESULT:      -5.8      4.028      5.853
REMARK  Name = 
REMARK  5 active torsions:
REMARK  status: ('A' for Active; 'I' for Inactive)
REMARK    1  A    between atoms: C_1  and  N_2
REMARK    2  A    between atoms: N_2  and  C_3
REMARK    3  A    between atoms: N_2  and  C_4
REMARK    4  A    between atoms: C_9  and  S_14
REMARK    5  A    between atoms: S_14  and  O_15
REMARK                            x       y       z     vdW  Elec       q    Type
REMARK                         _______ _______ _______ _____ _____    ______ ____
ROOT
ATOM      1  C   UNL     1       9.310   0.552  23.275  0.00  0.00    +0.037 A 
ATOM      2  C   UNL     1       9.547  -0.064  22.021  0.00  0.00    +0.024 A 
ATOM      3  C   UNL     1       9.606  -1.435  21.846  0.00  0.00    +0.002 A 
ATOM      4  C   UNL     1       9.398  -2.266  22.930  0.00  0.00    +0.010 A 
ATOM      5  C   UNL     1       9.076  -1.762  24.209  0.00  0.00    +0.011 A 
ATOM      6  C   UNL     1       8.810  -2.632  25.311  0.00  0.00    +0.125 A 
ATOM      7  C   UNL     1       8.455  -2.145  26.571  0.00  0.00    +0.030 A 
ATOM      8  C   UNL     1       8.381  -0.784  26.767  0.00  0.00    +0.003 A 
ATOM      9  C   UNL     1       8.666   0.083  25.708  0.00  0.00    +0.010 A 
ATOM     10  C   UNL     1       9.014  -0.335  24.391  0.00  0.00    +0.005 A 
ENDROOT
BRANCH   1  12
ATOM     11  C   UNL     1       8.263   2.706  22.701  0.00  0.00    +0.129 C 
ATOM     12  N   UNL     1       9.380   1.959  23.297  0.00  0.00    -0.336 N 
ATOM     13  C   UNL     1      10.584   2.748  23.489  0.00  0.00    +0.129 C 
ENDBRANCH   1  12
BRANCH   6  14
ATOM     14  S   UNL     1       8.943  -4.410  25.175  0.00  0.00    +0.110 S 
ATOM     15  O   UNL     1      10.275  -4.743  24.724  0.00  0.00    -0.142 OA
ATOM     16  O   UNL     1       7.768  -4.905  24.489  0.00  0.00    -0.142 OA
BRANCH  14  17
ATOM     17  O   UNL     1       8.763  -4.935  26.691  0.00  0.00    -0.250 OA
ATOM     18  H   UNL     1       7.859  -5.307  26.769  0.00  0.00    +0.245 HD
ENDBRANCH  14  17
ENDBRANCH   6  14
TORSDOF 3
ENDMDL
MODEL 3
REMARK VINA RESULT:      -5.7      6.028      7.637
REMARK  Name = 
REMARK  5 active torsions:
REMARK  status: ('A' for Active; 'I' for Inactive)
REMARK    1  A    between atoms: C_1  and  N_2
REMARK    2  A    between atoms: N_2  and  C_3
REMARK    3  A    between atoms: N_2  and  C_4
REMARK    4  A    between atoms: C_9  and  S_14
REMARK    5  A    between atoms: S_14  and  O_15
REMARK                            x       y       z     vdW  Elec       q    Type
REMARK                         _______ _______ _______ _____ _____    ______ ____
ROOT
ATOM      1  C   UNL     1       7.260  -4.903  24.104  0.00  0.00    +0.037 A 
ATOM      2  C   UNL     1       8.490  -4.562  24.720  0.00  0.00    +0.024 A 
ATOM      3  C   UNL     1       8.730  -4.715  26.074  0.00  0.00    +0.002 A 
ATOM      4  C   UNL     1       7.745  -5.253  26.880  0.00  0.00    +0.010 A 
ATOM      5  C   UNL     1       6.512  -5.700  26.360  0.00  0.00    +0.011 A 
ATOM      6  C   UNL     1       5.522  -6.304  27.194  0.00  0.00    +0.125 A 
ATOM      7  C   UNL     1       4.313  -6.783  26.683  0.00  0.00    +0.030 A 
ATOM      8  C   UNL     1       4.056  -6.650  25.337  0.00  0.00    +0.003 A 
ATOM      9  C   UNL     1       5.001  -6.036  24.510  0.00  0.00    +0.010 A 
ATOM     10  C   UNL     1       6.262  -5.542  24.950  0.00  0.00    +0.005 A 
ENDROOT
BRANCH   1  12
ATOM     11  C   UNL     1       6.655  -3.253  22.378  0.00  0.00    +0.129 C 
ATOM     12  N   UNL     1       7.146  -4.593  22.735  0.00  0.00    -0.336 N 
ATOM     13  C   UNL     1       7.088  -5.553  21.646  0.00  0.00    +0.129 C 
ENDBRANCH   1  12
BRANCH   6  14
ATOM     14  S   UNL     1       5.734  -6.463  28.962  0.00  0.00    +0.110 S 
ATOM     15  O   UNL     1       5.805  -5.141  29.543  0.00  0.00    -0.142 OA
ATOM     16  O   UNL     1       6.762  -7.452  29.211  0.00  0.00    -0.142 OA
BRANCH  14  17
ATOM     17  O   UNL     1       4.374  -7.175  29.460  0.00  0.00    -0.250 OA
ATOM     18  H   UNL     1       4.623  -7.862  30.114  0.00  0.00    +0.245 HD
ENDBRANCH  14  17
ENDBRANCH   6  14
TORSDOF 3
ENDMDL
MODEL 4
REMARK VINA RESULT:      -5.3      5.337      6.440
REMARK  Name = 
REMARK  5 active torsions:
REMARK  status: ('A' for Active; 'I' for Inactive)
REMARK    1  A    between atoms: C_1  and  N_2
REMARK    2  A    between atoms: N_2  and  C_3
REMARK    3  A    between atoms: N_2  and  C_4
REMARK    4  A    between atoms: C_9  and  S_14
REMARK    5  A    between atoms: S_14  and  O_15
REMARK                            x       y       z     vdW  Elec       q    Type
REMARK                         _______ _______ _______ _____ _____    ______ ____
ROOT
ATOM      1  C   UNL     1       8.037  -2.273  24.096  0.00  0.00    +0.037 A 
ATOM      2  C   UNL     1       7.871  -1.930  25.461  0.00  0.00    +0.024 A 
ATOM      3  C   UNL     1       7.045  -2.626  26.324  0.00  0.00    +0.002 A 
ATOM      4  C   UNL     1       6.359  -3.733  25.861  0.00  0.00    +0.010 A 
ATOM      5  C   UNL     1       6.510  -4.210  24.543  0.00  0.00    +0.011 A 
ATOM      6  C   UNL     1       5.837  -5.387  24.090  0.00  0.00    +0.125 A 
ATOM      7  C   UNL     1       6.008  -5.888  22.797  0.00  0.00    +0.030 A 
ATOM      8  C   UNL     1       6.833  -5.218  21.923  0.00  0.00    +0.003 A 
ATOM      9  C   UNL     1       7.477  -4.049  22.338  0.00  0.00    +0.010 A 
ATOM     10  C   UNL     1       7.371  -3.486  23.643  0.00  0.00    +0.005 A 
ENDROOT
BRANCH   1  12
ATOM     11  C   UNL     1       8.162  -0.315  22.607  0.00  0.00    +0.129 C 
ATOM     12  N   UNL     1       8.838  -1.402  23.331  0.00  0.00    -0.336 N 
ATOM     13  C   UNL     1      10.186  -1.675  22.864  0.00  0.00    +0.129 C 
ENDBRANCH   1  12
BRANCH   6  14
ATOM     14  S   UNL     1       4.696  -6.290  25.128  0.00  0.00    +0.110 S 
ATOM     15  O   UNL     1       3.497  -5.501  25.299  0.00  0.00    -0.142 OA
ATOM     16  O   UNL     1       5.426  -6.808  26.266  0.00  0.00    -0.142 OA
BRANCH  14  17
ATOM     17  O   UNL     1       4.332  -7.604  24.264  0.00  0.00    -0.250 OA
ATOM     18  H   UNL     1       4.444  -7.375  23.317  0.00  0.00    +0.245 HD
ENDBRANCH  14  17
ENDBRANCH   6  14
TORSDOF 3
ENDMDL
MODEL 5
REMARK VINA RESULT:      -5.3      4.605      5.733
REMARK  Name = 
REMARK  5 active torsions:
REMARK  status: ('A' for Active; 'I' for Inactive)
REMARK    1  A    between atoms: C_1  and  N_2
REMARK    2  A    between atoms: N_2  and  C_3
REMARK    3  A    between atoms: N_2  and  C_4
REMARK    4  A    between atoms: C_9  and  S_14
REMARK    5  A    between atoms: S_14  and  O_15
REMARK                            x       y       z     vdW  Elec       q    Type
REMARK                         _______ _______ _______ _____ _____    ______ ____
ROOT
ATOM      1  C   UNL     1       8.567  -0.952  23.984  0.00  0.00    +0.037 A 
ATOM      2  C   UNL     1       8.938  -0.447  25.256  0.00  0.00    +0.024 A 
ATOM      3  C   UNL     1       8.703  -1.123  26.439  0.00  0.00    +0.002 A 
ATOM      4  C   UNL     1       8.102  -2.366  26.403  0.00  0.00    +0.010 A 
ATOM      5  C   UNL     1       7.762  -2.998  25.188  0.00  0.00    +0.011 A 
ATOM      6  C   UNL     1       7.190  -4.307  25.159  0.00  0.00    +0.125 A 
ATOM      7  C   UNL     1       6.883  -4.956  23.961  0.00  0.00    +0.030 A 
ATOM      8  C   UNL     1       7.117  -4.308  22.769  0.00  0.00    +0.003 A 
ATOM      9  C   UNL     1       7.649  -3.015  22.778  0.00  0.00    +0.010 A 
ATOM     10  C   UNL     1       8.007  -2.296  23.954  0.00  0.00    +0.005 A 
ENDROOT
BRANCH   1  12
ATOM     11  C   UNL     1       7.686   0.787  22.479  0.00  0.00    +0.129 C 
ATOM     12  N   UNL     1       8.789  -0.095  22.888  0.00  0.00    -0.336 N 
ATOM     13  C   UNL     1       9.827  -0.250  21.884  0.00  0.00    +0.129 C 
ENDBRANCH   1  12
BRANCH   6  14
ATOM     14  S   UNL     1       6.789  -5.204  26.652  0.00  0.00    +0.110 S 
ATOM     15  O   UNL     1       6.029  -6.382  26.298  0.00  0.00    -0.142 OA
ATOM     16  O   UNL     1       6.301  -4.259  27.635  0.00  0.00    -0.142 OA
BRANCH  14  17
ATOM     17  O   UNL     1       8.223  -5.668  27.232  0.00  0.00    -0.250 OA
ATOM     18  H   UNL     1       8.647  -4.879  27.632  0.00  0.00    +0.245 HD
ENDBRANCH  14  17
ENDBRANCH   6  14
TORSDOF 3
ENDMDL
MODEL 6
REMARK VINA RESULT:      -5.3      4.601      5.701
REMARK  Name = 
REMARK  5 active torsions:
REMARK  status: ('A' for Active; 'I' for Inactive)
REMARK    1  A    between atoms: C_1  and  N_2
REMARK    2  A    between atoms: N_2  and  C_3
REMARK    3  A    between atoms: N_2  and  C_4
REMARK    4  A    between atoms: C_9  and  S_14
REMARK    5  A    between atoms: S_14  and  O_15
REMARK                            x       y       z     vdW  Elec       q    Type
REMARK                         _______ _______ _______ _____ _____    ______ ____
ROOT
ATOM      1  C   UNL     1       8.342  -1.282  24.642  0.00  0.00    +0.037 A 
ATOM      2  C   UNL     1       7.405  -0.400  24.048  0.00  0.00    +0.024 A 
ATOM      3  C   UNL     1       6.418  -0.816  23.173  0.00  0.00    +0.002 A 
ATOM      4  C   UNL     1       6.303  -2.159  22.870  0.00  0.00    +0.010 A 
ATOM      5  C   UNL     1       7.132  -3.134  23.463  0.00  0.00    +0.011 A 
ATOM      6  C   UNL     1       6.969  -4.526  23.184  0.00  0.00    +0.125 A 
ATOM      7  C   UNL     1       7.760  -5.503  23.794  0.00  0.00    +0.030 A 
ATOM      8  C   UNL     1       8.743  -5.113  24.676  0.00  0.00    +0.003 A 
ATOM      9  C   UNL     1       8.936  -3.754  24.940  0.00  0.00    +0.010 A 
ATOM     10  C   UNL     1       8.159  -2.702  24.376  0.00  0.00    +0.005 A 
ENDROOT
BRANCH   1  12
ATOM     11  C   UNL     1       9.100  -0.584  26.879  0.00  0.00    +0.129 C 
ATOM     12  N   UNL     1       9.342  -0.684  25.432  0.00  0.00    -0.336 N 
ATOM     13  C   UNL     1      10.402   0.184  24.949  0.00  0.00    +0.129 C 
ENDBRANCH   1  12
BRANCH   6  14
ATOM     14  S   UNL     1       5.766  -5.126  22.005  0.00  0.00    +0.110 S 
ATOM     15  O   UNL     1       6.056  -4.553  20.711  0.00  0.00    -0.142 OA
ATOM     16  O   UNL     1       4.450  -5.018  22.601  0.00  0.00    -0.142 OA
BRANCH  14  17
ATOM     17  O   UNL     1       6.037  -6.717  21.941  0.00  0.00    -0.250 OA
ATOM     18  H   UNL     1       6.557  -6.960  22.736  0.00  0.00    +0.245 HD
ENDBRANCH  14  17
ENDBRANCH   6  14
TORSDOF 3
ENDMDL
MODEL 7
REMARK VINA RESULT:      -5.3      2.670      3.530
REMARK  Name = 
REMARK  5 active torsions:
REMARK  status: ('A' for Active; 'I' for Inactive)
REMARK    1  A    between atoms: C_1  and  N_2
REMARK    2  A    between atoms: N_2  and  C_3
REMARK    3  A    between atoms: N_2  and  C_4
REMARK    4  A    between atoms: C_9  and  S_14
REMARK    5  A    between atoms: S_14  and  O_15
REMARK                            x       y       z     vdW  Elec       q    Type
REMARK                         _______ _______ _______ _____ _____    ______ ____
ROOT
ATOM      1  C   UNL     1       8.318  -0.280  23.547  0.00  0.00    +0.037 A 
ATOM      2  C   UNL     1       9.399  -0.510  24.435  0.00  0.00    +0.024 A 
ATOM      3  C   UNL     1      10.235   0.493  24.889  0.00  0.00    +0.002 A 
ATOM      4  C   UNL     1      10.008   1.797  24.493  0.00  0.00    +0.010 A 
ATOM      5  C   UNL     1       8.915   2.151  23.675  0.00  0.00    +0.011 A 
ATOM      6  C   UNL     1       8.657   3.510  23.316  0.00  0.00    +0.125 A 
ATOM      7  C   UNL     1       7.557   3.876  22.536  0.00  0.00    +0.030 A 
ATOM      8  C   UNL     1       6.704   2.896  22.080  0.00  0.00    +0.003 A 
ATOM      9  C   UNL     1       6.956   1.558  22.398  0.00  0.00    +0.010 A 
ATOM     10  C   UNL     1       8.041   1.108  23.202  0.00  0.00    +0.005 A 
ENDROOT
BRANCH   1  12
ATOM     11  C   UNL     1       6.402  -1.803  23.828  0.00  0.00    +0.129 C 
ATOM     12  N   UNL     1       7.625  -1.424  23.104  0.00  0.00    -0.336 N 
ATOM     13  C   UNL     1       8.173  -2.482  22.274  0.00  0.00    +0.129 C 
ENDBRANCH   1  12
BRANCH   6  14
ATOM     14  S   UNL     1       9.741   4.846  23.803  0.00  0.00    +0.110 S 
ATOM     15  O   UNL     1      11.108   4.454  23.545  0.00  0.00    -0.142 OA
ATOM     16  O   UNL     1       9.325   5.318  25.108  0.00  0.00    -0.142 OA
BRANCH  14  17
ATOM     17  O   UNL     1       9.351   6.054  22.806  0.00  0.00    -0.250 OA
ATOM     18  H   UNL     1       8.541   6.479  23.161  0.00  0.00    +0.245 HD
ENDBRANCH  14  17
ENDBRANCH   6  14
TORSDOF 3
ENDMDL
MODEL 8
REMARK VINA RESULT:      -5.2      5.368      6.804
REMARK  Name = 
REMARK  5 active torsions:
REMARK  status: ('A' for Active; 'I' for Inactive)
REMARK    1  A    between atoms: C_1  and  N_2
REMARK    2  A    between atoms: N_2  and  C_3
REMARK    3  A    between atoms: N_2  and  C_4
REMARK    4  A    between atoms: C_9  and  S_14
REMARK    5  A    between atoms: S_14  and  O_15
REMARK                            x       y       z     vdW  Elec       q    Type
REMARK                         _______ _______ _______ _____ _____    ______ ____
ROOT
ATOM      1  C   UNL     1       7.835  -2.339  23.880  0.00  0.00    +0.037 A 
ATOM      2  C   UNL     1       6.817  -2.086  22.926  0.00  0.00    +0.024 A 
ATOM      3  C   UNL     1       5.680  -2.864  22.804  0.00  0.00    +0.002 A 
ATOM      4  C   UNL     1       5.492  -3.929  23.664  0.00  0.00    +0.010 A 
ATOM      5  C   UNL     1       6.402  -4.224  24.700  0.00  0.00    +0.011 A 
ATOM      6  C   UNL     1       6.170  -5.295  25.618  0.00  0.00    +0.125 A 
ATOM      7  C   UNL     1       7.046  -5.573  26.670  0.00  0.00    +0.030 A 
ATOM      8  C   UNL     1       8.180  -4.807  26.818  0.00  0.00    +0.003 A 
ATOM      9  C   UNL     1       8.438  -3.773  25.913  0.00  0.00    +0.010 A 
ATOM     10  C   UNL     1       7.586  -3.414  24.829  0.00  0.00    +0.005 A 
ENDROOT
BRANCH   1  12
ATOM     11  C   UNL     1      10.103  -1.980  22.991  0.00  0.00    +0.129 C 
ATOM     12  N   UNL     1       8.972  -1.512  23.806  0.00  0.00    -0.336 N 
ATOM     13  C   UNL     1       9.313  -0.448  24.735  0.00  0.00    +0.129 C 
ENDBRANCH   1  12
BRANCH   6  14
ATOM     14  S   UNL     1       4.762  -6.387  25.471  0.00  0.00    +0.110 S 
ATOM     15  O   UNL     1       4.909  -7.178  24.270  0.00  0.00    -0.142 OA
ATOM     16  O   UNL     1       3.561  -5.620  25.727  0.00  0.00    -0.142 OA
BRANCH  14  17
ATOM     17  O   UNL     1       4.884  -7.363  26.752  0.00  0.00    -0.250 OA
ATOM     18  H   UNL     1       4.111  -7.966  26.737  0.00  0.00    +0.245 HD
ENDBRANCH  14  17
ENDBRANCH   6  14
TORSDOF 3
ENDMDL
MODEL 9
REMARK VINA RESULT:      -5.1      4.332      5.863
REMARK  Name = 
REMARK  5 active torsions:
REMARK  status: ('A' for Active; 'I' for Inactive)
REMARK    1  A    between atoms: C_1  and  N_2
REMARK    2  A    between atoms: N_2  and  C_3
REMARK    3  A    between atoms: N_2  and  C_4
REMARK    4  A    between atoms: C_9  and  S_14
REMARK    5  A    between atoms: S_14  and  O_15
REMARK                            x       y       z     vdW  Elec       q    Type
REMARK                         _______ _______ _______ _____ _____    ______ ____
ROOT
ATOM      1  C   UNL     1       8.363   0.980  22.525  0.00  0.00    +0.037 A 
ATOM      2  C   UNL     1       9.330   0.495  21.611  0.00  0.00    +0.024 A 
ATOM      3  C   UNL     1       9.625  -0.847  21.457  0.00  0.00    +0.002 A 
ATOM      4  C   UNL     1       8.933  -1.783  22.202  0.00  0.00    +0.010 A 
ATOM      5  C   UNL     1       7.895  -1.418  23.085  0.00  0.00    +0.011 A 
ATOM      6  C   UNL     1       7.149  -2.397  23.810  0.00  0.00    +0.125 A 
ATOM      7  C   UNL     1       6.095  -2.049  24.659  0.00  0.00    +0.030 A 
ATOM      8  C   UNL     1       5.777  -0.720  24.820  0.00  0.00    +0.003 A 
ATOM      9  C   UNL     1       6.514   0.255  24.141  0.00  0.00    +0.010 A 
ATOM     10  C   UNL     1       7.586  -0.020  23.245  0.00  0.00    +0.005 A 
ENDROOT
BRANCH   1  12
ATOM     11  C   UNL     1       9.055   3.051  23.665  0.00  0.00    +0.129 C 
ATOM     12  N   UNL     1       8.255   2.381  22.629  0.00  0.00    -0.336 N 
ATOM     13  C   UNL     1       7.173   3.193  22.099  0.00  0.00    +0.129 C 
ENDBRANCH   1  12
BRANCH   6  14
ATOM     14  S   UNL     1       7.527  -4.142  23.718  0.00  0.00    +0.110 S 
ATOM     15  O   UNL     1       6.530  -4.875  24.465  0.00  0.00    -0.142 OA
ATOM     16  O   UNL     1       8.942  -4.317  23.975  0.00  0.00    -0.142 OA
BRANCH  14  17
ATOM     17  O   UNL     1       7.367  -4.499  22.151  0.00  0.00    -0.250 OA
ATOM     18  H   UNL     1       7.277  -3.652  21.664  0.00  0.00    +0.245 HD
ENDBRANCH  14  17
ENDBRANCH   6  14
TORSDOF 3
ENDMDL
