MODEL 1
REMARK VINA RESULT:      -7.3      0.000      0.000
REMARK  Name = 
REMARK  17 active torsions:
REMARK  status: ('A' for Active; 'I' for Inactive)
REMARK    1  A    between atoms: N_6  and  C_9
REMARK    2  A    between atoms: C_12  and  C_14
REMARK    3  A    between atoms: C_14  and  O_15
REMARK    4  A    between atoms: O_15  and  P_16
REMARK    5  A    between atoms: P_16  and  O_17
REMARK    6  A    between atoms: P_16  and  O_19
REMARK    7  A    between atoms: O_19  and  C_20
REMARK    8  A    between atoms: C_20  and  C_36
REMARK    9  A    between atoms: C_22  and  O_24
REMARK   10  A    between atoms: C_25  and  O_27
REMARK   11  A    between atoms: C_28  and  C_31
REMARK   12  A    between atoms: C_31  and  O_33
REMARK   13  A    between atoms: C_31  and  C_34
REMARK   14  A    between atoms: C_34  and  O_35
REMARK   15  A    between atoms: C_36  and  O_37
REMARK   16  A    between atoms: C_39  and  O_41
REMARK   17  A    between atoms: C_42  and  O_44
REMARK                            x       y       z     vdW  Elec       q    Type
REMARK                         _______ _______ _______ _____ _____    ______ ____
ROOT
ATOM      1  P   UNL     1       8.373  -0.011  25.971  0.00  0.00    +0.478 P 
ATOM      2  O   UNL     1       8.291   1.476  26.003  0.00  0.00    -0.227 OA
ENDROOT
BRANCH   1   3
ATOM      3  O   UNL     1       8.984  -0.575  27.337  0.00  0.00    -0.302 OA
ATOM      4  H   UNL     1       9.923  -0.815  27.226  0.00  0.00    +0.222 HD
ENDBRANCH   1   3
BRANCH   1   5
ATOM      5  O   UNL     1       6.933  -0.702  25.909  0.00  0.00    -0.284 OA
BRANCH   5   6
ATOM      6  C   UNL     1       6.662  -1.801  26.760  0.00  0.00    +0.206 C 
BRANCH   6  10
ATOM      7  C   UNL     1       6.367  -5.305  25.765  0.00  0.00    +0.255 C 
ATOM      8  C   UNL     1       7.714  -5.383  26.517  0.00  0.00    +0.195 C 
ATOM      9  C   UNL     1       8.126  -3.921  26.729  0.00  0.00    +0.178 C 
ATOM     10  C   UNL     1       7.013  -3.111  26.062  0.00  0.00    +0.178 C 
ATOM     11  O   UNL     1       5.872  -3.976  26.022  0.00  0.00    -0.346 OA
BRANCH   7  18
ATOM     12  N   UNL     1       6.052  -5.900  20.282  0.00  0.00    -0.343 N 
ATOM     13  H   UNL     1       6.673  -5.350  19.702  0.00  0.00    +0.144 HD
ATOM     14  H   UNL     1       5.083  -5.874  19.973  0.00  0.00    +0.144 HD
ATOM     15  C   UNL     1       6.169  -5.775  21.635  0.00  0.00    +0.123 A 
ATOM     16  C   UNL     1       7.471  -5.418  22.219  0.00  0.00    +0.061 A 
ATOM     17  C   UNL     1       7.503  -5.294  23.544  0.00  0.00    +0.096 A 
ATOM     18  N   UNL     1       6.379  -5.511  24.314  0.00  0.00    -0.270 N 
ATOM     19  C   UNL     1       5.156  -5.851  23.714  0.00  0.00    +0.352 A 
ATOM     20  O   UNL     1       4.145  -6.048  24.389  0.00  0.00    -0.244 OA
ATOM     21  N   UNL     1       5.103  -5.968  22.344  0.00  0.00    -0.178 NA
ENDBRANCH   7  18
BRANCH   9  22
ATOM     22  O   UNL     1       9.383  -3.657  26.099  0.00  0.00    -0.386 OA
ATOM     23  H   UNL     1       9.247  -2.925  25.471  0.00  0.00    +0.210 HD
ENDBRANCH   9  22
BRANCH   8  24
ATOM     24  O   UNL     1       7.558  -6.015  27.804  0.00  0.00    -0.385 OA
ATOM     25  H   UNL     1       7.943  -5.427  28.478  0.00  0.00    +0.210 HD
ENDBRANCH   8  24
ENDBRANCH   6  10
ENDBRANCH   5   6
ENDBRANCH   1   5
BRANCH   1  26
ATOM     26  O   UNL     1       9.290  -0.650  24.849  0.00  0.00    -0.242 OA
BRANCH  26  27
ATOM     27  C   UNL     1       9.129  -0.450  23.454  0.00  0.00    +0.282 C 
ATOM     28  O   UNL     1      10.042   0.494  22.902  0.00  0.00    -0.331 OA
ATOM     29  C   UNL     1       9.613   1.782  22.455  0.00  0.00    +0.184 C 
ATOM     30  C   UNL     1       8.211   1.823  21.815  0.00  0.00    +0.174 C 
ATOM     31  C   UNL     1       7.163   0.931  22.479  0.00  0.00    +0.151 C 
ATOM     32  C   UNL     1       7.697  -0.430  22.913  0.00  0.00    +0.111 C 
BRANCH  27  33
ATOM     33  C   UNL     1       9.821  -1.764  22.958  0.00  0.00    +0.366 C 
ATOM     34  O   UNL     1      10.020  -2.769  23.627  0.00  0.00    -0.245 OA
BRANCH  33  35
ATOM     35  O   UNL     1      10.231  -1.674  21.653  0.00  0.00    -0.477 OA
ATOM     36  H   UNL     1      11.216  -1.729  21.655  0.00  0.00    +0.295 HD
ENDBRANCH  33  35
ENDBRANCH  27  33
BRANCH  30  37
ATOM     37  O   UNL     1       8.352   1.370  20.456  0.00  0.00    -0.387 OA
ATOM     38  H   UNL     1       7.494   0.992  20.183  0.00  0.00    +0.210 HD
ENDBRANCH  30  37
BRANCH  31  39
ATOM     39  O   UNL     1       6.438   1.636  23.475  0.00  0.00    -0.389 OA
ATOM     40  H   UNL     1       5.615   1.161  23.715  0.00  0.00    +0.210 HD
ENDBRANCH  31  39
BRANCH  29  41
ATOM     41  C   UNL     1       9.918   2.820  23.548  0.00  0.00    +0.171 C 
BRANCH  41  42
ATOM     42  O   UNL     1      11.261   3.324  23.354  0.00  0.00    -0.387 OA
ATOM     43  H   UNL     1      11.843   2.719  23.858  0.00  0.00    +0.210 HD
ENDBRANCH  41  42
BRANCH  41  44
ATOM     44  C   UNL     1       8.968   4.019  23.558  0.00  0.00    +0.189 C 
BRANCH  44  45
ATOM     45  O   UNL     1       8.103   3.864  24.688  0.00  0.00    -0.392 OA
ATOM     46  H   UNL     1       7.200   4.084  24.392  0.00  0.00    +0.210 HD
ENDBRANCH  44  45
ENDBRANCH  41  44
ENDBRANCH  29  41
ENDBRANCH  26  27
ENDBRANCH   1  26
TORSDOF 17
ENDMDL
MODEL 2
REMARK VINA RESULT:      -7.2      1.287      2.968
REMARK  Name = 
REMARK  17 active torsions:
REMARK  status: ('A' for Active; 'I' for Inactive)
REMARK    1  A    between atoms: N_6  and  C_9
REMARK    2  A    between atoms: C_12  and  C_14
REMARK    3  A    between atoms: C_14  and  O_15
REMARK    4  A    between atoms: O_15  and  P_16
REMARK    5  A    between atoms: P_16  and  O_17
REMARK    6  A    between atoms: P_16  and  O_19
REMARK    7  A    between atoms: O_19  and  C_20
REMARK    8  A    between atoms: C_20  and  C_36
REMARK    9  A    between atoms: C_22  and  O_24
REMARK   10  A    between atoms: C_25  and  O_27
REMARK   11  A    between atoms: C_28  and  C_31
REMARK   12  A    between atoms: C_31  and  O_33
REMARK   13  A    between atoms: C_31  and  C_34
REMARK   14  A    between atoms: C_34  and  O_35
REMARK   15  A    between atoms: C_36  and  O_37
REMARK   16  A    between atoms: C_39  and  O_41
REMARK   17  A    between atoms: C_42  and  O_44
REMARK                            x       y       z     vdW  Elec       q    Type
REMARK                         _______ _______ _______ _____ _____    ______ ____
ROOT
ATOM      1  P   UNL     1       7.582   0.195  26.455  0.00  0.00    +0.478 P 
ATOM      2  O   UNL     1       7.332   1.481  27.167  0.00  0.00    -0.227 OA
ENDROOT
BRANCH   1   3
ATOM      3  O   UNL     1       9.142  -0.156  26.448  0.00  0.00    -0.302 OA
ATOM      4  H   UNL     1       9.664   0.582  26.080  0.00  0.00    +0.222 HD
ENDBRANCH   1   3
BRANCH   1   5
ATOM      5  O   UNL     1       6.936  -1.057  27.211  0.00  0.00    -0.284 OA
BRANCH   5   6
ATOM      6  C   UNL     1       5.905  -1.787  26.574  0.00  0.00    +0.206 C 
BRANCH   6  10
ATOM      7  C   UNL     1       6.227  -5.313  25.668  0.00  0.00    +0.255 C 
ATOM      8  C   UNL     1       7.579  -5.128  26.393  0.00  0.00    +0.195 C 
ATOM      9  C   UNL     1       7.725  -3.611  26.561  0.00  0.00    +0.178 C 
ATOM     10  C   UNL     1       6.474  -3.032  25.900  0.00  0.00    +0.178 C 
ATOM     11  O   UNL     1       5.506  -4.087  25.905  0.00  0.00    -0.346 OA
BRANCH   7  18
ATOM     12  N   UNL     1       6.011  -5.955  20.185  0.00  0.00    -0.343 N 
ATOM     13  H   UNL     1       6.770  -5.584  19.628  0.00  0.00    +0.144 HD
ATOM     14  H   UNL     1       5.091  -5.706  19.831  0.00  0.00    +0.144 HD
ATOM     15  C   UNL     1       6.097  -5.826  21.540  0.00  0.00    +0.123 A 
ATOM     16  C   UNL     1       7.421  -5.777  22.181  0.00  0.00    +0.061 A 
ATOM     17  C   UNL     1       7.425  -5.630  23.503  0.00  0.00    +0.096 A 
ATOM     18  N   UNL     1       6.250  -5.552  24.222  0.00  0.00    -0.270 N 
ATOM     19  C   UNL     1       5.008  -5.605  23.570  0.00  0.00    +0.352 A 
ATOM     20  O   UNL     1       3.952  -5.537  24.200  0.00  0.00    -0.244 OA
ATOM     21  N   UNL     1       4.987  -5.741  22.202  0.00  0.00    -0.178 NA
ENDBRANCH   7  18
BRANCH   9  22
ATOM     22  O   UNL     1       8.903  -3.143  25.898  0.00  0.00    -0.386 OA
ATOM     23  H   UNL     1       9.156  -2.299  26.312  0.00  0.00    +0.210 HD
ENDBRANCH   9  22
BRANCH   8  24
ATOM     24  O   UNL     1       7.561  -5.743  27.697  0.00  0.00    -0.385 OA
ATOM     25  H   UNL     1       8.478  -5.793  28.020  0.00  0.00    +0.210 HD
ENDBRANCH   8  24
ENDBRANCH   6  10
ENDBRANCH   5   6
ENDBRANCH   1   5
BRANCH   1  26
ATOM     26  O   UNL     1       7.168   0.134  24.929  0.00  0.00    -0.242 OA
BRANCH  26  27
ATOM     27  C   UNL     1       7.637   1.016  23.921  0.00  0.00    +0.282 C 
ATOM     28  O   UNL     1       7.806   0.394  22.651  0.00  0.00    -0.331 OA
ATOM     29  C   UNL     1       9.102   0.152  22.099  0.00  0.00    +0.184 C 
ATOM     30  C   UNL     1      10.163   1.226  22.415  0.00  0.00    +0.174 C 
ATOM     31  C   UNL     1      10.103   1.808  23.826  0.00  0.00    +0.151 C 
ATOM     32  C   UNL     1       8.686   2.051  24.335  0.00  0.00    +0.111 C 
BRANCH  27  33
ATOM     33  C   UNL     1       6.293   1.768  23.639  0.00  0.00    +0.366 C 
ATOM     34  O   UNL     1       6.178   2.847  23.073  0.00  0.00    -0.245 OA
BRANCH  33  35
ATOM     35  O   UNL     1       5.207   1.093  24.132  0.00  0.00    -0.477 OA
ATOM     36  H   UNL     1       4.884   1.597  24.916  0.00  0.00    +0.295 HD
ENDBRANCH  33  35
ENDBRANCH  27  33
BRANCH  30  37
ATOM     37  O   UNL     1       9.948   2.316  21.498  0.00  0.00    -0.387 OA
ATOM     38  H   UNL     1      10.618   2.238  20.791  0.00  0.00    +0.210 HD
ENDBRANCH  30  37
BRANCH  31  39
ATOM     39  O   UNL     1      10.946   1.094  24.717  0.00  0.00    -0.389 OA
ATOM     40  H   UNL     1      10.425   0.492  25.288  0.00  0.00    +0.210 HD
ENDBRANCH  31  39
BRANCH  29  41
ATOM     41  C   UNL     1       9.489  -1.314  22.352  0.00  0.00    +0.171 C 
BRANCH  41  42
ATOM     42  O   UNL     1       9.845  -1.472  23.746  0.00  0.00    -0.387 OA
ATOM     43  H   UNL     1       8.997  -1.460  24.235  0.00  0.00    +0.210 HD
ENDBRANCH  41  42
BRANCH  41  44
ATOM     44  C   UNL     1       8.380  -2.320  22.038  0.00  0.00    +0.189 C 
BRANCH  44  45
ATOM     45  O   UNL     1       7.479  -2.320  23.150  0.00  0.00    -0.392 OA
ATOM     46  H   UNL     1       7.120  -1.417  23.229  0.00  0.00    +0.210 HD
ENDBRANCH  44  45
ENDBRANCH  41  44
ENDBRANCH  29  41
ENDBRANCH  26  27
ENDBRANCH   1  26
TORSDOF 17
ENDMDL
MODEL 3
REMARK VINA RESULT:      -7.2      3.932      7.957
REMARK  Name = 
REMARK  17 active torsions:
REMARK  status: ('A' for Active; 'I' for Inactive)
REMARK    1  A    between atoms: N_6  and  C_9
REMARK    2  A    between atoms: C_12  and  C_14
REMARK    3  A    between atoms: C_14  and  O_15
REMARK    4  A    between atoms: O_15  and  P_16
REMARK    5  A    between atoms: P_16  and  O_17
REMARK    6  A    between atoms: P_16  and  O_19
REMARK    7  A    between atoms: O_19  and  C_20
REMARK    8  A    between atoms: C_20  and  C_36
REMARK    9  A    between atoms: C_22  and  O_24
REMARK   10  A    between atoms: C_25  and  O_27
REMARK   11  A    between atoms: C_28  and  C_31
REMARK   12  A    between atoms: C_31  and  O_33
REMARK   13  A    between atoms: C_31  and  C_34
REMARK   14  A    between atoms: C_34  and  O_35
REMARK   15  A    between atoms: C_36  and  O_37
REMARK   16  A    between atoms: C_39  and  O_41
REMARK   17  A    between atoms: C_42  and  O_44
REMARK                            x       y       z     vdW  Elec       q    Type
REMARK                         _______ _______ _______ _____ _____    ______ ____
ROOT
ATOM      1  P   UNL     1       8.556  -2.169  22.918  0.00  0.00    +0.478 P 
ATOM      2  O   UNL     1       7.217  -1.756  22.411  0.00  0.00    -0.227 OA
ENDROOT
BRANCH   1   3
ATOM      3  O   UNL     1       9.665  -2.026  21.774  0.00  0.00    -0.302 OA
ATOM      4  H   UNL     1      10.346  -1.376  22.029  0.00  0.00    +0.222 HD
ENDBRANCH   1   3
BRANCH   1   5
ATOM      5  O   UNL     1       9.100  -1.200  24.067  0.00  0.00    -0.284 OA
BRANCH   5   6
ATOM      6  C   UNL     1       9.673   0.043  23.704  0.00  0.00    +0.206 C 
BRANCH   6  10
ATOM      7  C   UNL     1       8.371   3.140  25.143  0.00  0.00    +0.255 C 
ATOM      8  C   UNL     1       7.339   2.152  25.730  0.00  0.00    +0.195 C 
ATOM      9  C   UNL     1       7.571   0.846  24.962  0.00  0.00    +0.178 C 
ATOM     10  C   UNL     1       8.690   1.178  23.973  0.00  0.00    +0.178 C 
ATOM     11  O   UNL     1       9.374   2.309  24.525  0.00  0.00    -0.346 OA
BRANCH   7  18
ATOM     12  N   UNL     1       6.996   6.810  21.249  0.00  0.00    -0.343 N 
ATOM     13  H   UNL     1       6.450   6.491  20.460  0.00  0.00    +0.144 HD
ATOM     14  H   UNL     1       7.803   7.370  20.983  0.00  0.00    +0.144 HD
ATOM     15  C   UNL     1       7.293   5.904  22.224  0.00  0.00    +0.123 A 
ATOM     16  C   UNL     1       6.379   4.777  22.468  0.00  0.00    +0.061 A 
ATOM     17  C   UNL     1       6.746   3.923  23.421  0.00  0.00    +0.096 A 
ATOM     18  N   UNL     1       7.906   4.106  24.143  0.00  0.00    -0.270 N 
ATOM     19  C   UNL     1       8.749   5.197  23.878  0.00  0.00    +0.352 A 
ATOM     20  O   UNL     1       9.788   5.373  24.516  0.00  0.00    -0.244 OA
ATOM     21  N   UNL     1       8.392   6.080  22.886  0.00  0.00    -0.178 NA
ENDBRANCH   7  18
BRANCH   9  22
ATOM     22  O   UNL     1       6.386   0.457  24.262  0.00  0.00    -0.386 OA
ATOM     23  H   UNL     1       6.319  -0.514  24.317  0.00  0.00    +0.210 HD
ENDBRANCH   9  22
BRANCH   8  24
ATOM     24  O   UNL     1       7.578   1.918  27.132  0.00  0.00    -0.385 OA
ATOM     25  H   UNL     1       8.089   1.094  27.218  0.00  0.00    +0.210 HD
ENDBRANCH   8  24
ENDBRANCH   6  10
ENDBRANCH   5   6
ENDBRANCH   1   5
BRANCH   1  26
ATOM     26  O   UNL     1       8.701  -3.667  23.408  0.00  0.00    -0.242 OA
BRANCH  26  27
ATOM     27  C   UNL     1       7.921  -4.270  24.427  0.00  0.00    +0.282 C 
ATOM     28  O   UNL     1       7.200  -5.419  23.992  0.00  0.00    -0.331 OA
ATOM     29  C   UNL     1       5.780  -5.405  23.844  0.00  0.00    +0.184 C 
ATOM     30  C   UNL     1       5.019  -4.546  24.875  0.00  0.00    +0.174 C 
ATOM     31  C   UNL     1       5.695  -3.229  25.254  0.00  0.00    +0.151 C 
ATOM     32  C   UNL     1       7.209  -3.334  25.407  0.00  0.00    +0.111 C 
BRANCH  27  33
ATOM     33  C   UNL     1       9.077  -4.994  25.196  0.00  0.00    +0.366 C 
ATOM     34  O   UNL     1      10.274  -4.886  24.964  0.00  0.00    -0.245 OA
BRANCH  33  35
ATOM     35  O   UNL     1       8.606  -5.824  26.180  0.00  0.00    -0.477 OA
ATOM     36  H   UNL     1       8.765  -6.750  25.879  0.00  0.00    +0.295 HD
ENDBRANCH  33  35
ENDBRANCH  27  33
BRANCH  30  37
ATOM     37  O   UNL     1       4.912  -5.328  26.080  0.00  0.00    -0.387 OA
ATOM     38  H   UNL     1       3.974  -5.582  26.181  0.00  0.00    +0.210 HD
ENDBRANCH  30  37
BRANCH  31  39
ATOM     39  O   UNL     1       5.247  -2.162  24.432  0.00  0.00    -0.389 OA
ATOM     40  H   UNL     1       5.205  -1.323  24.936  0.00  0.00    +0.210 HD
ENDBRANCH  31  39
BRANCH  29  41
ATOM     41  C   UNL     1       5.431  -5.195  22.361  0.00  0.00    +0.171 C 
BRANCH  41  42
ATOM     42  O   UNL     1       5.205  -3.784  22.128  0.00  0.00    -0.387 OA
ATOM     43  H   UNL     1       4.328  -3.592  22.518  0.00  0.00    +0.210 HD
ENDBRANCH  41  42
BRANCH  41  44
ATOM     44  C   UNL     1       6.516  -5.660  21.388  0.00  0.00    +0.189 C 
BRANCH  44  45
ATOM     45  O   UNL     1       5.962  -5.588  20.070  0.00  0.00    -0.392 OA
ATOM     46  H   UNL     1       6.658  -5.235  19.485  0.00  0.00    +0.210 HD
ENDBRANCH  44  45
ENDBRANCH  41  44
ENDBRANCH  29  41
ENDBRANCH  26  27
ENDBRANCH   1  26
TORSDOF 17
ENDMDL
MODEL 4
REMARK VINA RESULT:      -7.0      1.839      3.112
REMARK  Name = 
REMARK  17 active torsions:
REMARK  status: ('A' for Active; 'I' for Inactive)
REMARK    1  A    between atoms: N_6  and  C_9
REMARK    2  A    between atoms: C_12  and  C_14
REMARK    3  A    between atoms: C_14  and  O_15
REMARK    4  A    between atoms: O_15  and  P_16
REMARK    5  A    between atoms: P_16  and  O_17
REMARK    6  A    between atoms: P_16  and  O_19
REMARK    7  A    between atoms: O_19  and  C_20
REMARK    8  A    between atoms: C_20  and  C_36
REMARK    9  A    between atoms: C_22  and  O_24
REMARK   10  A    between atoms: C_25  and  O_27
REMARK   11  A    between atoms: C_28  and  C_31
REMARK   12  A    between atoms: C_31  and  O_33
REMARK   13  A    between atoms: C_31  and  C_34
REMARK   14  A    between atoms: C_34  and  O_35
REMARK   15  A    between atoms: C_36  and  O_37
REMARK   16  A    between atoms: C_39  and  O_41
REMARK   17  A    between atoms: C_42  and  O_44
REMARK                            x       y       z     vdW  Elec       q    Type
REMARK                         _______ _______ _______ _____ _____    ______ ____
ROOT
ATOM      1  P   UNL     1       8.291   0.156  24.285  0.00  0.00    +0.478 P 
ATOM      2  O   UNL     1       8.242  -0.518  22.956  0.00  0.00    -0.227 OA
ENDROOT
BRANCH   1   3
ATOM      3  O   UNL     1       6.816   0.407  24.849  0.00  0.00    -0.302 OA
ATOM      4  H   UNL     1       6.847   0.839  25.724  0.00  0.00    +0.222 HD
ENDBRANCH   1   3
BRANCH   1   5
ATOM      5  O   UNL     1       8.954  -0.764  25.412  0.00  0.00    -0.284 OA
BRANCH   5   6
ATOM      6  C   UNL     1       8.126  -1.628  26.168  0.00  0.00    +0.206 C 
BRANCH   6  10
ATOM      7  C   UNL     1       7.732  -5.239  25.763  0.00  0.00    +0.255 C 
ATOM      8  C   UNL     1       9.094  -5.067  25.055  0.00  0.00    +0.195 C 
ATOM      9  C   UNL     1       9.247  -3.552  24.871  0.00  0.00    +0.178 C 
ATOM     10  C   UNL     1       7.960  -2.965  25.452  0.00  0.00    +0.178 C 
ATOM     11  O   UNL     1       7.454  -3.954  26.356  0.00  0.00    -0.346 OA
BRANCH   7  18
ATOM     12  N   UNL     1       3.143  -6.578  22.995  0.00  0.00    -0.343 N 
ATOM     13  H   UNL     1       2.855  -5.985  22.227  0.00  0.00    +0.144 HD
ATOM     14  H   UNL     1       2.387  -6.800  23.638  0.00  0.00    +0.144 HD
ATOM     15  C   UNL     1       4.300  -6.259  23.643  0.00  0.00    +0.123 A 
ATOM     16  C   UNL     1       5.369  -5.559  22.914  0.00  0.00    +0.061 A 
ATOM     17  C   UNL     1       6.460  -5.265  23.618  0.00  0.00    +0.096 A 
ATOM     18  N   UNL     1       6.576  -5.619  24.946  0.00  0.00    -0.270 N 
ATOM     19  C   UNL     1       5.531  -6.288  25.602  0.00  0.00    +0.352 A 
ATOM     20  O   UNL     1       5.622  -6.611  26.787  0.00  0.00    -0.244 OA
ATOM     21  N   UNL     1       4.391  -6.586  24.893  0.00  0.00    -0.178 NA
ENDBRANCH   7  18
BRANCH   9  22
ATOM     22  O   UNL     1       9.364  -3.224  23.484  0.00  0.00    -0.386 OA
ATOM     23  H   UNL     1       8.552  -2.751  23.225  0.00  0.00    +0.210 HD
ENDBRANCH   9  22
BRANCH   8  24
ATOM     24  O   UNL     1      10.175  -5.549  25.878  0.00  0.00    -0.385 OA
ATOM     25  H   UNL     1      10.076  -6.513  25.972  0.00  0.00    +0.210 HD
ENDBRANCH   8  24
ENDBRANCH   6  10
ENDBRANCH   5   6
ENDBRANCH   1   5
BRANCH   1  26
ATOM     26  O   UNL     1       8.969   1.585  24.334  0.00  0.00    -0.242 OA
BRANCH  26  27
ATOM     27  C   UNL     1       8.751   2.623  23.392  0.00  0.00    +0.282 C 
ATOM     28  O   UNL     1       8.536   3.899  23.987  0.00  0.00    -0.331 OA
ATOM     29  C   UNL     1       7.254   4.529  23.970  0.00  0.00    +0.184 C 
ATOM     30  C   UNL     1       6.417   4.285  22.698  0.00  0.00    +0.174 C 
ATOM     31  C   UNL     1       6.509   2.875  22.116  0.00  0.00    +0.151 C 
ATOM     32  C   UNL     1       7.912   2.280  22.158  0.00  0.00    +0.111 C 
BRANCH  27  33
ATOM     33  C   UNL     1      10.235   2.825  22.933  0.00  0.00    +0.366 C 
ATOM     34  O   UNL     1      11.133   3.321  23.600  0.00  0.00    -0.245 OA
BRANCH  33  35
ATOM     35  O   UNL     1      10.441   2.403  21.646  0.00  0.00    -0.477 OA
ATOM     36  H   UNL     1       9.667   1.844  21.396  0.00  0.00    +0.295 HD
ENDBRANCH  33  35
ENDBRANCH  27  33
BRANCH  30  37
ATOM     37  O   UNL     1       6.904   5.191  21.690  0.00  0.00    -0.387 OA
ATOM     38  H   UNL     1       7.842   4.973  21.530  0.00  0.00    +0.210 HD
ENDBRANCH  30  37
BRANCH  31  39
ATOM     39  O   UNL     1       5.486   2.036  22.630  0.00  0.00    -0.389 OA
ATOM     40  H   UNL     1       4.884   2.535  23.221  0.00  0.00    +0.210 HD
ENDBRANCH  31  39
BRANCH  29  41
ATOM     41  C   UNL     1       6.561   4.296  25.323  0.00  0.00    +0.171 C 
BRANCH  41  42
ATOM     42  O   UNL     1       5.732   3.114  25.227  0.00  0.00    -0.387 OA
ATOM     43  H   UNL     1       6.007   2.540  25.971  0.00  0.00    +0.210 HD
ENDBRANCH  41  42
BRANCH  41  44
ATOM     44  C   UNL     1       7.523   4.097  26.495  0.00  0.00    +0.189 C 
BRANCH  44  45
ATOM     45  O   UNL     1       7.599   2.689  26.747  0.00  0.00    -0.392 OA
ATOM     46  H   UNL     1       8.402   2.360  26.304  0.00  0.00    +0.210 HD
ENDBRANCH  44  45
ENDBRANCH  41  44
ENDBRANCH  29  41
ENDBRANCH  26  27
ENDBRANCH   1  26
TORSDOF 17
ENDMDL
MODEL 5
REMARK VINA RESULT:      -6.9      3.777      8.049
REMARK  Name = 
REMARK  17 active torsions:
REMARK  status: ('A' for Active; 'I' for Inactive)
REMARK    1  A    between atoms: N_6  and  C_9
REMARK    2  A    between atoms: C_12  and  C_14
REMARK    3  A    between atoms: C_14  and  O_15
REMARK    4  A    between atoms: O_15  and  P_16
REMARK    5  A    between atoms: P_16  and  O_17
REMARK    6  A    between atoms: P_16  and  O_19
REMARK    7  A    between atoms: O_19  and  C_20
REMARK    8  A    between atoms: C_20  and  C_36
REMARK    9  A    between atoms: C_22  and  O_24
REMARK   10  A    between atoms: C_25  and  O_27
REMARK   11  A    between atoms: C_28  and  C_31
REMARK   12  A    between atoms: C_31  and  O_33
REMARK   13  A    between atoms: C_31  and  C_34
REMARK   14  A    between atoms: C_34  and  O_35
REMARK   15  A    between atoms: C_36  and  O_37
REMARK   16  A    between atoms: C_39  and  O_41
REMARK   17  A    between atoms: C_42  and  O_44
REMARK                            x       y       z     vdW  Elec       q    Type
REMARK                         _______ _______ _______ _____ _____    ______ ____
ROOT
ATOM      1  P   UNL     1       8.879  -1.959  23.110  0.00  0.00    +0.478 P 
ATOM      2  O   UNL     1       7.588  -1.426  22.590  0.00  0.00    -0.227 OA
ENDROOT
BRANCH   1   3
ATOM      3  O   UNL     1      10.010  -1.912  21.980  0.00  0.00    -0.302 OA
ATOM      4  H   UNL     1      10.592  -1.139  22.103  0.00  0.00    +0.222 HD
ENDBRANCH   1   3
BRANCH   1   5
ATOM      5  O   UNL     1       9.493  -1.048  24.270  0.00  0.00    -0.284 OA
BRANCH   5   6
ATOM      6  C   UNL     1      10.470  -0.078  23.938  0.00  0.00    +0.206 C 
BRANCH   6  10
ATOM      7  C   UNL     1       7.867   2.489  23.941  0.00  0.00    +0.255 C 
ATOM      8  C   UNL     1       8.017   2.303  22.415  0.00  0.00    +0.195 C 
ATOM      9  C   UNL     1       9.298   1.476  22.248  0.00  0.00    +0.178 C 
ATOM     10  C   UNL     1       9.809   1.272  23.675  0.00  0.00    +0.178 C 
ATOM     11  O   UNL     1       8.669   1.442  24.525  0.00  0.00    -0.346 OA
BRANCH   7  18
ATOM     12  N   UNL     1       9.511   7.108  26.487  0.00  0.00    -0.343 N 
ATOM     13  H   UNL     1      10.432   7.471  26.277  0.00  0.00    +0.144 HD
ATOM     14  H   UNL     1       9.314   7.058  27.484  0.00  0.00    +0.144 HD
ATOM     15  C   UNL     1       9.102   5.991  25.820  0.00  0.00    +0.123 A 
ATOM     16  C   UNL     1       9.624   5.719  24.472  0.00  0.00    +0.061 A 
ATOM     17  C   UNL     1       9.194   4.600  23.894  0.00  0.00    +0.096 A 
ATOM     18  N   UNL     1       8.296   3.764  24.523  0.00  0.00    -0.270 N 
ATOM     19  C   UNL     1       7.822   4.063  25.810  0.00  0.00    +0.352 A 
ATOM     20  O   UNL     1       7.018   3.325  26.383  0.00  0.00    -0.244 OA
ATOM     21  N   UNL     1       8.268   5.207  26.428  0.00  0.00    -0.178 NA
ENDBRANCH   7  18
BRANCH   9  22
ATOM     22  O   UNL     1      10.261   2.193  21.471  0.00  0.00    -0.386 OA
ATOM     23  H   UNL     1       9.881   2.324  20.583  0.00  0.00    +0.210 HD
ENDBRANCH   9  22
BRANCH   8  24
ATOM     24  O   UNL     1       6.908   1.562  21.868  0.00  0.00    -0.385 OA
ATOM     25  H   UNL     1       6.130   1.723  22.430  0.00  0.00    +0.210 HD
ENDBRANCH   8  24
ENDBRANCH   6  10
ENDBRANCH   5   6
ENDBRANCH   1   5
BRANCH   1  26
ATOM     26  O   UNL     1       8.883  -3.466  23.594  0.00  0.00    -0.242 OA
BRANCH  26  27
ATOM     27  C   UNL     1       8.064  -3.994  24.625  0.00  0.00    +0.282 C 
ATOM     28  O   UNL     1       7.212  -5.051  24.194  0.00  0.00    -0.331 OA
ATOM     29  C   UNL     1       5.799  -4.878  24.080  0.00  0.00    +0.184 C 
ATOM     30  C   UNL     1       5.161  -3.955  25.138  0.00  0.00    +0.174 C 
ATOM     31  C   UNL     1       5.986  -2.725  25.515  0.00  0.00    +0.151 C 
ATOM     32  C   UNL     1       7.482  -2.998  25.631  0.00  0.00    +0.111 C 
BRANCH  27  33
ATOM     33  C   UNL     1       9.150  -4.851  25.358  0.00  0.00    +0.366 C 
ATOM     34  O   UNL     1      10.329  -4.940  25.044  0.00  0.00    -0.245 OA
BRANCH  33  35
ATOM     35  O   UNL     1       8.632  -5.550  26.417  0.00  0.00    -0.477 OA
ATOM     36  H   UNL     1       7.655  -5.408  26.407  0.00  0.00    +0.295 HD
ENDBRANCH  33  35
ENDBRANCH  27  33
BRANCH  30  37
ATOM     37  O   UNL     1       4.994  -4.737  26.337  0.00  0.00    -0.387 OA
ATOM     38  H   UNL     1       5.390  -5.614  26.171  0.00  0.00    +0.210 HD
ENDBRANCH  30  37
BRANCH  31  39
ATOM     39  O   UNL     1       5.640  -1.605  24.715  0.00  0.00    -0.389 OA
ATOM     40  H   UNL     1       4.848  -1.793  24.169  0.00  0.00    +0.210 HD
ENDBRANCH  31  39
BRANCH  29  41
ATOM     41  C   UNL     1       5.442  -4.611  22.608  0.00  0.00    +0.171 C 
BRANCH  41  42
ATOM     42  O   UNL     1       5.450  -3.183  22.375  0.00  0.00    -0.387 OA
ATOM     43  H   UNL     1       6.162  -3.028  21.721  0.00  0.00    +0.210 HD
ENDBRANCH  41  42
BRANCH  41  44
ATOM     44  C   UNL     1       6.401  -5.252  21.603  0.00  0.00    +0.189 C 
BRANCH  44  45
ATOM     45  O   UNL     1       6.376  -6.665  21.834  0.00  0.00    -0.392 OA
ATOM     46  H   UNL     1       6.068  -6.802  22.749  0.00  0.00    +0.210 HD
ENDBRANCH  44  45
ENDBRANCH  41  44
ENDBRANCH  29  41
ENDBRANCH  26  27
ENDBRANCH   1  26
TORSDOF 17
ENDMDL
MODEL 6
REMARK VINA RESULT:      -6.8      3.136      7.541
REMARK  Name = 
REMARK  17 active torsions:
REMARK  status: ('A' for Active; 'I' for Inactive)
REMARK    1  A    between atoms: N_6  and  C_9
REMARK    2  A    between atoms: C_12  and  C_14
REMARK    3  A    between atoms: C_14  and  O_15
REMARK    4  A    between atoms: O_15  and  P_16
REMARK    5  A    between atoms: P_16  and  O_17
REMARK    6  A    between atoms: P_16  and  O_19
REMARK    7  A    between atoms: O_19  and  C_20
REMARK    8  A    between atoms: C_20  and  C_36
REMARK    9  A    between atoms: C_22  and  O_24
REMARK   10  A    between atoms: C_25  and  O_27
REMARK   11  A    between atoms: C_28  and  C_31
REMARK   12  A    between atoms: C_31  and  O_33
REMARK   13  A    between atoms: C_31  and  C_34
REMARK   14  A    between atoms: C_34  and  O_35
REMARK   15  A    between atoms: C_36  and  O_37
REMARK   16  A    between atoms: C_39  and  O_41
REMARK   17  A    between atoms: C_42  and  O_44
REMARK                            x       y       z     vdW  Elec       q    Type
REMARK                         _______ _______ _______ _____ _____    ______ ____
ROOT
ATOM      1  P   UNL     1       7.973  -4.961  25.955  0.00  0.00    +0.478 P 
ATOM      2  O   UNL     1       7.554  -5.230  24.550  0.00  0.00    -0.227 OA
ENDROOT
BRANCH   1   3
ATOM      3  O   UNL     1       9.522  -5.300  26.160  0.00  0.00    -0.302 OA
ATOM      4  H   UNL     1       9.655  -6.259  26.285  0.00  0.00    +0.222 HD
ENDBRANCH   1   3
BRANCH   1   5
ATOM      5  O   UNL     1       7.893  -3.409  26.329  0.00  0.00    -0.284 OA
BRANCH   5   6
ATOM      6  C   UNL     1       9.005  -2.577  26.052  0.00  0.00    +0.206 C 
BRANCH   6  10
ATOM      7  C   UNL     1       7.276  -1.260  23.114  0.00  0.00    +0.255 C 
ATOM      8  C   UNL     1       8.176  -2.302  22.414  0.00  0.00    +0.195 C 
ATOM      9  C   UNL     1       9.189  -2.724  23.485  0.00  0.00    +0.178 C 
ATOM     10  C   UNL     1       8.824  -1.879  24.707  0.00  0.00    +0.178 C 
ATOM     11  O   UNL     1       7.455  -1.500  24.524  0.00  0.00    -0.346 OA
BRANCH   7  18
ATOM     12  N   UNL     1       8.200   4.156  22.539  0.00  0.00    -0.343 N 
ATOM     13  H   UNL     1       9.148   4.466  22.370  0.00  0.00    +0.144 HD
ATOM     14  H   UNL     1       7.728   4.680  23.272  0.00  0.00    +0.144 HD
ATOM     15  C   UNL     1       7.980   2.813  22.637  0.00  0.00    +0.123 A 
ATOM     16  C   UNL     1       8.859   1.880  21.916  0.00  0.00    +0.061 A 
ATOM     17  C   UNL     1       8.594   0.586  22.077  0.00  0.00    +0.096 A 
ATOM     18  N   UNL     1       7.541   0.158  22.859  0.00  0.00    -0.270 N 
ATOM     19  C   UNL     1       6.726   1.084  23.528  0.00  0.00    +0.352 A 
ATOM     20  O   UNL     1       5.782   0.716  24.228  0.00  0.00    -0.244 OA
ATOM     21  N   UNL     1       6.996   2.425  23.385  0.00  0.00    -0.178 NA
ENDBRANCH   7  18
BRANCH   9  22
ATOM     22  O   UNL     1      10.522  -2.434  23.058  0.00  0.00    -0.386 OA
ATOM     23  H   UNL     1      10.828  -1.656  23.559  0.00  0.00    +0.210 HD
ENDBRANCH   9  22
BRANCH   8  24
ATOM     24  O   UNL     1       7.418  -3.459  22.007  0.00  0.00    -0.385 OA
ATOM     25  H   UNL     1       7.683  -3.692  21.100  0.00  0.00    +0.210 HD
ENDBRANCH   8  24
ENDBRANCH   6  10
ENDBRANCH   5   6
ENDBRANCH   1   5
BRANCH   1  26
ATOM     26  O   UNL     1       7.244  -5.793  27.087  0.00  0.00    -0.242 OA
BRANCH  26  27
ATOM     27  C   UNL     1       5.884  -5.644  27.461  0.00  0.00    +0.282 C 
ATOM     28  O   UNL     1       5.002  -6.529  26.777  0.00  0.00    -0.331 OA
ATOM     29  C   UNL     1       4.084  -6.060  25.789  0.00  0.00    +0.184 C 
ATOM     30  C   UNL     1       3.482  -4.666  26.058  0.00  0.00    +0.174 C 
ATOM     31  C   UNL     1       4.447  -3.642  26.655  0.00  0.00    +0.151 C 
ATOM     32  C   UNL     1       5.383  -4.219  27.713  0.00  0.00    +0.111 C 
BRANCH  27  33
ATOM     33  C   UNL     1       5.947  -6.389  28.836  0.00  0.00    +0.366 C 
ATOM     34  O   UNL     1       6.319  -5.910  29.899  0.00  0.00    -0.245 OA
BRANCH  33  35
ATOM     35  O   UNL     1       5.558  -7.700  28.734  0.00  0.00    -0.477 OA
ATOM     36  H   UNL     1       5.247  -7.838  27.808  0.00  0.00    +0.295 HD
ENDBRANCH  33  35
ENDBRANCH  27  33
BRANCH  30  37
ATOM     37  O   UNL     1       2.412  -4.842  27.006  0.00  0.00    -0.387 OA
ATOM     38  H   UNL     1       2.516  -5.728  27.403  0.00  0.00    +0.210 HD
ENDBRANCH  30  37
BRANCH  31  39
ATOM     39  O   UNL     1       5.085  -2.879  25.642  0.00  0.00    -0.389 OA
ATOM     40  H   UNL     1       4.640  -2.014  25.521  0.00  0.00    +0.210 HD
ENDBRANCH  31  39
BRANCH  29  41
ATOM     41  C   UNL     1       4.676  -6.312  24.392  0.00  0.00    +0.171 C 
BRANCH  41  42
ATOM     42  O   UNL     1       4.390  -7.676  24.001  0.00  0.00    -0.387 OA
ATOM     43  H   UNL     1       4.565  -7.715  23.039  0.00  0.00    +0.210 HD
ENDBRANCH  41  42
BRANCH  41  44
ATOM     44  C   UNL     1       4.129  -5.390  23.302  0.00  0.00    +0.189 C 
BRANCH  44  45
ATOM     45  O   UNL     1       5.102  -4.363  23.087  0.00  0.00    -0.392 OA
ATOM     46  H   UNL     1       5.462  -4.490  22.190  0.00  0.00    +0.210 HD
ENDBRANCH  44  45
ENDBRANCH  41  44
ENDBRANCH  29  41
ENDBRANCH  26  27
ENDBRANCH   1  26
TORSDOF 17
ENDMDL
MODEL 7
REMARK VINA RESULT:      -6.7      1.621      2.202
REMARK  Name = 
REMARK  17 active torsions:
REMARK  status: ('A' for Active; 'I' for Inactive)
REMARK    1  A    between atoms: N_6  and  C_9
REMARK    2  A    between atoms: C_12  and  C_14
REMARK    3  A    between atoms: C_14  and  O_15
REMARK    4  A    between atoms: O_15  and  P_16
REMARK    5  A    between atoms: P_16  and  O_17
REMARK    6  A    between atoms: P_16  and  O_19
REMARK    7  A    between atoms: O_19  and  C_20
REMARK    8  A    between atoms: C_20  and  C_36
REMARK    9  A    between atoms: C_22  and  O_24
REMARK   10  A    between atoms: C_25  and  O_27
REMARK   11  A    between atoms: C_28  and  C_31
REMARK   12  A    between atoms: C_31  and  O_33
REMARK   13  A    between atoms: C_31  and  C_34
REMARK   14  A    between atoms: C_34  and  O_35
REMARK   15  A    between atoms: C_36  and  O_37
REMARK   16  A    between atoms: C_39  and  O_41
REMARK   17  A    between atoms: C_42  and  O_44
REMARK                            x       y       z     vdW  Elec       q    Type
REMARK                         _______ _______ _______ _____ _____    ______ ____
ROOT
ATOM      1  P   UNL     1       7.343   0.736  26.356  0.00  0.00    +0.478 P 
ATOM      2  O   UNL     1       6.115   1.554  26.146  0.00  0.00    -0.227 OA
ENDROOT
BRANCH   1   3
ATOM      3  O   UNL     1       7.781   0.755  27.894  0.00  0.00    -0.302 OA
ATOM      4  H   UNL     1       8.123   1.633  28.148  0.00  0.00    +0.222 HD
ENDBRANCH   1   3
BRANCH   1   5
ATOM      5  O   UNL     1       7.097  -0.818  26.073  0.00  0.00    -0.284 OA
BRANCH   5   6
ATOM      6  C   UNL     1       8.094  -1.751  26.447  0.00  0.00    +0.206 C 
BRANCH   6  10
ATOM      7  C   UNL     1       7.751  -5.336  25.825  0.00  0.00    +0.255 C 
ATOM      8  C   UNL     1       9.096  -5.096  25.103  0.00  0.00    +0.195 C 
ATOM      9  C   UNL     1       9.221  -3.571  25.011  0.00  0.00    +0.178 C 
ATOM     10  C   UNL     1       7.936  -3.044  25.652  0.00  0.00    +0.178 C 
ATOM     11  O   UNL     1       7.464  -4.096  26.502  0.00  0.00    -0.346 OA
BRANCH   7  18
ATOM     12  N   UNL     1       3.129  -6.549  23.054  0.00  0.00    -0.343 N 
ATOM     13  H   UNL     1       2.860  -5.952  22.283  0.00  0.00    +0.144 HD
ATOM     14  H   UNL     1       2.366  -6.745  23.697  0.00  0.00    +0.144 HD
ATOM     15  C   UNL     1       4.294  -6.263  23.703  0.00  0.00    +0.123 A 
ATOM     16  C   UNL     1       5.385  -5.599  22.973  0.00  0.00    +0.061 A 
ATOM     17  C   UNL     1       6.483  -5.335  23.677  0.00  0.00    +0.096 A 
ATOM     18  N   UNL     1       6.586  -5.685  25.007  0.00  0.00    -0.270 N 
ATOM     19  C   UNL     1       5.520  -6.318  25.665  0.00  0.00    +0.352 A 
ATOM     20  O   UNL     1       5.599  -6.638  26.852  0.00  0.00    -0.244 OA
ATOM     21  N   UNL     1       4.372  -6.586  24.955  0.00  0.00    -0.178 NA
ENDBRANCH   7  18
BRANCH   9  22
ATOM     22  O   UNL     1       9.304  -3.155  23.645  0.00  0.00    -0.386 OA
ATOM     23  H   UNL     1       8.457  -2.731  23.416  0.00  0.00    +0.210 HD
ENDBRANCH   9  22
BRANCH   8  24
ATOM     24  O   UNL     1      10.201  -5.609  25.874  0.00  0.00    -0.385 OA
ATOM     25  H   UNL     1       9.976  -6.512  26.162  0.00  0.00    +0.210 HD
ENDBRANCH   8  24
ENDBRANCH   6  10
ENDBRANCH   5   6
ENDBRANCH   1   5
BRANCH   1  26
ATOM     26  O   UNL     1       8.645   1.193  25.581  0.00  0.00    -0.242 OA
BRANCH  26  27
ATOM     27  C   UNL     1       8.855   1.048  24.185  0.00  0.00    +0.282 C 
ATOM     28  O   UNL     1       9.393   2.212  23.565  0.00  0.00    -0.331 OA
ATOM     29  C   UNL     1       8.615   3.022  22.683  0.00  0.00    +0.184 C 
ATOM     30  C   UNL     1       7.606   2.256  21.803  0.00  0.00    +0.174 C 
ATOM     31  C   UNL     1       6.896   1.089  22.488  0.00  0.00    +0.151 C 
ATOM     32  C   UNL     1       7.800   0.266  23.399  0.00  0.00    +0.111 C 
BRANCH  27  33
ATOM     33  C   UNL     1      10.161   0.187  24.244  0.00  0.00    +0.366 C 
ATOM     34  O   UNL     1      10.519  -0.635  23.410  0.00  0.00    -0.245 OA
BRANCH  33  35
ATOM     35  O   UNL     1      10.888   0.423  25.381  0.00  0.00    -0.477 OA
ATOM     36  H   UNL     1      10.268   0.336  26.144  0.00  0.00    +0.295 HD
ENDBRANCH  33  35
ENDBRANCH  27  33
BRANCH  30  37
ATOM     37  O   UNL     1       8.343   1.711  20.692  0.00  0.00    -0.387 OA
ATOM     38  H   UNL     1       7.987   0.819  20.515  0.00  0.00    +0.210 HD
ENDBRANCH  30  37
BRANCH  31  39
ATOM     39  O   UNL     1       5.670   1.499  23.071  0.00  0.00    -0.389 OA
ATOM     40  H   UNL     1       5.206   0.742  23.486  0.00  0.00    +0.210 HD
ENDBRANCH  31  39
BRANCH  29  41
ATOM     41  C   UNL     1       8.087   4.243  23.456  0.00  0.00    +0.171 C 
BRANCH  41  42
ATOM     42  O   UNL     1       7.212   3.785  24.514  0.00  0.00    -0.387 OA
ATOM     43  H   UNL     1       7.555   2.906  24.775  0.00  0.00    +0.210 HD
ENDBRANCH  41  42
BRANCH  41  44
ATOM     44  C   UNL     1       9.180   5.102  24.095  0.00  0.00    +0.189 C 
BRANCH  44  45
ATOM     45  O   UNL     1       9.752   5.902  23.055  0.00  0.00    -0.392 OA
ATOM     46  H   UNL     1       9.705   5.382  22.232  0.00  0.00    +0.210 HD
ENDBRANCH  44  45
ENDBRANCH  41  44
ENDBRANCH  29  41
ENDBRANCH  26  27
ENDBRANCH   1  26
TORSDOF 17
ENDMDL
MODEL 8
REMARK VINA RESULT:      -6.7      3.475      7.461
REMARK  Name = 
REMARK  17 active torsions:
REMARK  status: ('A' for Active; 'I' for Inactive)
REMARK    1  A    between atoms: N_6  and  C_9
REMARK    2  A    between atoms: C_12  and  C_14
REMARK    3  A    between atoms: C_14  and  O_15
REMARK    4  A    between atoms: O_15  and  P_16
REMARK    5  A    between atoms: P_16  and  O_17
REMARK    6  A    between atoms: P_16  and  O_19
REMARK    7  A    between atoms: O_19  and  C_20
REMARK    8  A    between atoms: C_20  and  C_36
REMARK    9  A    between atoms: C_22  and  O_24
REMARK   10  A    between atoms: C_25  and  O_27
REMARK   11  A    between atoms: C_28  and  C_31
REMARK   12  A    between atoms: C_31  and  O_33
REMARK   13  A    between atoms: C_31  and  C_34
REMARK   14  A    between atoms: C_34  and  O_35
REMARK   15  A    between atoms: C_36  and  O_37
REMARK   16  A    between atoms: C_39  and  O_41
REMARK   17  A    between atoms: C_42  and  O_44
REMARK                            x       y       z     vdW  Elec       q    Type
REMARK                         _______ _______ _______ _____ _____    ______ ____
ROOT
ATOM      1  P   UNL     1       6.116  -1.996  25.882  0.00  0.00    +0.478 P 
ATOM      2  O   UNL     1       5.135  -1.981  27.004  0.00  0.00    -0.227 OA
ENDROOT
BRANCH   1   3
ATOM      3  O   UNL     1       5.366  -1.907  24.472  0.00  0.00    -0.302 OA
ATOM      4  H   UNL     1       4.529  -2.408  24.491  0.00  0.00    +0.222 HD
ENDBRANCH   1   3
BRANCH   1   5
ATOM      5  O   UNL     1       7.052  -0.700  25.872  0.00  0.00    -0.284 OA
BRANCH   5   6
ATOM      6  C   UNL     1       8.439  -0.856  25.636  0.00  0.00    +0.206 C 
BRANCH   6  10
ATOM      7  C   UNL     1       8.541   1.166  22.593  0.00  0.00    +0.255 C 
ATOM      8  C   UNL     1       9.898   0.443  22.445  0.00  0.00    +0.195 C 
ATOM      9  C   UNL     1      10.140  -0.213  23.809  0.00  0.00    +0.178 C 
ATOM     10  C   UNL     1       8.931   0.200  24.651  0.00  0.00    +0.178 C 
ATOM     11  O   UNL     1       7.898   0.527  23.714  0.00  0.00    -0.346 OA
BRANCH   7  18
ATOM     12  N   UNL     1       8.210   6.583  23.630  0.00  0.00    -0.343 N 
ATOM     13  H   UNL     1       8.677   6.944  24.451  0.00  0.00    +0.144 HD
ATOM     14  H   UNL     1       7.251   6.908  23.534  0.00  0.00    +0.144 HD
ATOM     15  C   UNL     1       8.335   5.251  23.363  0.00  0.00    +0.123 A 
ATOM     16  C   UNL     1       9.542   4.534  23.803  0.00  0.00    +0.061 A 
ATOM     17  C   UNL     1       9.582   3.233  23.524  0.00  0.00    +0.096 A 
ATOM     18  N   UNL     1       8.556   2.610  22.844  0.00  0.00    -0.270 N 
ATOM     19  C   UNL     1       7.423   3.334  22.442  0.00  0.00    +0.352 A 
ATOM     20  O   UNL     1       6.500   2.791  21.833  0.00  0.00    -0.244 OA
ATOM     21  N   UNL     1       7.358   4.676  22.735  0.00  0.00    -0.178 NA
ENDBRANCH   7  18
BRANCH   9  22
ATOM     22  O   UNL     1      11.348   0.277  24.396  0.00  0.00    -0.386 OA
ATOM     23  H   UNL     1      11.793   0.831  23.729  0.00  0.00    +0.210 HD
ENDBRANCH   9  22
BRANCH   8  24
ATOM     24  O   UNL     1       9.834  -0.585  21.436  0.00  0.00    -0.385 OA
ATOM     25  H   UNL     1      10.665  -0.564  20.930  0.00  0.00    +0.210 HD
ENDBRANCH   8  24
ENDBRANCH   6  10
ENDBRANCH   5   6
ENDBRANCH   1   5
BRANCH   1  26
ATOM     26  O   UNL     1       7.029  -3.282  25.751  0.00  0.00    -0.242 OA
BRANCH  26  27
ATOM     27  C   UNL     1       6.552  -4.604  25.562  0.00  0.00    +0.282 C 
ATOM     28  O   UNL     1       7.071  -5.239  24.398  0.00  0.00    -0.331 OA
ATOM     29  C   UNL     1       6.254  -5.499  23.256  0.00  0.00    +0.184 C 
ATOM     30  C   UNL     1       4.788  -5.866  23.564  0.00  0.00    +0.174 C 
ATOM     31  C   UNL     1       4.150  -5.093  24.718  0.00  0.00    +0.151 C 
ATOM     32  C   UNL     1       5.083  -4.871  25.903  0.00  0.00    +0.111 C 
BRANCH  27  33
ATOM     33  C   UNL     1       7.440  -5.318  26.636  0.00  0.00    +0.366 C 
ATOM     34  O   UNL     1       7.222  -5.359  27.839  0.00  0.00    -0.245 OA
BRANCH  33  35
ATOM     35  O   UNL     1       8.554  -5.897  26.086  0.00  0.00    -0.477 OA
ATOM     36  H   UNL     1       8.961  -6.463  26.784  0.00  0.00    +0.295 HD
ENDBRANCH  33  35
ENDBRANCH  27  33
BRANCH  30  37
ATOM     37  O   UNL     1       4.768  -7.260  23.927  0.00  0.00    -0.387 OA
ATOM     38  H   UNL     1       5.689  -7.584  23.891  0.00  0.00    +0.210 HD
ENDBRANCH  30  37
BRANCH  31  39
ATOM     39  O   UNL     1       3.482  -3.929  24.254  0.00  0.00    -0.389 OA
ATOM     40  H   UNL     1       4.123  -3.228  24.011  0.00  0.00    +0.210 HD
ENDBRANCH  31  39
BRANCH  29  41
ATOM     41  C   UNL     1       6.497  -4.403  22.204  0.00  0.00    +0.171 C 
BRANCH  41  42
ATOM     42  O   UNL     1       5.346  -3.527  22.165  0.00  0.00    -0.387 OA
ATOM     43  H   UNL     1       4.891  -3.654  23.023  0.00  0.00    +0.210 HD
ENDBRANCH  41  42
BRANCH  41  44
ATOM     44  C   UNL     1       7.731  -3.539  22.470  0.00  0.00    +0.189 C 
BRANCH  44  45
ATOM     45  O   UNL     1       7.321  -2.171  22.369  0.00  0.00    -0.392 OA
ATOM     46  H   UNL     1       8.129  -1.626  22.390  0.00  0.00    +0.210 HD
ENDBRANCH  44  45
ENDBRANCH  41  44
ENDBRANCH  29  41
ENDBRANCH  26  27
ENDBRANCH   1  26
TORSDOF 17
ENDMDL
MODEL 9
REMARK VINA RESULT:      -6.7      3.926      8.104
REMARK  Name = 
REMARK  17 active torsions:
REMARK  status: ('A' for Active; 'I' for Inactive)
REMARK    1  A    between atoms: N_6  and  C_9
REMARK    2  A    between atoms: C_12  and  C_14
REMARK    3  A    between atoms: C_14  and  O_15
REMARK    4  A    between atoms: O_15  and  P_16
REMARK    5  A    between atoms: P_16  and  O_17
REMARK    6  A    between atoms: P_16  and  O_19
REMARK    7  A    between atoms: O_19  and  C_20
REMARK    8  A    between atoms: C_20  and  C_36
REMARK    9  A    between atoms: C_22  and  O_24
REMARK   10  A    between atoms: C_25  and  O_27
REMARK   11  A    between atoms: C_28  and  C_31
REMARK   12  A    between atoms: C_31  and  O_33
REMARK   13  A    between atoms: C_31  and  C_34
REMARK   14  A    between atoms: C_34  and  O_35
REMARK   15  A    between atoms: C_36  and  O_37
REMARK   16  A    between atoms: C_39  and  O_41
REMARK   17  A    between atoms: C_42  and  O_44
REMARK                            x       y       z     vdW  Elec       q    Type
REMARK                         _______ _______ _______ _____ _____    ______ ____
ROOT
ATOM      1  P   UNL     1       6.277  -1.047  25.188  0.00  0.00    +0.478 P 
ATOM      2  O   UNL     1       6.726  -1.256  26.593  0.00  0.00    -0.227 OA
ENDROOT
BRANCH   1   3
ATOM      3  O   UNL     1       4.957  -1.896  24.882  0.00  0.00    -0.302 OA
ATOM      4  H   UNL     1       4.225  -1.314  24.602  0.00  0.00    +0.222 HD
ENDBRANCH   1   3
BRANCH   1   5
ATOM      5  O   UNL     1       5.808   0.456  24.914  0.00  0.00    -0.284 OA
BRANCH   5   6
ATOM      6  C   UNL     1       6.543   1.521  25.487  0.00  0.00    +0.206 C 
BRANCH   6  10
ATOM      7  C   UNL     1       7.621   4.360  23.454  0.00  0.00    +0.255 C 
ATOM      8  C   UNL     1       6.965   3.507  22.344  0.00  0.00    +0.195 C 
ATOM      9  C   UNL     1       6.739   2.136  22.992  0.00  0.00    +0.178 C 
ATOM     10  C   UNL     1       7.303   2.284  24.406  0.00  0.00    +0.178 C 
ATOM     11  O   UNL     1       7.290   3.689  24.686  0.00  0.00    -0.346 OA
BRANCH   7  18
ATOM     12  N   UNL     1      13.058   5.330  23.569  0.00  0.00    -0.343 N 
ATOM     13  H   UNL     1      13.661   4.636  23.991  0.00  0.00    +0.144 HD
ATOM     14  H   UNL     1      13.247   6.277  23.890  0.00  0.00    +0.144 HD
ATOM     15  C   UNL     1      11.722   5.059  23.510  0.00  0.00    +0.123 A 
ATOM     16  C   UNL     1      11.269   3.662  23.435  0.00  0.00    +0.061 A 
ATOM     17  C   UNL     1       9.952   3.476  23.400  0.00  0.00    +0.096 A 
ATOM     18  N   UNL     1       9.075   4.540  23.413  0.00  0.00    -0.270 N 
ATOM     19  C   UNL     1       9.551   5.858  23.484  0.00  0.00    +0.352 A 
ATOM     20  O   UNL     1       8.778   6.818  23.496  0.00  0.00    -0.244 OA
ATOM     21  N   UNL     1      10.909   6.068  23.536  0.00  0.00    -0.178 NA
ENDBRANCH   7  18
BRANCH   9  22
ATOM     22  O   UNL     1       7.446   1.119  22.276  0.00  0.00    -0.386 OA
ATOM     23  H   UNL     1       7.542   1.423  21.355  0.00  0.00    +0.210 HD
ENDBRANCH   9  22
BRANCH   8  24
ATOM     24  O   UNL     1       5.691   4.054  21.949  0.00  0.00    -0.385 OA
ATOM     25  H   UNL     1       5.853   4.894  21.485  0.00  0.00    +0.210 HD
ENDBRANCH   8  24
ENDBRANCH   6  10
ENDBRANCH   5   6
ENDBRANCH   1   5
BRANCH   1  26
ATOM     26  O   UNL     1       7.284  -1.480  24.046  0.00  0.00    -0.242 OA
BRANCH  26  27
ATOM     27  C   UNL     1       8.339  -2.415  24.202  0.00  0.00    +0.282 C 
ATOM     28  O   UNL     1       8.312  -3.471  23.246  0.00  0.00    -0.331 OA
ATOM     29  C   UNL     1       7.972  -4.809  23.614  0.00  0.00    +0.184 C 
ATOM     30  C   UNL     1       8.445  -5.248  25.014  0.00  0.00    +0.174 C 
ATOM     31  C   UNL     1       8.346  -4.178  26.102  0.00  0.00    +0.151 C 
ATOM     32  C   UNL     1       8.740  -2.782  25.633  0.00  0.00    +0.111 C 
BRANCH  27  33
ATOM     33  C   UNL     1       9.491  -1.560  23.575  0.00  0.00    +0.366 C 
ATOM     34  O   UNL     1       9.561  -0.338  23.573  0.00  0.00    -0.245 OA
BRANCH  33  35
ATOM     35  O   UNL     1      10.445  -2.337  22.972  0.00  0.00    -0.477 OA
ATOM     36  H   UNL     1      10.828  -2.920  23.671  0.00  0.00    +0.295 HD
ENDBRANCH  33  35
ENDBRANCH  27  33
BRANCH  30  37
ATOM     37  O   UNL     1       9.835  -5.606  24.899  0.00  0.00    -0.387 OA
ATOM     38  H   UNL     1       9.876  -6.568  24.736  0.00  0.00    +0.210 HD
ENDBRANCH  30  37
BRANCH  31  39
ATOM     39  O   UNL     1       7.106  -4.253  26.789  0.00  0.00    -0.389 OA
ATOM     40  H   UNL     1       6.870  -3.387  27.184  0.00  0.00    +0.210 HD
ENDBRANCH  31  39
BRANCH  29  41
ATOM     41  C   UNL     1       6.499  -5.069  23.256  0.00  0.00    +0.171 C 
BRANCH  41  42
ATOM     42  O   UNL     1       5.661  -4.560  24.320  0.00  0.00    -0.387 OA
ATOM     43  H   UNL     1       4.896  -5.170  24.366  0.00  0.00    +0.210 HD
ENDBRANCH  41  42
BRANCH  41  44
ATOM     44  C   UNL     1       6.044  -4.414  21.951  0.00  0.00    +0.189 C 
BRANCH  44  45
ATOM     45  O   UNL     1       5.415  -3.175  22.295  0.00  0.00    -0.392 OA
ATOM     46  H   UNL     1       4.728  -3.004  21.624  0.00  0.00    +0.210 HD
ENDBRANCH  44  45
ENDBRANCH  41  44
ENDBRANCH  29  41
ENDBRANCH  26  27
ENDBRANCH   1  26
TORSDOF 17
ENDMDL
