MODEL 1
REMARK VINA RESULT:      -7.3      0.000      0.000
REMARK  Name = 
REMARK  10 active torsions:
REMARK  status: ('A' for Active; 'I' for Inactive)
REMARK    1  A    between atoms: C_5  and  C_6
REMARK    2  A    between atoms: C_6  and  O_7
REMARK    3  A    between atoms: O_7  and  C_8
REMARK    4  A    between atoms: C_8  and  C_9
REMARK    5  A    between atoms: CA_11  and  C_29
REMARK    6  A    between atoms: CA_15  and  N_17
REMARK    7  A    between atoms: C_18  and  CA_20
REMARK    8  A    between atoms: CA_20  and  N_22
REMARK    9  A    between atoms: CA_20  and  C_23
REMARK   10  A    between atoms: C_29  and  O_30
REMARK                            x       y       z     vdW  Elec       q    Type
REMARK                         _______ _______ _______ _____ _____    ______ ____
ROOT
ATOM      1  C   UNL     1       7.842  -1.442  25.458  0.00  0.00    +0.169 C 
ATOM      2  CA  UNL     1       9.211  -0.798  25.053  0.00  0.00    +0.191 C 
ATOM      3  C   UNL     1       9.393  -2.128  24.241  0.00  0.00    +0.244 C 
ATOM      4  O   UNL     1      10.231  -2.696  23.584  0.00  0.00    -0.273 OA
ATOM      5  N   UNL     1       8.100  -2.457  24.456  0.00  0.00    -0.249 N 
ATOM      6  CA  UNL     1       7.177  -3.357  23.987  0.00  0.00    +0.125 C 
ATOM      7  C   UNL     1       5.851  -3.145  24.236  0.00  0.00    +0.006 C 
ATOM      8  C   UNL     1       5.302  -1.929  24.960  0.00  0.00    +0.107 C 
ATOM      9  S   UNL     1       6.382  -0.491  24.983  0.00  0.00    -0.131 S 
ENDROOT
BRANCH   2  10
ATOM     10  N   UNL     1       9.112   0.428  24.232  0.00  0.00    -0.300 N 
ATOM     11  H   UNL     1       8.233   0.677  23.771  0.00  0.00    +0.150 HD
ATOM     12  C   UNL     1      10.151   1.291  23.976  0.00  0.00    +0.235 C 
ATOM     13  O   UNL     1      11.273   1.152  24.452  0.00  0.00    -0.274 OA
BRANCH  12  14
ATOM     14  CA  UNL     1       9.748   2.453  23.030  0.00  0.00    +0.168 C 
BRANCH  14  15
ATOM     15  C   UNL     1      10.351   3.771  23.477  0.00  0.00    -0.022 A 
ATOM     16  C   UNL     1      11.697   4.102  23.240  0.00  0.00    +0.005 A 
ATOM     17  C   UNL     1      12.216   5.331  23.656  0.00  0.00    +0.000 A 
ATOM     18  C   UNL     1      11.402   6.240  24.327  0.00  0.00    +0.000 A 
ATOM     19  C   UNL     1      10.074   5.918  24.591  0.00  0.00    +0.000 A 
ATOM     20  C   UNL     1       9.553   4.692  24.174  0.00  0.00    +0.005 A 
ENDBRANCH  14  15
BRANCH  14  21
ATOM     21  N   UNL     1      10.137   2.110  21.631  0.00  0.00    -0.316 NA
ATOM     22  H1  UNL     1      10.569   2.935  21.213  0.00  0.00    +0.119 HD
ATOM     23  H2  UNL     1      10.879   1.411  21.686  0.00  0.00    +0.119 HD
ENDBRANCH  14  21
ENDBRANCH  12  14
ENDBRANCH   2  10
BRANCH   6  24
ATOM     24  C   UNL     1       7.610  -4.537  23.130  0.00  0.00    +0.351 C 
ATOM     25  OXT UNL     1       7.205  -4.726  21.992  0.00  0.00    -0.244 OA
BRANCH  24  26
ATOM     26  O   UNL     1       8.423  -5.447  23.696  0.00  0.00    -0.476 OA
ATOM     27  H   UNL     1       8.011  -6.239  24.108  0.00  0.00    +0.295 HD
ENDBRANCH  24  26
ENDBRANCH   6  24
BRANCH   7  28
ATOM     28  C   UNL     1       4.724  -4.054  23.742  0.00  0.00    +0.266 C 
BRANCH  28  29
ATOM     29  O   UNL     1       4.251  -4.894  24.817  0.00  0.00    -0.460 OA
BRANCH  29  30
ATOM     30  C   UNL     1       4.807  -6.131  24.913  0.00  0.00    +0.304 C 
ATOM     31  O   UNL     1       4.883  -6.954  24.013  0.00  0.00    -0.251 OA
ATOM     32  C   UNL     1       5.274  -6.391  26.314  0.00  0.00    +0.136 C 
ENDBRANCH  29  30
ENDBRANCH  28  29
ENDBRANCH   7  28
TORSDOF 9
ENDMDL
MODEL 2
REMARK VINA RESULT:      -7.3      2.798      3.931
REMARK  Name = 
REMARK  10 active torsions:
REMARK  status: ('A' for Active; 'I' for Inactive)
REMARK    1  A    between atoms: C_5  and  C_6
REMARK    2  A    between atoms: C_6  and  O_7
REMARK    3  A    between atoms: O_7  and  C_8
REMARK    4  A    between atoms: C_8  and  C_9
REMARK    5  A    between atoms: CA_11  and  C_29
REMARK    6  A    between atoms: CA_15  and  N_17
REMARK    7  A    between atoms: C_18  and  CA_20
REMARK    8  A    between atoms: CA_20  and  N_22
REMARK    9  A    between atoms: CA_20  and  C_23
REMARK   10  A    between atoms: C_29  and  O_30
REMARK                            x       y       z     vdW  Elec       q    Type
REMARK                         _______ _______ _______ _____ _____    ______ ____
ROOT
ATOM      1  C   UNL     1       7.697  -5.232  25.473  0.00  0.00    +0.169 C 
ATOM      2  CA  UNL     1       8.702  -4.520  24.506  0.00  0.00    +0.191 C 
ATOM      3  C   UNL     1       7.580  -4.771  23.440  0.00  0.00    +0.244 C 
ATOM      4  O   UNL     1       7.396  -4.650  22.253  0.00  0.00    -0.273 OA
ATOM      5  N   UNL     1       6.714  -5.135  24.411  0.00  0.00    -0.249 N 
ATOM      6  CA  UNL     1       5.368  -5.354  24.558  0.00  0.00    +0.125 C 
ATOM      7  C   UNL     1       4.830  -5.392  25.813  0.00  0.00    +0.006 C 
ATOM      8  C   UNL     1       5.618  -5.144  27.088  0.00  0.00    +0.107 C 
ATOM      9  S   UNL     1       7.156  -4.237  26.880  0.00  0.00    -0.131 S 
ENDROOT
BRANCH   2  10
ATOM     10  N   UNL     1       8.969  -3.097  24.812  0.00  0.00    -0.300 N 
ATOM     11  H   UNL     1       8.514  -2.641  25.606  0.00  0.00    +0.150 HD
ATOM     12  C   UNL     1       9.778  -2.270  24.069  0.00  0.00    +0.235 C 
ATOM     13  O   UNL     1      10.408  -2.651  23.088  0.00  0.00    -0.274 OA
BRANCH  12  14
ATOM     14  CA  UNL     1       9.808  -0.816  24.609  0.00  0.00    +0.168 C 
BRANCH  14  15
ATOM     15  C   UNL     1       9.271   0.169  23.587  0.00  0.00    -0.022 A 
ATOM     16  C   UNL     1      10.115   0.962  22.791  0.00  0.00    +0.005 A 
ATOM     17  C   UNL     1       9.585   1.850  21.851  0.00  0.00    +0.000 A 
ATOM     18  C   UNL     1       8.205   1.968  21.703  0.00  0.00    +0.000 A 
ATOM     19  C   UNL     1       7.355   1.208  22.502  0.00  0.00    +0.000 A 
ATOM     20  C   UNL     1       7.882   0.318  23.439  0.00  0.00    +0.005 A 
ENDBRANCH  14  15
BRANCH  14  21
ATOM     21  N   UNL     1       9.055  -0.750  25.894  0.00  0.00    -0.316 NA
ATOM     22  H1  UNL     1       8.374   0.007  25.821  0.00  0.00    +0.119 HD
ATOM     23  H2  UNL     1       8.504  -1.606  25.968  0.00  0.00    +0.119 HD
ENDBRANCH  14  21
ENDBRANCH  12  14
ENDBRANCH   2  10
BRANCH   6  24
ATOM     24  C   UNL     1       4.463  -5.476  23.341  0.00  0.00    +0.351 C 
ATOM     25  OXT UNL     1       3.914  -4.520  22.813  0.00  0.00    -0.244 OA
BRANCH  24  26
ATOM     26  O   UNL     1       4.210  -6.714  22.880  0.00  0.00    -0.476 OA
ATOM     27  H   UNL     1       4.002  -6.815  21.925  0.00  0.00    +0.295 HD
ENDBRANCH  24  26
ENDBRANCH   6  24
BRANCH   7  28
ATOM     28  C   UNL     1       3.343  -5.596  26.109  0.00  0.00    +0.266 C 
BRANCH  28  29
ATOM     29  O   UNL     1       3.078  -6.985  26.404  0.00  0.00    -0.460 OA
BRANCH  29  30
ATOM     30  C   UNL     1       2.365  -7.678  25.476  0.00  0.00    +0.304 C 
ATOM     31  O   UNL     1       2.793  -8.581  24.773  0.00  0.00    -0.251 OA
ATOM     32  C   UNL     1       0.969  -7.142  25.377  0.00  0.00    +0.136 C 
ENDBRANCH  29  30
ENDBRANCH  28  29
ENDBRANCH   7  28
TORSDOF 9
ENDMDL
MODEL 3
REMARK VINA RESULT:      -7.1      2.498      8.641
REMARK  Name = 
REMARK  10 active torsions:
REMARK  status: ('A' for Active; 'I' for Inactive)
REMARK    1  A    between atoms: C_5  and  C_6
REMARK    2  A    between atoms: C_6  and  O_7
REMARK    3  A    between atoms: O_7  and  C_8
REMARK    4  A    between atoms: C_8  and  C_9
REMARK    5  A    between atoms: CA_11  and  C_29
REMARK    6  A    between atoms: CA_15  and  N_17
REMARK    7  A    between atoms: C_18  and  CA_20
REMARK    8  A    between atoms: CA_20  and  N_22
REMARK    9  A    between atoms: CA_20  and  C_23
REMARK   10  A    between atoms: C_29  and  O_30
REMARK                            x       y       z     vdW  Elec       q    Type
REMARK                         _______ _______ _______ _____ _____    ______ ____
ROOT
ATOM      1  C   UNL     1       7.148  -1.039  22.843  0.00  0.00    +0.169 C 
ATOM      2  CA  UNL     1       7.999  -2.352  22.785  0.00  0.00    +0.191 C 
ATOM      3  C   UNL     1       9.175  -1.365  22.465  0.00  0.00    +0.244 C 
ATOM      4  O   UNL     1      10.340  -1.395  22.149  0.00  0.00    -0.273 OA
ATOM      5  N   UNL     1       8.399  -0.307  22.788  0.00  0.00    -0.249 N 
ATOM      6  CA  UNL     1       8.543   1.032  23.045  0.00  0.00    +0.125 C 
ATOM      7  C   UNL     1       7.532   1.705  23.670  0.00  0.00    +0.006 C 
ATOM      8  C   UNL     1       6.253   1.055  24.167  0.00  0.00    +0.107 C 
ATOM      9  S   UNL     1       6.341  -0.722  24.427  0.00  0.00    -0.131 S 
ENDROOT
BRANCH   2  10
ATOM     10  N   UNL     1       8.122  -3.080  24.067  0.00  0.00    -0.300 N 
ATOM     11  H   UNL     1       8.141  -2.572  24.954  0.00  0.00    +0.150 HD
ATOM     12  C   UNL     1       8.267  -4.442  24.189  0.00  0.00    +0.235 C 
ATOM     13  O   UNL     1       8.258  -5.207  23.230  0.00  0.00    -0.274 OA
BRANCH  12  14
ATOM     14  CA  UNL     1       8.435  -4.898  25.662  0.00  0.00    +0.168 C 
BRANCH  14  15
ATOM     15  C   UNL     1       7.135  -5.437  26.230  0.00  0.00    -0.022 A 
ATOM     16  C   UNL     1       6.048  -5.793  25.413  0.00  0.00    +0.005 A 
ATOM     17  C   UNL     1       4.870  -6.299  25.971  0.00  0.00    +0.000 A 
ATOM     18  C   UNL     1       4.757  -6.442  27.351  0.00  0.00    +0.000 A 
ATOM     19  C   UNL     1       5.816  -6.071  28.176  0.00  0.00    +0.000 A 
ATOM     20  C   UNL     1       6.994  -5.569  27.621  0.00  0.00    +0.005 A 
ENDBRANCH  14  15
BRANCH  14  21
ATOM     21  N   UNL     1       9.537  -5.899  25.747  0.00  0.00    -0.316 NA
ATOM     22  H1  UNL     1       9.806  -6.153  24.796  0.00  0.00    +0.119 HD
ATOM     23  H2  UNL     1      10.349  -5.423  26.143  0.00  0.00    +0.119 HD
ENDBRANCH  14  21
ENDBRANCH  12  14
ENDBRANCH   2  10
BRANCH   6  24
ATOM     24  C   UNL     1       9.842   1.751  22.714  0.00  0.00    +0.351 C 
ATOM     25  OXT UNL     1      10.766   1.869  23.506  0.00  0.00    -0.244 OA
BRANCH  24  26
ATOM     26  O   UNL     1       9.932   2.343  21.509  0.00  0.00    -0.476 OA
ATOM     27  H   UNL     1       9.122   2.759  21.140  0.00  0.00    +0.295 HD
ENDBRANCH  24  26
ENDBRANCH   6  24
BRANCH   7  28
ATOM     28  C   UNL     1       7.582   3.188  24.042  0.00  0.00    +0.266 C 
BRANCH  28  29
ATOM     29  O   UNL     1       7.509   4.005  22.852  0.00  0.00    -0.460 OA
BRANCH  29  30
ATOM     30  C   UNL     1       8.078   5.237  22.924  0.00  0.00    +0.304 C 
ATOM     31  O   UNL     1       7.776   6.207  22.244  0.00  0.00    -0.251 OA
ATOM     32  C   UNL     1       9.192   5.245  23.927  0.00  0.00    +0.136 C 
ENDBRANCH  29  30
ENDBRANCH  28  29
ENDBRANCH   7  28
TORSDOF 9
ENDMDL
MODEL 4
REMARK VINA RESULT:      -7.0      1.204      1.880
REMARK  Name = 
REMARK  10 active torsions:
REMARK  status: ('A' for Active; 'I' for Inactive)
REMARK    1  A    between atoms: C_5  and  C_6
REMARK    2  A    between atoms: C_6  and  O_7
REMARK    3  A    between atoms: O_7  and  C_8
REMARK    4  A    between atoms: C_8  and  C_9
REMARK    5  A    between atoms: CA_11  and  C_29
REMARK    6  A    between atoms: CA_15  and  N_17
REMARK    7  A    between atoms: C_18  and  CA_20
REMARK    8  A    between atoms: CA_20  and  N_22
REMARK    9  A    between atoms: CA_20  and  C_23
REMARK   10  A    between atoms: C_29  and  O_30
REMARK                            x       y       z     vdW  Elec       q    Type
REMARK                         _______ _______ _______ _____ _____    ______ ____
ROOT
ATOM      1  C   UNL     1       8.705  -1.732  25.865  0.00  0.00    +0.169 C 
ATOM      2  CA  UNL     1       9.708  -0.877  25.019  0.00  0.00    +0.191 C 
ATOM      3  C   UNL     1       9.713  -2.135  24.082  0.00  0.00    +0.244 C 
ATOM      4  O   UNL     1      10.281  -2.548  23.100  0.00  0.00    -0.273 OA
ATOM      5  N   UNL     1       8.664  -2.661  24.752  0.00  0.00    -0.249 N 
ATOM      6  CA  UNL     1       7.748  -3.671  24.599  0.00  0.00    +0.125 C 
ATOM      7  C   UNL     1       6.617  -3.668  25.364  0.00  0.00    +0.006 C 
ATOM      8  C   UNL     1       6.257  -2.574  26.354  0.00  0.00    +0.107 C 
ATOM      9  S   UNL     1       7.071  -0.993  26.086  0.00  0.00    -0.131 S 
ENDROOT
BRANCH   2  10
ATOM     10  N   UNL     1       9.140   0.349  24.418  0.00  0.00    -0.300 N 
ATOM     11  H   UNL     1       8.138   0.419  24.226  0.00  0.00    +0.150 HD
ATOM     12  C   UNL     1       9.870   1.448  24.031  0.00  0.00    +0.235 C 
ATOM     13  O   UNL     1      11.082   1.540  24.194  0.00  0.00    -0.274 OA
BRANCH  12  14
ATOM     14  CA  UNL     1       8.996   2.550  23.377  0.00  0.00    +0.168 C 
BRANCH  14  15
ATOM     15  C   UNL     1       9.138   3.877  24.099  0.00  0.00    -0.022 A 
ATOM     16  C   UNL     1       8.318   4.235  25.184  0.00  0.00    +0.005 A 
ATOM     17  C   UNL     1       8.486   5.461  25.833  0.00  0.00    +0.000 A 
ATOM     18  C   UNL     1       9.465   6.351  25.401  0.00  0.00    +0.000 A 
ATOM     19  C   UNL     1      10.269   6.023  24.313  0.00  0.00    +0.000 A 
ATOM     20  C   UNL     1      10.105   4.797  23.664  0.00  0.00    +0.005 A 
ENDBRANCH  14  15
BRANCH  14  21
ATOM     21  N   UNL     1       9.344   2.664  21.931  0.00  0.00    -0.316 NA
ATOM     22  H1  UNL     1      10.159   2.075  21.756  0.00  0.00    +0.119 HD
ATOM     23  H2  UNL     1       8.581   2.240  21.402  0.00  0.00    +0.119 HD
ENDBRANCH  14  21
ENDBRANCH  12  14
ENDBRANCH   2  10
BRANCH   6  24
ATOM     24  C   UNL     1       7.944  -4.742  23.537  0.00  0.00    +0.351 C 
ATOM     25  OXT UNL     1       8.588  -5.764  23.723  0.00  0.00    -0.244 OA
BRANCH  24  26
ATOM     26  O   UNL     1       7.437  -4.501  22.315  0.00  0.00    -0.476 OA
ATOM     27  H   UNL     1       7.388  -3.567  22.013  0.00  0.00    +0.295 HD
ENDBRANCH  24  26
ENDBRANCH   6  24
BRANCH   7  28
ATOM     28  C   UNL     1       5.507  -4.716  25.267  0.00  0.00    +0.266 C 
BRANCH  28  29
ATOM     29  O   UNL     1       4.340  -4.151  24.630  0.00  0.00    -0.460 OA
BRANCH  29  30
ATOM     30  C   UNL     1       4.088  -4.551  23.355  0.00  0.00    +0.304 C 
ATOM     31  O   UNL     1       4.648  -4.137  22.351  0.00  0.00    -0.251 OA
ATOM     32  C   UNL     1       2.967  -5.546  23.328  0.00  0.00    +0.136 C 
ENDBRANCH  29  30
ENDBRANCH  28  29
ENDBRANCH   7  28
TORSDOF 9
ENDMDL
MODEL 5
REMARK VINA RESULT:      -7.0      2.328      3.320
REMARK  Name = 
REMARK  10 active torsions:
REMARK  status: ('A' for Active; 'I' for Inactive)
REMARK    1  A    between atoms: C_5  and  C_6
REMARK    2  A    between atoms: C_6  and  O_7
REMARK    3  A    between atoms: O_7  and  C_8
REMARK    4  A    between atoms: C_8  and  C_9
REMARK    5  A    between atoms: CA_11  and  C_29
REMARK    6  A    between atoms: CA_15  and  N_17
REMARK    7  A    between atoms: C_18  and  CA_20
REMARK    8  A    between atoms: CA_20  and  N_22
REMARK    9  A    between atoms: CA_20  and  C_23
REMARK   10  A    between atoms: C_29  and  O_30
REMARK                            x       y       z     vdW  Elec       q    Type
REMARK                         _______ _______ _______ _____ _____    ______ ____
ROOT
ATOM      1  C   UNL     1       6.864  -1.302  22.722  0.00  0.00    +0.169 C 
ATOM      2  CA  UNL     1       6.962   0.233  23.017  0.00  0.00    +0.191 C 
ATOM      3  C   UNL     1       5.922  -0.097  24.143  0.00  0.00    +0.244 C 
ATOM      4  O   UNL     1       5.240   0.472  24.961  0.00  0.00    -0.273 OA
ATOM      5  N   UNL     1       6.114  -1.422  23.958  0.00  0.00    -0.249 N 
ATOM      6  CA  UNL     1       5.824  -2.602  24.594  0.00  0.00    +0.125 C 
ATOM      7  C   UNL     1       6.496  -3.736  24.238  0.00  0.00    +0.006 C 
ATOM      8  C   UNL     1       7.610  -3.781  23.207  0.00  0.00    +0.107 C 
ATOM      9  S   UNL     1       8.418  -2.209  22.876  0.00  0.00    -0.131 S 
ENDROOT
BRANCH   2  10
ATOM     10  N   UNL     1       8.280   0.699  23.499  0.00  0.00    -0.300 N 
ATOM     11  H   UNL     1       8.551   0.576  24.477  0.00  0.00    +0.150 HD
ATOM     12  C   UNL     1       9.212   1.357  22.731  0.00  0.00    +0.235 C 
ATOM     13  O   UNL     1       9.058   1.584  21.535  0.00  0.00    -0.274 OA
BRANCH  12  14
ATOM     14  CA  UNL     1      10.470   1.772  23.538  0.00  0.00    +0.168 C 
BRANCH  14  15
ATOM     15  C   UNL     1      10.568   3.280  23.682  0.00  0.00    -0.022 A 
ATOM     16  C   UNL     1       9.494   4.063  24.139  0.00  0.00    +0.005 A 
ATOM     17  C   UNL     1       9.623   5.448  24.271  0.00  0.00    +0.000 A 
ATOM     18  C   UNL     1      10.822   6.072  23.934  0.00  0.00    +0.000 A 
ATOM     19  C   UNL     1      11.887   5.314  23.456  0.00  0.00    +0.000 A 
ATOM     20  C   UNL     1      11.761   3.929  23.326  0.00  0.00    +0.005 A 
ENDBRANCH  14  15
BRANCH  14  21
ATOM     21  N   UNL     1      10.457   1.087  24.862  0.00  0.00    -0.316 NA
ATOM     22  H1  UNL     1       9.486   0.879  25.099  0.00  0.00    +0.119 HD
ATOM     23  H2  UNL     1      10.909   0.180  24.739  0.00  0.00    +0.119 HD
ENDBRANCH  14  21
ENDBRANCH  12  14
ENDBRANCH   2  10
BRANCH   6  24
ATOM     24  C   UNL     1       4.822  -2.640  25.739  0.00  0.00    +0.351 C 
ATOM     25  OXT UNL     1       3.611  -2.637  25.573  0.00  0.00    -0.244 OA
BRANCH  24  26
ATOM     26  O   UNL     1       5.312  -2.602  26.991  0.00  0.00    -0.476 OA
ATOM     27  H   UNL     1       6.289  -2.607  27.103  0.00  0.00    +0.295 HD
ENDBRANCH  24  26
ENDBRANCH   6  24
BRANCH   7  28
ATOM     28  C   UNL     1       6.288  -5.103  24.892  0.00  0.00    +0.266 C 
BRANCH  28  29
ATOM     29  O   UNL     1       7.520  -5.564  25.490  0.00  0.00    -0.460 OA
BRANCH  29  30
ATOM     30  C   UNL     1       7.872  -4.992  26.673  0.00  0.00    +0.304 C 
ATOM     31  O   UNL     1       7.161  -4.895  27.661  0.00  0.00    -0.251 OA
ATOM     32  C   UNL     1       9.259  -4.428  26.591  0.00  0.00    +0.136 C 
ENDBRANCH  29  30
ENDBRANCH  28  29
ENDBRANCH   7  28
TORSDOF 9
ENDMDL
MODEL 6
REMARK VINA RESULT:      -6.9      2.347      3.395
REMARK  Name = 
REMARK  10 active torsions:
REMARK  status: ('A' for Active; 'I' for Inactive)
REMARK    1  A    between atoms: C_5  and  C_6
REMARK    2  A    between atoms: C_6  and  O_7
REMARK    3  A    between atoms: O_7  and  C_8
REMARK    4  A    between atoms: C_8  and  C_9
REMARK    5  A    between atoms: CA_11  and  C_29
REMARK    6  A    between atoms: CA_15  and  N_17
REMARK    7  A    between atoms: C_18  and  CA_20
REMARK    8  A    between atoms: CA_20  and  N_22
REMARK    9  A    between atoms: CA_20  and  C_23
REMARK   10  A    between atoms: C_29  and  O_30
REMARK                            x       y       z     vdW  Elec       q    Type
REMARK                         _______ _______ _______ _____ _____    ______ ____
ROOT
ATOM      1  C   UNL     1       8.885  -4.181  24.689  0.00  0.00    +0.169 C 
ATOM      2  CA  UNL     1       9.218  -2.957  23.771  0.00  0.00    +0.191 C 
ATOM      3  C   UNL     1       7.924  -3.406  23.006  0.00  0.00    +0.244 C 
ATOM      4  O   UNL     1       7.306  -3.131  22.006  0.00  0.00    -0.273 OA
ATOM      5  N   UNL     1       7.611  -4.263  24.002  0.00  0.00    -0.249 N 
ATOM      6  CA  UNL     1       6.538  -5.013  24.413  0.00  0.00    +0.125 C 
ATOM      7  C   UNL     1       6.517  -5.506  25.687  0.00  0.00    +0.006 C 
ATOM      8  C   UNL     1       7.589  -5.232  26.727  0.00  0.00    +0.107 C 
ATOM      9  S   UNL     1       8.602  -3.777  26.426  0.00  0.00    -0.131 S 
ENDROOT
BRANCH   2  10
ATOM     10  N   UNL     1       9.131  -1.635  24.428  0.00  0.00    -0.300 N 
ATOM     11  H   UNL     1       8.509  -1.490  25.226  0.00  0.00    +0.150 HD
ATOM     12  C   UNL     1       9.806  -0.507  24.023  0.00  0.00    +0.235 C 
ATOM     13  O   UNL     1      10.600  -0.500  23.088  0.00  0.00    -0.274 OA
BRANCH  12  14
ATOM     14  CA  UNL     1       9.458   0.740  24.877  0.00  0.00    +0.168 C 
BRANCH  14  15
ATOM     15  C   UNL     1       8.780   1.813  24.045  0.00  0.00    -0.022 A 
ATOM     16  C   UNL     1       7.786   1.514  23.097  0.00  0.00    +0.005 A 
ATOM     17  C   UNL     1       7.174   2.529  22.358  0.00  0.00    +0.000 A 
ATOM     18  C   UNL     1       7.555   3.855  22.544  0.00  0.00    +0.000 A 
ATOM     19  C   UNL     1       8.556   4.166  23.461  0.00  0.00    +0.000 A 
ATOM     20  C   UNL     1       9.166   3.153  24.203  0.00  0.00    +0.005 A 
ENDBRANCH  14  15
BRANCH  14  21
ATOM     21  N   UNL     1       8.621   0.326  26.040  0.00  0.00    -0.316 NA
ATOM     22  H1  UNL     1       8.432   1.157  26.603  0.00  0.00    +0.119 HD
ATOM     23  H2  UNL     1       7.715   0.034  25.672  0.00  0.00    +0.119 HD
ENDBRANCH  14  21
ENDBRANCH  12  14
ENDBRANCH   2  10
BRANCH   6  24
ATOM     24  C   UNL     1       5.345  -5.230  23.495  0.00  0.00    +0.351 C 
ATOM     25  OXT UNL     1       4.402  -4.455  23.422  0.00  0.00    -0.244 OA
BRANCH  24  26
ATOM     26  O   UNL     1       5.310  -6.374  22.788  0.00  0.00    -0.476 OA
ATOM     27  H   UNL     1       4.813  -7.133  23.166  0.00  0.00    +0.295 HD
ENDBRANCH  24  26
ENDBRANCH   6  24
BRANCH   7  28
ATOM     28  C   UNL     1       5.368  -6.326  26.276  0.00  0.00    +0.266 C 
BRANCH  28  29
ATOM     29  O   UNL     1       4.920  -5.739  27.518  0.00  0.00    -0.460 OA
BRANCH  29  30
ATOM     30  C   UNL     1       5.133  -6.467  28.646  0.00  0.00    +0.304 C 
ATOM     31  O   UNL     1       5.633  -7.581  28.696  0.00  0.00    -0.251 OA
ATOM     32  C   UNL     1       4.607  -5.741  29.848  0.00  0.00    +0.136 C 
ENDBRANCH  29  30
ENDBRANCH  28  29
ENDBRANCH   7  28
TORSDOF 9
ENDMDL
MODEL 7
REMARK VINA RESULT:      -6.8      2.925      3.640
REMARK  Name = 
REMARK  10 active torsions:
REMARK  status: ('A' for Active; 'I' for Inactive)
REMARK    1  A    between atoms: C_5  and  C_6
REMARK    2  A    between atoms: C_6  and  O_7
REMARK    3  A    between atoms: O_7  and  C_8
REMARK    4  A    between atoms: C_8  and  C_9
REMARK    5  A    between atoms: CA_11  and  C_29
REMARK    6  A    between atoms: CA_15  and  N_17
REMARK    7  A    between atoms: C_18  and  CA_20
REMARK    8  A    between atoms: CA_20  and  N_22
REMARK    9  A    between atoms: CA_20  and  C_23
REMARK   10  A    between atoms: C_29  and  O_30
REMARK                            x       y       z     vdW  Elec       q    Type
REMARK                         _______ _______ _______ _____ _____    ______ ____
ROOT
ATOM      1  C   UNL     1       8.772  -1.561  25.843  0.00  0.00    +0.169 C 
ATOM      2  CA  UNL     1       9.465  -0.826  24.647  0.00  0.00    +0.191 C 
ATOM      3  C   UNL     1       9.862  -2.280  24.214  0.00  0.00    +0.244 C 
ATOM      4  O   UNL     1      10.534  -2.840  23.383  0.00  0.00    -0.273 OA
ATOM      5  N   UNL     1       9.025  -2.802  25.137  0.00  0.00    -0.249 N 
ATOM      6  CA  UNL     1       8.467  -4.016  25.449  0.00  0.00    +0.125 C 
ATOM      7  C   UNL     1       7.387  -4.061  26.284  0.00  0.00    +0.006 C 
ATOM      8  C   UNL     1       6.703  -2.834  26.862  0.00  0.00    +0.107 C 
ATOM      9  S   UNL     1       6.990  -1.299  25.970  0.00  0.00    -0.131 S 
ENDROOT
BRANCH   2  10
ATOM     10  N   UNL     1       8.547  -0.125  23.722  0.00  0.00    -0.300 N 
ATOM     11  H   UNL     1       7.898  -0.652  23.134  0.00  0.00    +0.150 HD
ATOM     12  C   UNL     1       8.510   1.236  23.530  0.00  0.00    +0.235 C 
ATOM     13  O   UNL     1       9.214   2.022  24.155  0.00  0.00    -0.274 OA
BRANCH  12  14
ATOM     14  CA  UNL     1       7.483   1.662  22.448  0.00  0.00    +0.168 C 
BRANCH  14  15
ATOM     15  C   UNL     1       6.356   2.485  23.042  0.00  0.00    -0.022 A 
ATOM     16  C   UNL     1       5.535   2.002  24.076  0.00  0.00    +0.005 A 
ATOM     17  C   UNL     1       4.514   2.793  24.608  0.00  0.00    +0.000 A 
ATOM     18  C   UNL     1       4.289   4.072  24.106  0.00  0.00    +0.000 A 
ATOM     19  C   UNL     1       5.077   4.557  23.065  0.00  0.00    +0.000 A 
ATOM     20  C   UNL     1       6.100   3.769  22.534  0.00  0.00    +0.005 A 
ENDBRANCH  14  15
BRANCH  14  21
ATOM     21  N   UNL     1       8.190   2.393  21.356  0.00  0.00    -0.316 NA
ATOM     22  H1  UNL     1       8.844   1.744  20.915  0.00  0.00    +0.119 HD
ATOM     23  H2  UNL     1       7.496   2.610  20.639  0.00  0.00    +0.119 HD
ENDBRANCH  14  21
ENDBRANCH  12  14
ENDBRANCH   2  10
BRANCH   6  24
ATOM     24  C   UNL     1       8.988  -5.296  24.813  0.00  0.00    +0.351 C 
ATOM     25  OXT UNL     1       8.604  -5.715  23.731  0.00  0.00    -0.244 OA
BRANCH  24  26
ATOM     26  O   UNL     1       9.864  -6.028  25.525  0.00  0.00    -0.476 OA
ATOM     27  H   UNL     1       9.844  -5.944  26.504  0.00  0.00    +0.295 HD
ENDBRANCH  24  26
ENDBRANCH   6  24
BRANCH   7  28
ATOM     28  C   UNL     1       6.656  -5.344  26.682  0.00  0.00    +0.266 C 
BRANCH  28  29
ATOM     29  O   UNL     1       7.048  -5.751  28.011  0.00  0.00    -0.460 OA
BRANCH  29  30
ATOM     30  C   UNL     1       6.104  -6.384  28.757  0.00  0.00    +0.304 C 
ATOM     31  O   UNL     1       5.702  -7.526  28.585  0.00  0.00    -0.251 OA
ATOM     32  C   UNL     1       5.558  -5.464  29.807  0.00  0.00    +0.136 C 
ENDBRANCH  29  30
ENDBRANCH  28  29
ENDBRANCH   7  28
TORSDOF 9
ENDMDL
MODEL 8
REMARK VINA RESULT:      -6.7      2.180      2.856
REMARK  Name = 
REMARK  10 active torsions:
REMARK  status: ('A' for Active; 'I' for Inactive)
REMARK    1  A    between atoms: C_5  and  C_6
REMARK    2  A    between atoms: C_6  and  O_7
REMARK    3  A    between atoms: O_7  and  C_8
REMARK    4  A    between atoms: C_8  and  C_9
REMARK    5  A    between atoms: CA_11  and  C_29
REMARK    6  A    between atoms: CA_15  and  N_17
REMARK    7  A    between atoms: C_18  and  CA_20
REMARK    8  A    between atoms: CA_20  and  N_22
REMARK    9  A    between atoms: CA_20  and  C_23
REMARK   10  A    between atoms: C_29  and  O_30
REMARK                            x       y       z     vdW  Elec       q    Type
REMARK                         _______ _______ _______ _____ _____    ______ ____
ROOT
ATOM      1  C   UNL     1       9.163  -3.262  24.508  0.00  0.00    +0.169 C 
ATOM      2  CA  UNL     1       9.768  -1.984  23.834  0.00  0.00    +0.191 C 
ATOM      3  C   UNL     1       8.857  -2.405  22.629  0.00  0.00    +0.244 C 
ATOM      4  O   UNL     1       8.636  -2.083  21.487  0.00  0.00    -0.273 OA
ATOM      5  N   UNL     1       8.230  -3.321  23.400  0.00  0.00    -0.249 N 
ATOM      6  CA  UNL     1       7.106  -4.106  23.355  0.00  0.00    +0.125 C 
ATOM      7  C   UNL     1       6.638  -4.670  24.508  0.00  0.00    +0.006 C 
ATOM      8  C   UNL     1       7.249  -4.441  25.880  0.00  0.00    +0.107 C 
ATOM      9  S   UNL     1       8.255  -2.959  26.039  0.00  0.00    -0.131 S 
ENDROOT
BRANCH   2  10
ATOM     10  N   UNL     1       9.405  -0.702  24.475  0.00  0.00    -0.300 N 
ATOM     11  H   UNL     1       8.806  -0.685  25.303  0.00  0.00    +0.150 HD
ATOM     12  C   UNL     1       9.777   0.541  24.019  0.00  0.00    +0.235 C 
ATOM     13  O   UNL     1      10.502   0.709  23.044  0.00  0.00    -0.274 OA
BRANCH  12  14
ATOM     14  CA  UNL     1       9.188   1.695  24.872  0.00  0.00    +0.168 C 
BRANCH  14  15
ATOM     15  C   UNL     1       8.516   2.742  24.004  0.00  0.00    -0.022 A 
ATOM     16  C   UNL     1       7.524   2.415  23.063  0.00  0.00    +0.005 A 
ATOM     17  C   UNL     1       6.918   3.408  22.289  0.00  0.00    +0.000 A 
ATOM     18  C   UNL     1       7.302   4.738  22.434  0.00  0.00    +0.000 A 
ATOM     19  C   UNL     1       8.300   5.076  23.344  0.00  0.00    +0.000 A 
ATOM     20  C   UNL     1       8.906   4.086  24.120  0.00  0.00    +0.005 A 
ENDBRANCH  14  15
BRANCH  14  21
ATOM     21  N   UNL     1       8.254   1.132  25.889  0.00  0.00    -0.316 NA
ATOM     22  H1  UNL     1       8.306   1.719  26.722  0.00  0.00    +0.119 HD
ATOM     23  H2  UNL     1       7.306   1.252  25.529  0.00  0.00    +0.119 HD
ENDBRANCH  14  21
ENDBRANCH  12  14
ENDBRANCH   2  10
BRANCH   6  24
ATOM     24  C   UNL     1       6.336  -4.287  22.056  0.00  0.00    +0.351 C 
ATOM     25  OXT UNL     1       6.459  -5.265  21.332  0.00  0.00    -0.244 OA
BRANCH  24  26
ATOM     26  O   UNL     1       5.539  -3.277  21.663  0.00  0.00    -0.476 OA
ATOM     27  H   UNL     1       5.439  -2.508  22.267  0.00  0.00    +0.295 HD
ENDBRANCH  24  26
ENDBRANCH   6  24
BRANCH   7  28
ATOM     28  C   UNL     1       5.380  -5.535  24.598  0.00  0.00    +0.266 C 
BRANCH  28  29
ATOM     29  O   UNL     1       4.335  -4.827  25.299  0.00  0.00    -0.460 OA
BRANCH  29  30
ATOM     30  C   UNL     1       3.220  -4.522  24.583  0.00  0.00    +0.304 C 
ATOM     31  O   UNL     1       2.379  -3.689  24.887  0.00  0.00    -0.251 OA
ATOM     32  C   UNL     1       3.116  -5.401  23.373  0.00  0.00    +0.136 C 
ENDBRANCH  29  30
ENDBRANCH  28  29
ENDBRANCH   7  28
TORSDOF 9
ENDMDL
MODEL 9
REMARK VINA RESULT:      -6.6      1.437      2.144
REMARK  Name = 
REMARK  10 active torsions:
REMARK  status: ('A' for Active; 'I' for Inactive)
REMARK    1  A    between atoms: C_5  and  C_6
REMARK    2  A    between atoms: C_6  and  O_7
REMARK    3  A    between atoms: O_7  and  C_8
REMARK    4  A    between atoms: C_8  and  C_9
REMARK    5  A    between atoms: CA_11  and  C_29
REMARK    6  A    between atoms: CA_15  and  N_17
REMARK    7  A    between atoms: C_18  and  CA_20
REMARK    8  A    between atoms: CA_20  and  N_22
REMARK    9  A    between atoms: CA_20  and  C_23
REMARK   10  A    between atoms: C_29  and  O_30
REMARK                            x       y       z     vdW  Elec       q    Type
REMARK                         _______ _______ _______ _____ _____    ______ ____
ROOT
ATOM      1  C   UNL     1       8.056  -1.423  25.286  0.00  0.00    +0.169 C 
ATOM      2  CA  UNL     1       9.438  -0.864  24.808  0.00  0.00    +0.191 C 
ATOM      3  C   UNL     1       9.497  -2.202  23.992  0.00  0.00    +0.244 C 
ATOM      4  O   UNL     1      10.262  -2.820  23.292  0.00  0.00    -0.273 OA
ATOM      5  N   UNL     1       8.199  -2.452  24.275  0.00  0.00    -0.249 N 
ATOM      6  CA  UNL     1       7.199  -3.294  23.857  0.00  0.00    +0.125 C 
ATOM      7  C   UNL     1       5.904  -3.002  24.175  0.00  0.00    +0.006 C 
ATOM      8  C   UNL     1       5.468  -1.754  24.924  0.00  0.00    +0.107 C 
ATOM      9  S   UNL     1       6.633  -0.385  24.886  0.00  0.00    -0.131 S 
ENDROOT
BRANCH   2  10
ATOM     10  N   UNL     1       9.371   0.367  23.990  0.00  0.00    -0.300 N 
ATOM     11  H   UNL     1       8.535   0.583  23.443  0.00  0.00    +0.150 HD
ATOM     12  C   UNL     1      10.393   1.276  23.850  0.00  0.00    +0.235 C 
ATOM     13  O   UNL     1      11.464   1.179  24.439  0.00  0.00    -0.274 OA
BRANCH  12  14
ATOM     14  CA  UNL     1      10.039   2.430  22.876  0.00  0.00    +0.168 C 
BRANCH  14  15
ATOM     15  C   UNL     1       8.624   2.930  23.093  0.00  0.00    -0.022 A 
ATOM     16  C   UNL     1       8.221   3.555  24.287  0.00  0.00    +0.005 A 
ATOM     17  C   UNL     1       6.911   4.013  24.448  0.00  0.00    +0.000 A 
ATOM     18  C   UNL     1       5.981   3.842  23.425  0.00  0.00    +0.000 A 
ATOM     19  C   UNL     1       6.357   3.203  22.247  0.00  0.00    +0.000 A 
ATOM     20  C   UNL     1       7.666   2.746  22.083  0.00  0.00    +0.005 A 
ENDBRANCH  14  15
BRANCH  14  21
ATOM     21  N   UNL     1      11.043   3.524  23.020  0.00  0.00    -0.316 NA
ATOM     22  H1  UNL     1      11.892   3.121  23.418  0.00  0.00    +0.119 HD
ATOM     23  H2  UNL     1      11.299   3.826  22.079  0.00  0.00    +0.119 HD
ENDBRANCH  14  21
ENDBRANCH  12  14
ENDBRANCH   2  10
BRANCH   6  24
ATOM     24  C   UNL     1       7.514  -4.498  22.982  0.00  0.00    +0.351 C 
ATOM     25  OXT UNL     1       7.286  -4.534  21.781  0.00  0.00    -0.244 OA
BRANCH  24  26
ATOM     26  O   UNL     1       7.999  -5.595  23.590  0.00  0.00    -0.476 OA
ATOM     27  H   UNL     1       8.367  -6.309  23.024  0.00  0.00    +0.295 HD
ENDBRANCH  24  26
ENDBRANCH   6  24
BRANCH   7  28
ATOM     28  C   UNL     1       4.699  -3.839  23.743  0.00  0.00    +0.266 C 
BRANCH  28  29
ATOM     29  O   UNL     1       4.284  -4.711  24.818  0.00  0.00    -0.460 OA
BRANCH  29  30
ATOM     30  C   UNL     1       4.744  -5.990  24.777  0.00  0.00    +0.304 C 
ATOM     31  O   UNL     1       4.991  -6.630  23.765  0.00  0.00    -0.251 OA
ATOM     32  C   UNL     1       4.857  -6.553  26.161  0.00  0.00    +0.136 C 
ENDBRANCH  29  30
ENDBRANCH  28  29
ENDBRANCH   7  28
TORSDOF 9
ENDMDL
