MODEL 1
REMARK VINA RESULT:      -6.8      0.000      0.000
REMARK  Name = 
REMARK  7 active torsions:
REMARK  status: ('A' for Active; 'I' for Inactive)
REMARK    1  A    between atoms: O_1  and  C_2
REMARK    2  A    between atoms: C_2  and  C_3
REMARK    3  A    between atoms: C_2  and  C_15
REMARK    4  A    between atoms: C_2  and  C_19
REMARK    5  A    between atoms: C_6  and  N_7
REMARK    6  A    between atoms: N_7  and  C_8
REMARK    7  A    between atoms: C_8  and  C_9
REMARK                            x       y       z     vdW  Elec       q    Type
REMARK                         _______ _______ _______ _____ _____    ______ ____
ROOT
ATOM      1  C   UNL     1       8.803   0.500  22.688  0.00  0.00    +0.002 A 
ATOM      2  C   UNL     1       7.844  -0.044  23.571  0.00  0.00    +0.009 A 
ATOM      3  C   UNL     1       7.500  -1.400  23.536  0.00  0.00    +0.023 A 
ATOM      4  C   UNL     1       8.131  -2.275  22.653  0.00  0.00    +0.027 A 
ATOM      5  C   UNL     1       9.090  -1.745  21.781  0.00  0.00    +0.023 A 
ATOM      6  C   UNL     1       9.442  -0.391  21.814  0.00  0.00    +0.009 A 
ENDROOT
BRANCH   4   7
ATOM      7  N   UNL     1       7.707  -3.602  22.599  0.00  0.00    -0.336 N 
ATOM      8  H   UNL     1       8.463  -4.260  22.413  0.00  0.00    +0.146 HD
BRANCH   7   9
ATOM      9  C   UNL     1       6.473  -3.927  21.838  0.00  0.00    +0.215 C 
BRANCH   9  10
ATOM     10  C   UNL     1       6.359  -5.404  21.428  0.00  0.00    +0.405 C 
ATOM     11  F   UNL     1       5.387  -6.023  22.137  0.00  0.00    -0.169 F 
ATOM     12  F   UNL     1       7.513  -6.071  21.645  0.00  0.00    -0.169 F 
ATOM     13  F   UNL     1       6.049  -5.542  20.118  0.00  0.00    -0.169 F 
ENDBRANCH   9  10
ENDBRANCH   7   9
ENDBRANCH   4   7
BRANCH   1  14
ATOM     14  C   UNL     1       9.106   2.010  22.698  0.00  0.00    +0.282 C 
BRANCH  14  15
ATOM     15  C   UNL     1       7.813   2.850  22.521  0.00  0.00    +0.431 C 
ATOM     16  F   UNL     1       6.923   2.767  23.531  0.00  0.00    -0.167 F 
ATOM     17  F   UNL     1       7.127   2.491  21.403  0.00  0.00    -0.167 F 
ATOM     18  F   UNL     1       8.089   4.171  22.369  0.00  0.00    -0.167 F 
ENDBRANCH  14  15
BRANCH  14  19
ATOM     19  C   UNL     1       9.898   2.519  23.936  0.00  0.00    +0.431 C 
ATOM     20  F   UNL     1      10.630   1.531  24.516  0.00  0.00    -0.167 F 
ATOM     21  F   UNL     1       9.176   3.070  24.927  0.00  0.00    -0.167 F 
ATOM     22  F   UNL     1      10.820   3.448  23.561  0.00  0.00    -0.167 F 
ENDBRANCH  14  19
BRANCH  14  23
ATOM     23  O   UNL     1       9.974   2.211  21.514  0.00  0.00    -0.369 OA
ATOM     24  H   UNL     1       9.421   2.052  20.725  0.00  0.00    +0.211 HD
ENDBRANCH  14  23
ENDBRANCH   1  14
TORSDOF 7
ENDMDL
MODEL 2
REMARK VINA RESULT:      -6.7      1.804      2.884
REMARK  Name = 
REMARK  7 active torsions:
REMARK  status: ('A' for Active; 'I' for Inactive)
REMARK    1  A    between atoms: O_1  and  C_2
REMARK    2  A    between atoms: C_2  and  C_3
REMARK    3  A    between atoms: C_2  and  C_15
REMARK    4  A    between atoms: C_2  and  C_19
REMARK    5  A    between atoms: C_6  and  N_7
REMARK    6  A    between atoms: N_7  and  C_8
REMARK    7  A    between atoms: C_8  and  C_9
REMARK                            x       y       z     vdW  Elec       q    Type
REMARK                         _______ _______ _______ _____ _____    ______ ____
ROOT
ATOM      1  C   UNL     1       8.410  -0.878  23.499  0.00  0.00    +0.002 A 
ATOM      2  C   UNL     1       7.019  -1.119  23.551  0.00  0.00    +0.009 A 
ATOM      3  C   UNL     1       6.502  -2.411  23.700  0.00  0.00    +0.023 A 
ATOM      4  C   UNL     1       7.351  -3.507  23.849  0.00  0.00    +0.027 A 
ATOM      5  C   UNL     1       8.732  -3.275  23.808  0.00  0.00    +0.023 A 
ATOM      6  C   UNL     1       9.254  -1.984  23.664  0.00  0.00    +0.009 A 
ENDROOT
BRANCH   4   7
ATOM      7  N   UNL     1       6.798  -4.785  23.920  0.00  0.00    -0.336 N 
ATOM      8  H   UNL     1       7.493  -5.519  24.049  0.00  0.00    +0.146 HD
BRANCH   7   9
ATOM      9  C   UNL     1       5.748  -5.163  22.940  0.00  0.00    +0.215 C 
BRANCH   9  10
ATOM     10  C   UNL     1       6.259  -5.311  21.498  0.00  0.00    +0.405 C 
ATOM     11  F   UNL     1       7.565  -5.667  21.488  0.00  0.00    -0.169 F 
ATOM     12  F   UNL     1       6.144  -4.155  20.809  0.00  0.00    -0.169 F 
ATOM     13  F   UNL     1       5.579  -6.261  20.815  0.00  0.00    -0.169 F 
ENDBRANCH   9  10
ENDBRANCH   7   9
ENDBRANCH   4   7
BRANCH   1  14
ATOM     14  C   UNL     1       8.947   0.545  23.259  0.00  0.00    +0.282 C 
BRANCH  14  15
ATOM     15  C   UNL     1      10.012   0.935  24.318  0.00  0.00    +0.431 C 
ATOM     16  F   UNL     1      11.268   0.516  24.061  0.00  0.00    -0.167 F 
ATOM     17  F   UNL     1       9.708   0.439  25.546  0.00  0.00    -0.167 F 
ATOM     18  F   UNL     1      10.089   2.282  24.480  0.00  0.00    -0.167 F 
ENDBRANCH  14  15
BRANCH  14  19
ATOM     19  C   UNL     1       9.503   0.812  21.831  0.00  0.00    +0.431 C 
ATOM     20  F   UNL     1      10.103  -0.288  21.302  0.00  0.00    -0.167 F 
ATOM     21  F   UNL     1      10.395   1.810  21.710  0.00  0.00    -0.167 F 
ATOM     22  F   UNL     1       8.486   1.090  20.969  0.00  0.00    -0.167 F 
ENDBRANCH  14  19
BRANCH  14  23
ATOM     23  O   UNL     1       7.758   1.413  23.432  0.00  0.00    -0.369 OA
ATOM     24  H   UNL     1       8.083   2.330  23.505  0.00  0.00    +0.211 HD
ENDBRANCH  14  23
ENDBRANCH   1  14
TORSDOF 7
ENDMDL
MODEL 3
REMARK VINA RESULT:      -6.6      2.964      3.814
REMARK  Name = 
REMARK  7 active torsions:
REMARK  status: ('A' for Active; 'I' for Inactive)
REMARK    1  A    between atoms: O_1  and  C_2
REMARK    2  A    between atoms: C_2  and  C_3
REMARK    3  A    between atoms: C_2  and  C_15
REMARK    4  A    between atoms: C_2  and  C_19
REMARK    5  A    between atoms: C_6  and  N_7
REMARK    6  A    between atoms: N_7  and  C_8
REMARK    7  A    between atoms: C_8  and  C_9
REMARK                            x       y       z     vdW  Elec       q    Type
REMARK                         _______ _______ _______ _____ _____    ______ ____
ROOT
ATOM      1  C   UNL     1       8.540  -0.606  23.421  0.00  0.00    +0.002 A 
ATOM      2  C   UNL     1       9.727  -1.321  23.698  0.00  0.00    +0.009 A 
ATOM      3  C   UNL     1       9.713  -2.697  23.954  0.00  0.00    +0.023 A 
ATOM      4  C   UNL     1       8.523  -3.422  23.897  0.00  0.00    +0.027 A 
ATOM      5  C   UNL     1       7.343  -2.722  23.613  0.00  0.00    +0.023 A 
ATOM      6  C   UNL     1       7.352  -1.347  23.352  0.00  0.00    +0.009 A 
ENDROOT
BRANCH   4   7
ATOM      7  N   UNL     1       8.541  -4.776  24.230  0.00  0.00    -0.336 N 
ATOM      8  H   UNL     1       8.542  -5.392  23.418  0.00  0.00    +0.146 HD
BRANCH   7   9
ATOM      9  C   UNL     1       7.636  -5.258  25.305  0.00  0.00    +0.215 C 
BRANCH   9  10
ATOM     10  C   UNL     1       8.061  -4.833  26.720  0.00  0.00    +0.405 C 
ATOM     11  F   UNL     1       7.511  -3.641  27.048  0.00  0.00    -0.169 F 
ATOM     12  F   UNL     1       9.402  -4.706  26.819  0.00  0.00    -0.169 F 
ATOM     13  F   UNL     1       7.667  -5.728  27.656  0.00  0.00    -0.169 F 
ENDBRANCH   9  10
ENDBRANCH   7   9
ENDBRANCH   4   7
BRANCH   1  14
ATOM     14  C   UNL     1       8.577   0.920  23.219  0.00  0.00    +0.282 C 
BRANCH  14  15
ATOM     15  C   UNL     1       9.287   1.632  24.401  0.00  0.00    +0.431 C 
ATOM     16  F   UNL     1      10.595   1.342  24.554  0.00  0.00    -0.167 F 
ATOM     17  F   UNL     1       8.706   1.330  25.593  0.00  0.00    -0.167 F 
ATOM     18  F   UNL     1       9.210   2.983  24.292  0.00  0.00    -0.167 F 
ENDBRANCH  14  15
BRANCH  14  19
ATOM     19  C   UNL     1       9.193   1.396  21.873  0.00  0.00    +0.431 C 
ATOM     20  F   UNL     1       9.111   0.442  20.907  0.00  0.00    -0.167 F 
ATOM     21  F   UNL     1      10.482   1.776  21.902  0.00  0.00    -0.167 F 
ATOM     22  F   UNL     1       8.487   2.447  21.372  0.00  0.00    -0.167 F 
ENDBRANCH  14  19
BRANCH  14  23
ATOM     23  O   UNL     1       7.149   1.316  23.208  0.00  0.00    -0.369 OA
ATOM     24  H   UNL     1       6.900   1.511  24.130  0.00  0.00    +0.211 HD
ENDBRANCH  14  23
ENDBRANCH   1  14
TORSDOF 7
ENDMDL
MODEL 4
REMARK VINA RESULT:      -6.6      1.767      2.358
REMARK  Name = 
REMARK  7 active torsions:
REMARK  status: ('A' for Active; 'I' for Inactive)
REMARK    1  A    between atoms: O_1  and  C_2
REMARK    2  A    between atoms: C_2  and  C_3
REMARK    3  A    between atoms: C_2  and  C_15
REMARK    4  A    between atoms: C_2  and  C_19
REMARK    5  A    between atoms: C_6  and  N_7
REMARK    6  A    between atoms: N_7  and  C_8
REMARK    7  A    between atoms: C_8  and  C_9
REMARK                            x       y       z     vdW  Elec       q    Type
REMARK                         _______ _______ _______ _____ _____    ______ ____
ROOT
ATOM      1  C   UNL     1       8.951  -0.905  23.630  0.00  0.00    +0.002 A 
ATOM      2  C   UNL     1       7.593  -1.162  23.345  0.00  0.00    +0.009 A 
ATOM      3  C   UNL     1       7.057  -2.453  23.423  0.00  0.00    +0.023 A 
ATOM      4  C   UNL     1       7.843  -3.529  23.835  0.00  0.00    +0.027 A 
ATOM      5  C   UNL     1       9.190  -3.280  24.129  0.00  0.00    +0.023 A 
ATOM      6  C   UNL     1       9.729  -1.990  24.057  0.00  0.00    +0.009 A 
ENDROOT
BRANCH   4   7
ATOM      7  N   UNL     1       7.292  -4.810  23.829  0.00  0.00    -0.336 N 
ATOM      8  H   UNL     1       7.985  -5.547  23.708  0.00  0.00    +0.146 HD
BRANCH   7   9
ATOM      9  C   UNL     1       6.062  -5.053  23.033  0.00  0.00    +0.215 C 
BRANCH   9  10
ATOM     10  C   UNL     1       6.324  -5.359  21.549  0.00  0.00    +0.405 C 
ATOM     11  F   UNL     1       6.086  -4.267  20.786  0.00  0.00    -0.169 F 
ATOM     12  F   UNL     1       5.530  -6.355  21.099  0.00  0.00    -0.169 F 
ATOM     13  F   UNL     1       7.607  -5.731  21.330  0.00  0.00    -0.169 F 
ENDBRANCH   9  10
ENDBRANCH   7   9
ENDBRANCH   4   7
BRANCH   1  14
ATOM     14  C   UNL     1       9.530   0.513  23.462  0.00  0.00    +0.282 C 
BRANCH  14  15
ATOM     15  C   UNL     1       9.607   0.920  21.967  0.00  0.00    +0.431 C 
ATOM     16  F   UNL     1      10.432   1.950  21.686  0.00  0.00    -0.167 F 
ATOM     17  F   UNL     1       8.391   1.288  21.481  0.00  0.00    -0.167 F 
ATOM     18  F   UNL     1      10.012  -0.113  21.185  0.00  0.00    -0.167 F 
ENDBRANCH  14  15
BRANCH  14  19
ATOM     19  C   UNL     1       8.807   1.625  24.274  0.00  0.00    +0.431 C 
ATOM     20  F   UNL     1       8.520   1.228  25.542  0.00  0.00    -0.167 F 
ATOM     21  F   UNL     1       7.652   2.086  23.765  0.00  0.00    -0.167 F 
ATOM     22  F   UNL     1       9.622   2.704  24.432  0.00  0.00    -0.167 F 
ENDBRANCH  14  19
BRANCH  14  23
ATOM     23  O   UNL     1      10.906   0.406  24.001  0.00  0.00    -0.369 OA
ATOM     24  H   UNL     1      10.890   0.780  24.902  0.00  0.00    +0.211 HD
ENDBRANCH  14  23
ENDBRANCH   1  14
TORSDOF 7
ENDMDL
MODEL 5
REMARK VINA RESULT:      -6.5      3.183      6.994
REMARK  Name = 
REMARK  7 active torsions:
REMARK  status: ('A' for Active; 'I' for Inactive)
REMARK    1  A    between atoms: O_1  and  C_2
REMARK    2  A    between atoms: C_2  and  C_3
REMARK    3  A    between atoms: C_2  and  C_15
REMARK    4  A    between atoms: C_2  and  C_19
REMARK    5  A    between atoms: C_6  and  N_7
REMARK    6  A    between atoms: N_7  and  C_8
REMARK    7  A    between atoms: C_8  and  C_9
REMARK                            x       y       z     vdW  Elec       q    Type
REMARK                         _______ _______ _______ _____ _____    ______ ____
ROOT
ATOM      1  C   UNL     1       8.846  -2.400  23.750  0.00  0.00    +0.002 A 
ATOM      2  C   UNL     1       7.728  -1.575  23.498  0.00  0.00    +0.009 A 
ATOM      3  C   UNL     1       7.833  -0.411  22.728  0.00  0.00    +0.023 A 
ATOM      4  C   UNL     1       9.045  -0.049  22.141  0.00  0.00    +0.027 A 
ATOM      5  C   UNL     1      10.156  -0.868  22.378  0.00  0.00    +0.023 A 
ATOM      6  C   UNL     1      10.056  -2.036  23.143  0.00  0.00    +0.009 A 
ENDROOT
BRANCH   4   7
ATOM      7  N   UNL     1       9.124   1.156  21.443  0.00  0.00    -0.336 N 
ATOM      8  H   UNL     1      10.013   1.285  20.961  0.00  0.00    +0.146 HD
BRANCH   7   9
ATOM      9  C   UNL     1       8.654   2.398  22.109  0.00  0.00    +0.215 C 
BRANCH   9  10
ATOM     10  C   UNL     1       9.574   2.891  23.238  0.00  0.00    +0.405 C 
ATOM     11  F   UNL     1      10.869   2.628  22.949  0.00  0.00    -0.169 F 
ATOM     12  F   UNL     1       9.286   2.289  24.412  0.00  0.00    -0.169 F 
ATOM     13  F   UNL     1       9.468   4.227  23.429  0.00  0.00    -0.169 F 
ENDBRANCH   9  10
ENDBRANCH   7   9
ENDBRANCH   4   7
BRANCH   1  14
ATOM     14  C   UNL     1       8.716  -3.633  24.663  0.00  0.00    +0.282 C 
BRANCH  14  15
ATOM     15  C   UNL     1       8.465  -3.223  26.138  0.00  0.00    +0.431 C 
ATOM     16  F   UNL     1       7.170  -3.162  26.512  0.00  0.00    -0.167 F 
ATOM     17  F   UNL     1       8.980  -1.996  26.416  0.00  0.00    -0.167 F 
ATOM     18  F   UNL     1       9.069  -4.075  27.006  0.00  0.00    -0.167 F 
ENDBRANCH  14  15
BRANCH  14  19
ATOM     19  C   UNL     1       7.654  -4.678  24.220  0.00  0.00    +0.431 C 
ATOM     20  F   UNL     1       8.036  -5.355  23.104  0.00  0.00    -0.167 F 
ATOM     21  F   UNL     1       6.421  -4.209  23.959  0.00  0.00    -0.167 F 
ATOM     22  F   UNL     1       7.511  -5.644  25.169  0.00  0.00    -0.167 F 
ENDBRANCH  14  19
BRANCH  14  23
ATOM     23  O   UNL     1      10.040  -4.292  24.568  0.00  0.00    -0.369 OA
ATOM     24  H   UNL     1      10.575  -3.967  25.316  0.00  0.00    +0.211 HD
ENDBRANCH  14  23
ENDBRANCH   1  14
TORSDOF 7
ENDMDL
MODEL 6
REMARK VINA RESULT:      -6.4      2.182      2.554
REMARK  Name = 
REMARK  7 active torsions:
REMARK  status: ('A' for Active; 'I' for Inactive)
REMARK    1  A    between atoms: O_1  and  C_2
REMARK    2  A    between atoms: C_2  and  C_3
REMARK    3  A    between atoms: C_2  and  C_15
REMARK    4  A    between atoms: C_2  and  C_19
REMARK    5  A    between atoms: C_6  and  N_7
REMARK    6  A    between atoms: N_7  and  C_8
REMARK    7  A    between atoms: C_8  and  C_9
REMARK                            x       y       z     vdW  Elec       q    Type
REMARK                         _______ _______ _______ _____ _____    ______ ____
ROOT
ATOM      1  C   UNL     1       8.924   0.495  22.803  0.00  0.00    +0.002 A 
ATOM      2  C   UNL     1       8.071  -0.012  23.808  0.00  0.00    +0.009 A 
ATOM      3  C   UNL     1       7.804  -1.382  23.923  0.00  0.00    +0.023 A 
ATOM      4  C   UNL     1       8.412  -2.302  23.070  0.00  0.00    +0.027 A 
ATOM      5  C   UNL     1       9.267  -1.808  22.077  0.00  0.00    +0.023 A 
ATOM      6  C   UNL     1       9.542  -0.440  21.961  0.00  0.00    +0.009 A 
ENDROOT
BRANCH   4   7
ATOM      7  N   UNL     1       8.063  -3.648  23.170  0.00  0.00    -0.336 N 
ATOM      8  H   UNL     1       7.481  -3.973  22.399  0.00  0.00    +0.146 HD
BRANCH   7   9
ATOM      9  C   UNL     1       7.607  -4.172  24.483  0.00  0.00    +0.215 C 
BRANCH   9  10
ATOM     10  C   UNL     1       8.747  -4.470  25.470  0.00  0.00    +0.405 C 
ATOM     11  F   UNL     1       8.503  -5.613  26.152  0.00  0.00    -0.169 F 
ATOM     12  F   UNL     1       8.895  -3.477  26.374  0.00  0.00    -0.169 F 
ATOM     13  F   UNL     1       9.934  -4.625  24.839  0.00  0.00    -0.169 F 
ENDBRANCH   9  10
ENDBRANCH   7   9
ENDBRANCH   4   7
BRANCH   1  14
ATOM     14  C   UNL     1       9.140   2.012  22.655  0.00  0.00    +0.282 C 
BRANCH  14  15
ATOM     15  C   UNL     1       7.800   2.754  22.403  0.00  0.00    +0.431 C 
ATOM     16  F   UNL     1       7.910   4.056  22.069  0.00  0.00    -0.167 F 
ATOM     17  F   UNL     1       6.995   2.728  23.500  0.00  0.00    -0.167 F 
ATOM     18  F   UNL     1       7.080   2.168  21.412  0.00  0.00    -0.167 F 
ENDBRANCH  14  15
BRANCH  14  19
ATOM     19  C   UNL     1       9.904   2.691  23.826  0.00  0.00    +0.431 C 
ATOM     20  F   UNL     1      10.905   1.906  24.307  0.00  0.00    -0.167 F 
ATOM     21  F   UNL     1       9.173   3.048  24.895  0.00  0.00    -0.167 F 
ATOM     22  F   UNL     1      10.536   3.817  23.392  0.00  0.00    -0.167 F 
ENDBRANCH  14  19
BRANCH  14  23
ATOM     23  O   UNL     1       9.991   2.138  21.448  0.00  0.00    -0.369 OA
ATOM     24  H   UNL     1       9.513   1.706  20.716  0.00  0.00    +0.211 HD
ENDBRANCH  14  23
ENDBRANCH   1  14
TORSDOF 7
ENDMDL
MODEL 7
REMARK VINA RESULT:      -6.4      2.626      7.446
REMARK  Name = 
REMARK  7 active torsions:
REMARK  status: ('A' for Active; 'I' for Inactive)
REMARK    1  A    between atoms: O_1  and  C_2
REMARK    2  A    between atoms: C_2  and  C_3
REMARK    3  A    between atoms: C_2  and  C_15
REMARK    4  A    between atoms: C_2  and  C_19
REMARK    5  A    between atoms: C_6  and  N_7
REMARK    6  A    between atoms: N_7  and  C_8
REMARK    7  A    between atoms: C_8  and  C_9
REMARK                            x       y       z     vdW  Elec       q    Type
REMARK                         _______ _______ _______ _____ _____    ______ ____
ROOT
ATOM      1  C   UNL     1       7.436  -3.312  23.157  0.00  0.00    +0.002 A 
ATOM      2  C   UNL     1       8.627  -3.487  23.895  0.00  0.00    +0.009 A 
ATOM      3  C   UNL     1       9.615  -2.496  23.943  0.00  0.00    +0.023 A 
ATOM      4  C   UNL     1       9.433  -1.275  23.295  0.00  0.00    +0.027 A 
ATOM      5  C   UNL     1       8.250  -1.090  22.568  0.00  0.00    +0.023 A 
ATOM      6  C   UNL     1       7.257  -2.076  22.522  0.00  0.00    +0.009 A 
ENDROOT
BRANCH   4   7
ATOM      7  N   UNL     1      10.471  -0.344  23.305  0.00  0.00    -0.336 N 
ATOM      8  H   UNL     1      11.369  -0.743  23.571  0.00  0.00    +0.146 HD
BRANCH   7   9
ATOM      9  C   UNL     1      10.233   0.983  23.931  0.00  0.00    +0.215 C 
BRANCH   9  10
ATOM     10  C   UNL     1      10.149   2.144  22.927  0.00  0.00    +0.405 C 
ATOM     11  F   UNL     1       8.950   2.767  23.016  0.00  0.00    -0.169 F 
ATOM     12  F   UNL     1      10.293   1.714  21.655  0.00  0.00    -0.169 F 
ATOM     13  F   UNL     1      11.104   3.077  23.152  0.00  0.00    -0.169 F 
ENDBRANCH   9  10
ENDBRANCH   7   9
ENDBRANCH   4   7
BRANCH   1  14
ATOM     14  C   UNL     1       6.402  -4.449  23.062  0.00  0.00    +0.282 C 
BRANCH  14  15
ATOM     15  C   UNL     1       6.997  -5.699  22.360  0.00  0.00    +0.431 C 
ATOM     16  F   UNL     1       8.158  -6.157  22.872  0.00  0.00    -0.167 F 
ATOM     17  F   UNL     1       7.248  -5.468  21.044  0.00  0.00    -0.167 F 
ATOM     18  F   UNL     1       6.134  -6.748  22.386  0.00  0.00    -0.167 F 
ENDBRANCH  14  15
BRANCH  14  19
ATOM     19  C   UNL     1       5.748  -4.865  24.410  0.00  0.00    +0.431 C 
ATOM     20  F   UNL     1       6.542  -5.704  25.127  0.00  0.00    -0.167 F 
ATOM     21  F   UNL     1       4.550  -5.470  24.335  0.00  0.00    -0.167 F 
ATOM     22  F   UNL     1       5.587  -3.779  25.215  0.00  0.00    -0.167 F 
ENDBRANCH  14  19
BRANCH  14  23
ATOM     23  O   UNL     1       5.327  -3.888  22.210  0.00  0.00    -0.369 OA
ATOM     24  H   UNL     1       5.761  -3.364  21.511  0.00  0.00    +0.211 HD
ENDBRANCH  14  23
ENDBRANCH   1  14
TORSDOF 7
ENDMDL
MODEL 8
REMARK VINA RESULT:      -6.3      2.815      7.454
REMARK  Name = 
REMARK  7 active torsions:
REMARK  status: ('A' for Active; 'I' for Inactive)
REMARK    1  A    between atoms: O_1  and  C_2
REMARK    2  A    between atoms: C_2  and  C_3
REMARK    3  A    between atoms: C_2  and  C_15
REMARK    4  A    between atoms: C_2  and  C_19
REMARK    5  A    between atoms: C_6  and  N_7
REMARK    6  A    between atoms: N_7  and  C_8
REMARK    7  A    between atoms: C_8  and  C_9
REMARK                            x       y       z     vdW  Elec       q    Type
REMARK                         _______ _______ _______ _____ _____    ______ ____
ROOT
ATOM      1  C   UNL     1       7.638  -3.579  23.324  0.00  0.00    +0.002 A 
ATOM      2  C   UNL     1       8.764  -3.424  24.161  0.00  0.00    +0.009 A 
ATOM      3  C   UNL     1       9.713  -2.419  23.937  0.00  0.00    +0.023 A 
ATOM      4  C   UNL     1       9.551  -1.502  22.899  0.00  0.00    +0.027 A 
ATOM      5  C   UNL     1       8.431  -1.644  22.070  0.00  0.00    +0.023 A 
ATOM      6  C   UNL     1       7.477  -2.644  22.293  0.00  0.00    +0.009 A 
ENDROOT
BRANCH   4   7
ATOM      7  N   UNL     1      10.555  -0.563  22.663  0.00  0.00    -0.336 N 
ATOM      8  H   UNL     1      11.434  -0.788  23.126  0.00  0.00    +0.146 HD
BRANCH   7   9
ATOM      9  C   UNL     1      10.217   0.880  22.758  0.00  0.00    +0.215 C 
BRANCH   9  10
ATOM     10  C   UNL     1      10.633   1.536  24.085  0.00  0.00    +0.405 C 
ATOM     11  F   UNL     1       9.546   1.813  24.843  0.00  0.00    -0.169 F 
ATOM     12  F   UNL     1      11.296   2.695  23.880  0.00  0.00    -0.169 F 
ATOM     13  F   UNL     1      11.438   0.730  24.816  0.00  0.00    -0.169 F 
ENDBRANCH   9  10
ENDBRANCH   7   9
ENDBRANCH   4   7
BRANCH   1  14
ATOM     14  C   UNL     1       6.651  -4.740  23.550  0.00  0.00    +0.282 C 
BRANCH  14  15
ATOM     15  C   UNL     1       5.215  -4.219  23.823  0.00  0.00    +0.431 C 
ATOM     16  F   UNL     1       4.471  -3.964  22.727  0.00  0.00    -0.167 F 
ATOM     17  F   UNL     1       5.225  -3.059  24.532  0.00  0.00    -0.167 F 
ATOM     18  F   UNL     1       4.497  -5.096  24.571  0.00  0.00    -0.167 F 
ENDBRANCH  14  15
BRANCH  14  19
ATOM     19  C   UNL     1       6.617  -5.810  22.423  0.00  0.00    +0.431 C 
ATOM     20  F   UNL     1       7.832  -6.391  22.232  0.00  0.00    -0.167 F 
ATOM     21  F   UNL     1       6.216  -5.394  21.210  0.00  0.00    -0.167 F 
ATOM     22  F   UNL     1       5.800  -6.842  22.772  0.00  0.00    -0.167 F 
ENDBRANCH  14  19
BRANCH  14  23
ATOM     23  O   UNL     1       7.158  -5.410  24.771  0.00  0.00    -0.369 OA
ATOM     24  H   UNL     1       7.871  -4.849  25.129  0.00  0.00    +0.211 HD
ENDBRANCH  14  23
ENDBRANCH   1  14
TORSDOF 7
ENDMDL
MODEL 9
REMARK VINA RESULT:      -6.3      2.814      3.313
REMARK  Name = 
REMARK  7 active torsions:
REMARK  status: ('A' for Active; 'I' for Inactive)
REMARK    1  A    between atoms: O_1  and  C_2
REMARK    2  A    between atoms: C_2  and  C_3
REMARK    3  A    between atoms: C_2  and  C_15
REMARK    4  A    between atoms: C_2  and  C_19
REMARK    5  A    between atoms: C_6  and  N_7
REMARK    6  A    between atoms: N_7  and  C_8
REMARK    7  A    between atoms: C_8  and  C_9
REMARK                            x       y       z     vdW  Elec       q    Type
REMARK                         _______ _______ _______ _____ _____    ______ ____
ROOT
ATOM      1  C   UNL     1       9.042  -0.658  23.471  0.00  0.00    +0.002 A 
ATOM      2  C   UNL     1       9.957  -1.613  23.966  0.00  0.00    +0.009 A 
ATOM      3  C   UNL     1       9.596  -2.955  24.139  0.00  0.00    +0.023 A 
ATOM      4  C   UNL     1       8.325  -3.405  23.782  0.00  0.00    +0.027 A 
ATOM      5  C   UNL     1       7.416  -2.465  23.281  0.00  0.00    +0.023 A 
ATOM      6  C   UNL     1       7.773  -1.123  23.102  0.00  0.00    +0.009 A 
ENDROOT
BRANCH   4   7
ATOM      7  N   UNL     1       7.982  -4.731  24.039  0.00  0.00    -0.336 N 
ATOM      8  H   UNL     1       7.019  -4.955  23.789  0.00  0.00    +0.146 HD
BRANCH   7   9
ATOM      9  C   UNL     1       8.386  -5.335  25.335  0.00  0.00    +0.215 C 
BRANCH   9  10
ATOM     10  C   UNL     1       7.287  -5.308  26.409  0.00  0.00    +0.405 C 
ATOM     11  F   UNL     1       7.767  -5.749  27.595  0.00  0.00    -0.169 F 
ATOM     12  F   UNL     1       6.243  -6.096  26.072  0.00  0.00    -0.169 F 
ATOM     13  F   UNL     1       6.806  -4.059  26.610  0.00  0.00    -0.169 F 
ENDBRANCH   9  10
ENDBRANCH   7   9
ENDBRANCH   4   7
BRANCH   1  14
ATOM     14  C   UNL     1       9.444   0.825  23.363  0.00  0.00    +0.282 C 
BRANCH  14  15
ATOM     15  C   UNL     1       9.514   1.287  21.883  0.00  0.00    +0.431 C 
ATOM     16  F   UNL     1       8.425   1.937  21.425  0.00  0.00    -0.167 F 
ATOM     17  F   UNL     1       9.695   0.239  21.035  0.00  0.00    -0.167 F 
ATOM     18  F   UNL     1      10.568   2.116  21.665  0.00  0.00    -0.167 F 
ENDBRANCH  14  15
BRANCH  14  19
ATOM     19  C   UNL     1       8.564   1.812  24.181  0.00  0.00    +0.431 C 
ATOM     20  F   UNL     1       8.543   1.502  25.505  0.00  0.00    -0.167 F 
ATOM     21  F   UNL     1       7.277   1.920  23.810  0.00  0.00    -0.167 F 
ATOM     22  F   UNL     1       9.091   3.068  24.135  0.00  0.00    -0.167 F 
ENDBRANCH  14  19
BRANCH  14  23
ATOM     23  O   UNL     1      10.806   0.872  23.945  0.00  0.00    -0.369 OA
ATOM     24  H   UNL     1      11.422   0.565  23.253  0.00  0.00    +0.211 HD
ENDBRANCH  14  23
ENDBRANCH   1  14
TORSDOF 7
ENDMDL
