MODEL 1
REMARK VINA RESULT:      -4.5      0.000      0.000
REMARK  Name = 
REMARK  4 active torsions:
REMARK  status: ('A' for Active; 'I' for Inactive)
REMARK    1  A    between atoms: O_1  and  C_2
REMARK    2  A    between atoms: C_6  and  O_8
REMARK    3  A    between atoms: C_9  and  O_11
REMARK    4  A    between atoms: C_12  and  O_14
REMARK                            x       y       z     vdW  Elec       q    Type
REMARK                         _______ _______ _______ _____ _____    ______ ____
ROOT
ATOM      1  C   UNL     1       7.700  -4.960  26.643  0.00  0.00    +0.171 C 
ATOM      2  C   UNL     1       9.073  -4.649  26.038  0.00  0.00    +0.178 C 
ATOM      3  C   UNL     1       8.941  -3.724  24.829  0.00  0.00    +0.201 C 
ATOM      4  C   UNL     1       7.874  -4.260  23.860  0.00  0.00    +0.279 C 
ATOM      5  O   UNL     1       6.622  -4.431  24.509  0.00  0.00    -0.346 OA
ATOM      6  C   UNL     1       6.715  -5.403  25.556  0.00  0.00    +0.197 C 
ENDROOT
BRANCH   1   7
ATOM      7  O   UNL     1       7.831  -5.978  27.635  0.00  0.00    -0.387 OA
ATOM      8  H   UNL     1       7.860  -6.822  27.140  0.00  0.00    +0.210 HD
ENDBRANCH   1   7
BRANCH   2   9
ATOM      9  O   UNL     1       9.693  -5.888  25.639  0.00  0.00    -0.386 OA
ATOM     10  H   UNL     1      10.617  -5.643  25.417  0.00  0.00    +0.210 HD
ENDBRANCH   2   9
BRANCH   3  11
ATOM     11  O   UNL     1      10.214  -3.618  24.173  0.00  0.00    -0.384 OA
ATOM     12  H   UNL     1      10.615  -4.508  24.243  0.00  0.00    +0.210 HD
ENDBRANCH   3  11
BRANCH   4  13
ATOM     13  O   UNL     1       7.699  -3.306  22.821  0.00  0.00    -0.365 OA
ATOM     14  H   UNL     1       6.915  -2.802  23.100  0.00  0.00    +0.213 HD
ENDBRANCH   4  13
TORSDOF 4
ENDMDL
MODEL 2
REMARK VINA RESULT:      -4.3      1.250      3.365
REMARK  Name = 
REMARK  4 active torsions:
REMARK  status: ('A' for Active; 'I' for Inactive)
REMARK    1  A    between atoms: O_1  and  C_2
REMARK    2  A    between atoms: C_6  and  O_8
REMARK    3  A    between atoms: C_9  and  O_11
REMARK    4  A    between atoms: C_12  and  O_14
REMARK                            x       y       z     vdW  Elec       q    Type
REMARK                         _______ _______ _______ _____ _____    ______ ____
ROOT
ATOM      1  C   UNL     1       6.743  -3.876  24.487  0.00  0.00    +0.171 C 
ATOM      2  C   UNL     1       6.676  -4.682  25.790  0.00  0.00    +0.178 C 
ATOM      3  C   UNL     1       8.073  -4.916  26.360  0.00  0.00    +0.201 C 
ATOM      4  C   UNL     1       9.012  -5.460  25.270  0.00  0.00    +0.279 C 
ATOM      5  O   UNL     1       9.060  -4.592  24.147  0.00  0.00    -0.346 OA
ATOM      6  C   UNL     1       7.774  -4.481  23.528  0.00  0.00    +0.197 C 
ENDROOT
BRANCH   1   7
ATOM      7  O   UNL     1       5.456  -3.847  23.872  0.00  0.00    -0.387 OA
ATOM      8  H   UNL     1       4.960  -3.143  24.339  0.00  0.00    +0.210 HD
ENDBRANCH   1   7
BRANCH   2   9
ATOM      9  O   UNL     1       6.041  -5.948  25.517  0.00  0.00    -0.386 OA
ATOM     10  H   UNL     1       6.366  -6.545  26.224  0.00  0.00    +0.210 HD
ENDBRANCH   2   9
BRANCH   3  11
ATOM     11  O   UNL     1       7.987  -5.837  27.459  0.00  0.00    -0.384 OA
ATOM     12  H   UNL     1       8.204  -5.310  28.256  0.00  0.00    +0.210 HD
ENDBRANCH   3  11
BRANCH   4  13
ATOM     13  O   UNL     1      10.323  -5.543  25.814  0.00  0.00    -0.365 OA
ATOM     14  H   UNL     1      10.600  -4.613  25.890  0.00  0.00    +0.213 HD
ENDBRANCH   4  13
TORSDOF 4
ENDMDL
MODEL 3
REMARK VINA RESULT:      -4.3      4.387      6.323
REMARK  Name = 
REMARK  4 active torsions:
REMARK  status: ('A' for Active; 'I' for Inactive)
REMARK    1  A    between atoms: O_1  and  C_2
REMARK    2  A    between atoms: C_6  and  O_8
REMARK    3  A    between atoms: C_9  and  O_11
REMARK    4  A    between atoms: C_12  and  O_14
REMARK                            x       y       z     vdW  Elec       q    Type
REMARK                         _______ _______ _______ _____ _____    ______ ____
ROOT
ATOM      1  C   UNL     1      10.040   1.127  22.060  0.00  0.00    +0.171 C 
ATOM      2  C   UNL     1       9.839   1.202  23.578  0.00  0.00    +0.178 C 
ATOM      3  C   UNL     1      10.233  -0.112  24.248  0.00  0.00    +0.201 C 
ATOM      4  C   UNL     1       9.567  -1.299  23.530  0.00  0.00    +0.279 C 
ATOM      5  O   UNL     1       9.890  -1.316  22.147  0.00  0.00    -0.346 OA
ATOM      6  C   UNL     1       9.398  -0.143  21.490  0.00  0.00    +0.197 C 
ENDROOT
BRANCH   1   7
ATOM      7  O   UNL     1       9.478   2.284  21.442  0.00  0.00    -0.387 OA
ATOM      8  H   UNL     1       8.838   1.943  20.783  0.00  0.00    +0.210 HD
ENDBRANCH   1   7
BRANCH   2   9
ATOM      9  O   UNL     1       8.451   1.491  23.846  0.00  0.00    -0.386 OA
ATOM     10  H   UNL     1       8.331   1.268  24.793  0.00  0.00    +0.210 HD
ENDBRANCH   2   9
BRANCH   3  11
ATOM     11  O   UNL     1       9.845  -0.074  25.630  0.00  0.00    -0.384 OA
ATOM     12  H   UNL     1      10.006  -0.978  25.969  0.00  0.00    +0.210 HD
ENDBRANCH   3  11
BRANCH   4  13
ATOM     13  O   UNL     1      10.060  -2.500  24.108  0.00  0.00    -0.365 OA
ATOM     14  H   UNL     1       9.315  -3.120  24.021  0.00  0.00    +0.213 HD
ENDBRANCH   4  13
TORSDOF 4
ENDMDL
MODEL 4
REMARK VINA RESULT:      -4.2      4.992      6.542
REMARK  Name = 
REMARK  4 active torsions:
REMARK  status: ('A' for Active; 'I' for Inactive)
REMARK    1  A    between atoms: O_1  and  C_2
REMARK    2  A    between atoms: C_6  and  O_8
REMARK    3  A    between atoms: C_9  and  O_11
REMARK    4  A    between atoms: C_12  and  O_14
REMARK                            x       y       z     vdW  Elec       q    Type
REMARK                         _______ _______ _______ _____ _____    ______ ____
ROOT
ATOM      1  C   UNL     1      10.222  -0.698  23.552  0.00  0.00    +0.171 C 
ATOM      2  C   UNL     1       9.396  -0.031  22.446  0.00  0.00    +0.178 C 
ATOM      3  C   UNL     1       9.986   1.326  22.066  0.00  0.00    +0.201 C 
ATOM      4  C   UNL     1      10.244   2.169  23.327  0.00  0.00    +0.279 C 
ATOM      5  O   UNL     1      11.087   1.486  24.244  0.00  0.00    -0.346 OA
ATOM      6  C   UNL     1      10.472   0.278  24.706  0.00  0.00    +0.197 C 
ENDROOT
BRANCH   1   7
ATOM      7  O   UNL     1       9.542  -1.860  24.027  0.00  0.00    -0.387 OA
ATOM      8  H   UNL     1       8.944  -1.541  24.734  0.00  0.00    +0.210 HD
ENDBRANCH   1   7
BRANCH   2   9
ATOM      9  O   UNL     1       8.044   0.138  22.918  0.00  0.00    -0.386 OA
ATOM     10  H   UNL     1       7.681   0.868  22.372  0.00  0.00    +0.210 HD
ENDBRANCH   2   9
BRANCH   3  11
ATOM     11  O   UNL     1       9.081   2.003  21.181  0.00  0.00    -0.384 OA
ATOM     12  H   UNL     1       9.646   2.398  20.485  0.00  0.00    +0.210 HD
ENDBRANCH   3  11
BRANCH   4  13
ATOM     13  O   UNL     1      10.904   3.364  22.935  0.00  0.00    -0.365 OA
ATOM     14  H   UNL     1      11.718   3.048  22.506  0.00  0.00    +0.213 HD
ENDBRANCH   4  13
TORSDOF 4
ENDMDL
MODEL 5
REMARK VINA RESULT:      -4.2      5.348      7.129
REMARK  Name = 
REMARK  4 active torsions:
REMARK  status: ('A' for Active; 'I' for Inactive)
REMARK    1  A    between atoms: O_1  and  C_2
REMARK    2  A    between atoms: C_6  and  O_8
REMARK    3  A    between atoms: C_9  and  O_11
REMARK    4  A    between atoms: C_12  and  O_14
REMARK                            x       y       z     vdW  Elec       q    Type
REMARK                         _______ _______ _______ _____ _____    ______ ____
ROOT
ATOM      1  C   UNL     1       8.535   2.496  23.089  0.00  0.00    +0.171 C 
ATOM      2  C   UNL     1       9.020   1.626  21.923  0.00  0.00    +0.178 C 
ATOM      3  C   UNL     1       9.208   0.176  22.364  0.00  0.00    +0.201 C 
ATOM      4  C   UNL     1      10.044   0.114  23.654  0.00  0.00    +0.279 C 
ATOM      5  O   UNL     1       9.457   0.888  24.690  0.00  0.00    -0.346 OA
ATOM      6  C   UNL     1       9.406   2.273  24.330  0.00  0.00    +0.197 C 
ENDROOT
BRANCH   1   7
ATOM      7  O   UNL     1       8.563   3.871  22.708  0.00  0.00    -0.387 OA
ATOM      8  H   UNL     1       9.192   4.300  23.324  0.00  0.00    +0.210 HD
ENDBRANCH   1   7
BRANCH   2   9
ATOM      9  O   UNL     1      10.271   2.158  21.441  0.00  0.00    -0.386 OA
ATOM     10  H   UNL     1      10.930   1.460  21.644  0.00  0.00    +0.210 HD
ENDBRANCH   2   9
BRANCH   3  11
ATOM     11  O   UNL     1       9.849  -0.559  21.310  0.00  0.00    -0.384 OA
ATOM     12  H   UNL     1      10.232   0.120  20.717  0.00  0.00    +0.210 HD
ENDBRANCH   3  11
BRANCH   4  13
ATOM     13  O   UNL     1      10.086  -1.238  24.090  0.00  0.00    -0.365 OA
ATOM     14  H   UNL     1      10.649  -1.677  23.428  0.00  0.00    +0.213 HD
ENDBRANCH   4  13
TORSDOF 4
ENDMDL
MODEL 6
REMARK VINA RESULT:      -4.2      1.463      3.410
REMARK  Name = 
REMARK  4 active torsions:
REMARK  status: ('A' for Active; 'I' for Inactive)
REMARK    1  A    between atoms: O_1  and  C_2
REMARK    2  A    between atoms: C_6  and  O_8
REMARK    3  A    between atoms: C_9  and  O_11
REMARK    4  A    between atoms: C_12  and  O_14
REMARK                            x       y       z     vdW  Elec       q    Type
REMARK                         _______ _______ _______ _____ _____    ______ ____
ROOT
ATOM      1  C   UNL     1       7.736  -2.700  24.522  0.00  0.00    +0.171 C 
ATOM      2  C   UNL     1       8.718  -3.803  24.111  0.00  0.00    +0.178 C 
ATOM      3  C   UNL     1       8.562  -5.033  25.003  0.00  0.00    +0.201 C 
ATOM      4  C   UNL     1       8.576  -4.624  26.486  0.00  0.00    +0.279 C 
ATOM      5  O   UNL     1       7.572  -3.661  26.768  0.00  0.00    -0.346 OA
ATOM      6  C   UNL     1       7.797  -2.453  26.033  0.00  0.00    +0.197 C 
ENDROOT
BRANCH   1   7
ATOM      7  O   UNL     1       8.039  -1.498  23.813  0.00  0.00    -0.387 OA
ATOM      8  H   UNL     1       7.323  -1.398  23.153  0.00  0.00    +0.210 HD
ENDBRANCH   1   7
BRANCH   2   9
ATOM      9  O   UNL     1      10.061  -3.289  24.219  0.00  0.00    -0.386 OA
ATOM     10  H   UNL     1      10.214  -2.818  23.372  0.00  0.00    +0.210 HD
ENDBRANCH   2   9
BRANCH   3  11
ATOM     11  O   UNL     1       9.624  -5.958  24.723  0.00  0.00    -0.384 OA
ATOM     12  H   UNL     1      10.402  -5.614  25.206  0.00  0.00    +0.210 HD
ENDBRANCH   3  11
BRANCH   4  13
ATOM     13  O   UNL     1       8.304  -5.780  27.268  0.00  0.00    -0.365 OA
ATOM     14  H   UNL     1       7.351  -5.711  27.456  0.00  0.00    +0.213 HD
ENDBRANCH   4  13
TORSDOF 4
ENDMDL
MODEL 7
REMARK VINA RESULT:      -4.1      4.650      5.836
REMARK  Name = 
REMARK  4 active torsions:
REMARK  status: ('A' for Active; 'I' for Inactive)
REMARK    1  A    between atoms: O_1  and  C_2
REMARK    2  A    between atoms: C_6  and  O_8
REMARK    3  A    between atoms: C_9  and  O_11
REMARK    4  A    between atoms: C_12  and  O_14
REMARK                            x       y       z     vdW  Elec       q    Type
REMARK                         _______ _______ _______ _____ _____    ______ ____
ROOT
ATOM      1  C   UNL     1       9.124  -1.005  23.880  0.00  0.00    +0.171 C 
ATOM      2  C   UNL     1       9.221   0.343  24.604  0.00  0.00    +0.178 C 
ATOM      3  C   UNL     1       9.169   1.502  23.610  0.00  0.00    +0.201 C 
ATOM      4  C   UNL     1      10.169   1.270  22.464  0.00  0.00    +0.279 C 
ATOM      5  O   UNL     1       9.932   0.030  21.813  0.00  0.00    -0.346 OA
ATOM      6  C   UNL     1      10.117  -1.067  22.714  0.00  0.00    +0.197 C 
ENDROOT
BRANCH   1   7
ATOM      7  O   UNL     1       9.378  -2.065  24.802  0.00  0.00    -0.387 OA
ATOM      8  H   UNL     1       8.559  -2.601  24.815  0.00  0.00    +0.210 HD
ENDBRANCH   1   7
BRANCH   2   9
ATOM      9  O   UNL     1      10.461   0.384  25.338  0.00  0.00    -0.386 OA
ATOM     10  H   UNL     1      10.903  -0.465  25.125  0.00  0.00    +0.210 HD
ENDBRANCH   2   9
BRANCH   3  11
ATOM     11  O   UNL     1       9.462   2.728  24.298  0.00  0.00    -0.384 OA
ATOM     12  H   UNL     1      10.405   2.663  24.551  0.00  0.00    +0.210 HD
ENDBRANCH   3  11
BRANCH   4  13
ATOM     13  O   UNL     1       9.995   2.306  21.507  0.00  0.00    -0.365 OA
ATOM     14  H   UNL     1      10.432   3.073  21.916  0.00  0.00    +0.213 HD
ENDBRANCH   4  13
TORSDOF 4
ENDMDL
MODEL 8
REMARK VINA RESULT:      -4.1      4.722      5.947
REMARK  Name = 
REMARK  4 active torsions:
REMARK  status: ('A' for Active; 'I' for Inactive)
REMARK    1  A    between atoms: O_1  and  C_2
REMARK    2  A    between atoms: C_6  and  O_8
REMARK    3  A    between atoms: C_9  and  O_11
REMARK    4  A    between atoms: C_12  and  O_14
REMARK                            x       y       z     vdW  Elec       q    Type
REMARK                         _______ _______ _______ _____ _____    ______ ____
ROOT
ATOM      1  C   UNL     1       8.508   0.623  24.664  0.00  0.00    +0.171 C 
ATOM      2  C   UNL     1       9.061   1.655  23.674  0.00  0.00    +0.178 C 
ATOM      3  C   UNL     1       9.138   1.072  22.264  0.00  0.00    +0.201 C 
ATOM      4  C   UNL     1       9.843  -0.295  22.289  0.00  0.00    +0.279 C 
ATOM      5  O   UNL     1       9.197  -1.196  23.176  0.00  0.00    -0.346 OA
ATOM      6  C   UNL     1       9.245  -0.713  24.523  0.00  0.00    +0.197 C 
ENDROOT
BRANCH   1   7
ATOM      7  O   UNL     1       8.636   1.119  25.997  0.00  0.00    -0.387 OA
ATOM      8  H   UNL     1       7.915   1.773  26.102  0.00  0.00    +0.210 HD
ENDBRANCH   1   7
BRANCH   2   9
ATOM      9  O   UNL     1      10.375   2.055  24.111  0.00  0.00    -0.386 OA
ATOM     10  H   UNL     1      10.233   2.910  24.571  0.00  0.00    +0.210 HD
ENDBRANCH   2   9
BRANCH   3  11
ATOM     11  O   UNL     1       9.842   1.989  21.412  0.00  0.00    -0.384 OA
ATOM     12  H   UNL     1       9.907   1.539  20.545  0.00  0.00    +0.210 HD
ENDBRANCH   3  11
BRANCH   4  13
ATOM     13  O   UNL     1       9.780  -0.850  20.982  0.00  0.00    -0.365 OA
ATOM     14  H   UNL     1      10.705  -1.081  20.785  0.00  0.00    +0.213 HD
ENDBRANCH   4  13
TORSDOF 4
ENDMDL
MODEL 9
REMARK VINA RESULT:      -4.0      4.493      5.737
REMARK  Name = 
REMARK  4 active torsions:
REMARK  status: ('A' for Active; 'I' for Inactive)
REMARK    1  A    between atoms: O_1  and  C_2
REMARK    2  A    between atoms: C_6  and  O_8
REMARK    3  A    between atoms: C_9  and  O_11
REMARK    4  A    between atoms: C_12  and  O_14
REMARK                            x       y       z     vdW  Elec       q    Type
REMARK                         _______ _______ _______ _____ _____    ______ ____
ROOT
ATOM      1  C   UNL     1       9.792  -0.160  24.897  0.00  0.00    +0.171 C 
ATOM      2  C   UNL     1       9.573  -0.884  23.563  0.00  0.00    +0.178 C 
ATOM      3  C   UNL     1      10.088  -0.046  22.395  0.00  0.00    +0.201 C 
ATOM      4  C   UNL     1       9.547   1.391  22.488  0.00  0.00    +0.279 C 
ATOM      5  O   UNL     1       9.880   1.991  23.730  0.00  0.00    -0.346 OA
ATOM      6  C   UNL     1       9.281   1.283  24.821  0.00  0.00    +0.197 C 
ENDROOT
BRANCH   1   7
ATOM      7  O   UNL     1       9.124  -0.865  25.943  0.00  0.00    -0.387 OA
ATOM      8  H   UNL     1       9.776  -0.929  26.671  0.00  0.00    +0.210 HD
ENDBRANCH   1   7
BRANCH   2   9
ATOM      9  O   UNL     1       8.162  -1.135  23.401  0.00  0.00    -0.386 OA
ATOM     10  H   UNL     1       7.730  -0.294  23.665  0.00  0.00    +0.210 HD
ENDBRANCH   2   9
BRANCH   3  11
ATOM     11  O   UNL     1       9.687  -0.660  21.160  0.00  0.00    -0.384 OA
ATOM     12  H   UNL     1      10.220  -0.220  20.467  0.00  0.00    +0.210 HD
ENDBRANCH   3  11
BRANCH   4  13
ATOM     13  O   UNL     1      10.150   2.159  21.456  0.00  0.00    -0.365 OA
ATOM     14  H   UNL     1      10.690   1.510  20.971  0.00  0.00    +0.213 HD
ENDBRANCH   4  13
TORSDOF 4
ENDMDL
