MODEL 1
REMARK VINA RESULT:      -7.5      0.000      0.000
REMARK  Name = 
REMARK  7 active torsions:
REMARK  status: ('A' for Active; 'I' for Inactive)
REMARK    1  A    between atoms: C_1  and  N_2
REMARK    2  A    between atoms: C_3  and  C_5
REMARK    3  A    between atoms: C_6  and  N_7
REMARK    4  A    between atoms: N_11  and  C_12
REMARK    5  A    between atoms: C_15  and  N_20
REMARK    6  A    between atoms: C_17  and  O_18
REMARK    7  A    between atoms: O_18  and  C_19
REMARK                            x       y       z     vdW  Elec       q    Type
REMARK                         _______ _______ _______ _____ _____    ______ ____
ROOT
ATOM      1  N   UNL     1       6.665  -5.127  25.095  0.00  0.00    -0.298 N 
ATOM      2  H   UNL     1       7.420  -5.676  24.685  0.00  0.00    +0.154 HD
ATOM      3  C   UNL     1       6.688  -3.781  24.678  0.00  0.00    +0.147 A 
ATOM      4  C   UNL     1       5.579  -2.949  24.792  0.00  0.00    +0.099 A 
ATOM      5 CL   UNL     1       4.058  -3.348  25.490  0.00  0.00    -0.078 Cl
ATOM      6  C   UNL     1       5.695  -1.724  24.190  0.00  0.00    +0.137 A 
ATOM      7  N   UNL     1       6.812  -1.288  23.593  0.00  0.00    -0.221 NA
ATOM      8  C   UNL     1       7.893  -2.074  23.622  0.00  0.00    +0.221 A 
ATOM      9  N   UNL     1       9.134  -1.547  23.221  0.00  0.00    -0.281 N 
ATOM     10  H   UNL     1       9.856  -2.225  23.422  0.00  0.00    +0.155 HD
ATOM     11  N   UNL     1       7.844  -3.342  24.088  0.00  0.00    -0.198 NA
ENDROOT
BRANCH   1  17
ATOM     12  C   UNL     1       4.913  -6.571  26.068  0.00  0.00    +0.058 A 
ATOM     13  C   UNL     1       4.312  -7.167  27.195  0.00  0.00    +0.015 A 
ATOM     14  C   UNL     1       4.835  -6.964  28.464  0.00  0.00    +0.001 A 
ATOM     15  C   UNL     1       5.981  -6.192  28.617  0.00  0.00    +0.002 A 
ATOM     16  C   UNL     1       6.594  -5.610  27.502  0.00  0.00    +0.024 A 
ATOM     17  C   UNL     1       6.067  -5.770  26.206  0.00  0.00    +0.045 A 
BRANCH  12  21
ATOM     18  C   UNL     1       2.301  -6.853  23.339  0.00  0.00    +0.128 C 
ATOM     19  N   UNL     1       2.961  -6.651  24.604  0.00  0.00    -0.314 N 
ATOM     20  H   UNL     1       2.447  -6.194  25.349  0.00  0.00    +0.149 HD
ATOM     21  C   UNL     1       4.326  -6.831  24.725  0.00  0.00    +0.246 C 
ATOM     22  O   UNL     1       5.043  -7.192  23.800  0.00  0.00    -0.270 OA
ENDBRANCH  12  21
ENDBRANCH   1  17
BRANCH   9  23
ATOM     23  C   UNL     1       9.591  -0.202  23.240  0.00  0.00    +0.076 A 
ATOM     24  C   UNL     1       9.963   0.459  24.425  0.00  0.00    +0.143 A 
ATOM     25  C   UNL     1      10.300   1.836  24.408  0.00  0.00    +0.070 A 
ATOM     26  C   UNL     1      10.367   2.610  23.239  0.00  0.00    +0.033 A 
ATOM     27  C   UNL     1      10.098   1.916  22.065  0.00  0.00    +0.025 A 
ATOM     28  C   UNL     1       9.734   0.557  22.067  0.00  0.00    +0.029 A 
BRANCH  26  29
ATOM     29  N   UNL     1      10.661   3.957  23.249  0.00  0.00    -0.325 N 
ATOM     30  C   UNL     1      11.971   4.503  22.857  0.00  0.00    +0.133 C 
ATOM     31  C   UNL     1      12.494   5.423  23.970  0.00  0.00    +0.178 C 
ATOM     32  O   UNL     1      11.565   6.485  24.248  0.00  0.00    -0.377 OA
ATOM     33  C   UNL     1      10.299   5.942  24.663  0.00  0.00    +0.178 C 
ATOM     34  C   UNL     1       9.688   5.013  23.594  0.00  0.00    +0.133 C 
ENDBRANCH  26  29
BRANCH  24  35
ATOM     35  O   UNL     1       9.926  -0.057  25.696  0.00  0.00    -0.493 OA
ATOM     36  C   UNL     1       8.683  -0.027  26.386  0.00  0.00    +0.277 C 
ENDBRANCH  24  35
ENDBRANCH   9  23
TORSDOF 5
ENDMDL
MODEL 2
REMARK VINA RESULT:      -7.4      2.740      9.986
REMARK  Name = 
REMARK  7 active torsions:
REMARK  status: ('A' for Active; 'I' for Inactive)
REMARK    1  A    between atoms: C_1  and  N_2
REMARK    2  A    between atoms: C_3  and  C_5
REMARK    3  A    between atoms: C_6  and  N_7
REMARK    4  A    between atoms: N_11  and  C_12
REMARK    5  A    between atoms: C_15  and  N_20
REMARK    6  A    between atoms: C_17  and  O_18
REMARK    7  A    between atoms: O_18  and  C_19
REMARK                            x       y       z     vdW  Elec       q    Type
REMARK                         _______ _______ _______ _____ _____    ______ ____
ROOT
ATOM      1  N   UNL     1       9.761   1.168  22.255  0.00  0.00    -0.298 N 
ATOM      2  H   UNL     1       9.564   1.195  21.254  0.00  0.00    +0.154 HD
ATOM      3  C   UNL     1       9.388  -0.057  22.845  0.00  0.00    +0.147 A 
ATOM      4  C   UNL     1       9.886  -0.470  24.076  0.00  0.00    +0.099 A 
ATOM      5 CL   UNL     1      10.947   0.408  25.107  0.00  0.00    -0.078 Cl
ATOM      6  C   UNL     1       9.571  -1.752  24.440  0.00  0.00    +0.137 A 
ATOM      7  N   UNL     1       8.773  -2.557  23.726  0.00  0.00    -0.221 NA
ATOM      8  C   UNL     1       8.214  -2.069  22.615  0.00  0.00    +0.221 A 
ATOM      9  N   UNL     1       7.192  -2.801  21.983  0.00  0.00    -0.281 N 
ATOM     10  H   UNL     1       6.799  -2.238  21.241  0.00  0.00    +0.155 HD
ATOM     11  N   UNL     1       8.555  -0.860  22.113  0.00  0.00    -0.198 NA
ENDROOT
BRANCH   1  17
ATOM     12  C   UNL     1       8.942   3.285  23.227  0.00  0.00    +0.058 A 
ATOM     13  C   UNL     1       9.200   4.578  23.725  0.00  0.00    +0.015 A 
ATOM     14  C   UNL     1      10.498   5.063  23.787  0.00  0.00    +0.001 A 
ATOM     15  C   UNL     1      11.553   4.253  23.385  0.00  0.00    +0.002 A 
ATOM     16  C   UNL     1      11.307   2.962  22.903  0.00  0.00    +0.024 A 
ATOM     17  C   UNL     1       9.998   2.454  22.797  0.00  0.00    +0.045 A 
BRANCH  12  21
ATOM     18  C   UNL     1       5.545   2.192  24.497  0.00  0.00    +0.128 C 
ATOM     19  N   UNL     1       6.914   2.633  24.419  0.00  0.00    -0.314 N 
ATOM     20  H   UNL     1       7.351   3.001  25.258  0.00  0.00    +0.149 HD
ATOM     21  C   UNL     1       7.534   2.800  23.196  0.00  0.00    +0.246 C 
ATOM     22  O   UNL     1       6.989   2.564  22.126  0.00  0.00    -0.270 OA
ENDBRANCH  12  21
ENDBRANCH   1  17
BRANCH   9  23
ATOM     23  C   UNL     1       6.277  -3.735  22.538  0.00  0.00    +0.076 A 
ATOM     24  C   UNL     1       5.298  -3.374  23.481  0.00  0.00    +0.143 A 
ATOM     25  C   UNL     1       4.486  -4.362  24.094  0.00  0.00    +0.070 A 
ATOM     26  C   UNL     1       4.532  -5.726  23.765  0.00  0.00    +0.033 A 
ATOM     27  C   UNL     1       5.433  -6.051  22.757  0.00  0.00    +0.025 A 
ATOM     28  C   UNL     1       6.266  -5.088  22.159  0.00  0.00    +0.029 A 
BRANCH  26  29
ATOM     29  N   UNL     1       3.760  -6.675  24.399  0.00  0.00    -0.325 N 
ATOM     30  C   UNL     1       2.633  -7.367  23.751  0.00  0.00    +0.133 C 
ATOM     31  C   UNL     1       1.382  -7.239  24.632  0.00  0.00    +0.178 C 
ATOM     32  O   UNL     1       1.614  -7.770  25.948  0.00  0.00    -0.377 OA
ATOM     33  C   UNL     1       2.694  -7.066  26.586  0.00  0.00    +0.178 C 
ATOM     34  C   UNL     1       4.002  -7.154  25.775  0.00  0.00    +0.133 C 
ENDBRANCH  26  29
BRANCH  24  35
ATOM     35  O   UNL     1       5.091  -2.123  24.008  0.00  0.00    -0.493 OA
ATOM     36  C   UNL     1       5.618  -1.855  25.302  0.00  0.00    +0.277 C 
ENDBRANCH  24  35
ENDBRANCH   9  23
TORSDOF 5
ENDMDL
MODEL 3
REMARK VINA RESULT:      -7.3      2.739     10.259
REMARK  Name = 
REMARK  7 active torsions:
REMARK  status: ('A' for Active; 'I' for Inactive)
REMARK    1  A    between atoms: C_1  and  N_2
REMARK    2  A    between atoms: C_3  and  C_5
REMARK    3  A    between atoms: C_6  and  N_7
REMARK    4  A    between atoms: N_11  and  C_12
REMARK    5  A    between atoms: C_15  and  N_20
REMARK    6  A    between atoms: C_17  and  O_18
REMARK    7  A    between atoms: O_18  and  C_19
REMARK                            x       y       z     vdW  Elec       q    Type
REMARK                         _______ _______ _______ _____ _____    ______ ____
ROOT
ATOM      1  N   UNL     1       9.464   1.657  22.441  0.00  0.00    -0.298 N 
ATOM      2  H   UNL     1       9.036   1.757  21.520  0.00  0.00    +0.154 HD
ATOM      3  C   UNL     1       9.202   0.401  23.024  0.00  0.00    +0.147 A 
ATOM      4  C   UNL     1       9.965  -0.105  24.072  0.00  0.00    +0.099 A 
ATOM      5 CL   UNL     1      11.268   0.683  24.873  0.00  0.00    -0.078 Cl
ATOM      6  C   UNL     1       9.704  -1.404  24.419  0.00  0.00    +0.137 A 
ATOM      7  N   UNL     1       8.734  -2.145  23.867  0.00  0.00    -0.221 NA
ATOM      8  C   UNL     1       7.943  -1.572  22.954  0.00  0.00    +0.221 A 
ATOM      9  N   UNL     1       6.778  -2.242  22.540  0.00  0.00    -0.281 N 
ATOM     10  H   UNL     1       6.237  -1.622  21.952  0.00  0.00    +0.155 HD
ATOM     11  N   UNL     1       8.194  -0.337  22.463  0.00  0.00    -0.198 NA
ENDROOT
BRANCH   1  17
ATOM     12  C   UNL     1       8.930   3.807  23.533  0.00  0.00    +0.058 A 
ATOM     13  C   UNL     1       9.348   5.054  24.037  0.00  0.00    +0.015 A 
ATOM     14  C   UNL     1      10.686   5.419  23.997  0.00  0.00    +0.001 A 
ATOM     15  C   UNL     1      11.623   4.530  23.483  0.00  0.00    +0.002 A 
ATOM     16  C   UNL     1      11.219   3.283  22.994  0.00  0.00    +0.024 A 
ATOM     17  C   UNL     1       9.864   2.898  22.992  0.00  0.00    +0.045 A 
BRANCH  12  21
ATOM     18  C   UNL     1       5.246   3.738  22.655  0.00  0.00    +0.128 C 
ATOM     19  N   UNL     1       6.655   4.036  22.677  0.00  0.00    -0.314 N 
ATOM     20  H   UNL     1       7.057   4.525  21.885  0.00  0.00    +0.149 HD
ATOM     21  C   UNL     1       7.486   3.452  23.614  0.00  0.00    +0.246 C 
ATOM     22  O   UNL     1       7.090   2.685  24.482  0.00  0.00    -0.270 OA
ENDBRANCH  12  21
ENDBRANCH   1  17
BRANCH   9  23
ATOM     23  C   UNL     1       5.990  -3.197  23.238  0.00  0.00    +0.076 A 
ATOM     24  C   UNL     1       6.106  -4.582  23.024  0.00  0.00    +0.143 A 
ATOM     25  C   UNL     1       5.218  -5.487  23.657  0.00  0.00    +0.070 A 
ATOM     26  C   UNL     1       4.234  -5.101  24.580  0.00  0.00    +0.033 A 
ATOM     27  C   UNL     1       4.201  -3.738  24.859  0.00  0.00    +0.025 A 
ATOM     28  C   UNL     1       5.056  -2.823  24.218  0.00  0.00    +0.029 A 
BRANCH  26  29
ATOM     29  N   UNL     1       3.356  -5.992  25.157  0.00  0.00    -0.325 N 
ATOM     30  C   UNL     1       3.506  -7.454  25.063  0.00  0.00    +0.133 C 
ATOM     31  C   UNL     1       2.197  -8.070  24.550  0.00  0.00    +0.178 C 
ATOM     32  O   UNL     1       1.090  -7.728  25.403  0.00  0.00    -0.377 OA
ATOM     33  C   UNL     1       0.930  -6.300  25.461  0.00  0.00    +0.178 C 
ATOM     34  C   UNL     1       2.198  -5.595  25.983  0.00  0.00    +0.133 C 
ENDBRANCH  26  29
BRANCH  24  35
ATOM     35  O   UNL     1       6.945  -5.205  22.133  0.00  0.00    -0.493 OA
ATOM     36  C   UNL     1       6.365  -5.774  20.966  0.00  0.00    +0.277 C 
ENDBRANCH  24  35
ENDBRANCH   9  23
TORSDOF 5
ENDMDL
MODEL 4
REMARK VINA RESULT:      -7.2      2.099      2.832
REMARK  Name = 
REMARK  7 active torsions:
REMARK  status: ('A' for Active; 'I' for Inactive)
REMARK    1  A    between atoms: C_1  and  N_2
REMARK    2  A    between atoms: C_3  and  C_5
REMARK    3  A    between atoms: C_6  and  N_7
REMARK    4  A    between atoms: N_11  and  C_12
REMARK    5  A    between atoms: C_15  and  N_20
REMARK    6  A    between atoms: C_17  and  O_18
REMARK    7  A    between atoms: O_18  and  C_19
REMARK                            x       y       z     vdW  Elec       q    Type
REMARK                         _______ _______ _______ _____ _____    ______ ____
ROOT
ATOM      1  N   UNL     1       5.863  -5.281  25.319  0.00  0.00    -0.298 N 
ATOM      2  H   UNL     1       6.277  -5.457  26.235  0.00  0.00    +0.154 HD
ATOM      3  C   UNL     1       6.553  -4.287  24.597  0.00  0.00    +0.147 A 
ATOM      4  C   UNL     1       6.419  -4.143  23.219  0.00  0.00    +0.099 A 
ATOM      5 CL   UNL     1       5.389  -5.051  22.182  0.00  0.00    -0.078 Cl
ATOM      6  C   UNL     1       7.279  -3.253  22.633  0.00  0.00    +0.137 A 
ATOM      7  N   UNL     1       8.148  -2.493  23.313  0.00  0.00    -0.221 NA
ATOM      8  C   UNL     1       8.148  -2.575  24.647  0.00  0.00    +0.221 A 
ATOM      9  N   UNL     1       8.871  -1.624  25.391  0.00  0.00    -0.281 N 
ATOM     10  H   UNL     1       8.664  -1.753  26.373  0.00  0.00    +0.155 HD
ATOM     11  N   UNL     1       7.422  -3.505  25.309  0.00  0.00    -0.198 NA
ENDROOT
BRANCH   1  17
ATOM     12  C   UNL     1       3.416  -5.043  25.564  0.00  0.00    +0.058 A 
ATOM     13  C   UNL     1       2.124  -5.599  25.483  0.00  0.00    +0.015 A 
ATOM     14  C   UNL     1       1.945  -6.910  25.066  0.00  0.00    +0.001 A 
ATOM     15  C   UNL     1       3.049  -7.668  24.694  0.00  0.00    +0.002 A 
ATOM     16  C   UNL     1       4.335  -7.119  24.756  0.00  0.00    +0.024 A 
ATOM     17  C   UNL     1       4.551  -5.803  25.207  0.00  0.00    +0.045 A 
BRANCH  12  21
ATOM     18  C   UNL     1       3.777  -2.073  27.887  0.00  0.00    +0.128 C 
ATOM     19  N   UNL     1       3.615  -3.405  27.363  0.00  0.00    -0.314 N 
ATOM     20  H   UNL     1       3.734  -4.190  27.995  0.00  0.00    +0.149 HD
ATOM     21  C   UNL     1       3.559  -3.627  26.000  0.00  0.00    +0.246 C 
ATOM     22  O   UNL     1       3.613  -2.730  25.169  0.00  0.00    -0.270 OA
ENDBRANCH  12  21
ENDBRANCH   1  17
BRANCH   9  23
ATOM     23  C   UNL     1       9.220  -0.289  25.052  0.00  0.00    +0.076 A 
ATOM     24  C   UNL     1       8.319   0.785  25.158  0.00  0.00    +0.143 A 
ATOM     25  C   UNL     1       8.677   2.076  24.696  0.00  0.00    +0.070 A 
ATOM     26  C   UNL     1       9.943   2.401  24.185  0.00  0.00    +0.033 A 
ATOM     27  C   UNL     1      10.856   1.351  24.183  0.00  0.00    +0.025 A 
ATOM     28  C   UNL     1      10.508   0.057  24.611  0.00  0.00    +0.029 A 
BRANCH  26  29
ATOM     29  N   UNL     1      10.260   3.654  23.707  0.00  0.00    -0.325 N 
ATOM     30  C   UNL     1      11.561   3.987  23.105  0.00  0.00    +0.133 C 
ATOM     31  C   UNL     1      12.144   5.225  23.802  0.00  0.00    +0.178 C 
ATOM     32  O   UNL     1      11.245   6.344  23.715  0.00  0.00    -0.377 OA
ATOM     33  C   UNL     1       9.988   6.021  24.337  0.00  0.00    +0.178 C 
ATOM     34  C   UNL     1       9.319   4.793  23.688  0.00  0.00    +0.133 C 
ENDBRANCH  26  29
BRANCH  24  35
ATOM     35  O   UNL     1       7.011   0.718  25.568  0.00  0.00    -0.493 OA
ATOM     36  C   UNL     1       6.017   0.485  24.578  0.00  0.00    +0.277 C 
ENDBRANCH  24  35
ENDBRANCH   9  23
TORSDOF 5
ENDMDL
MODEL 5
REMARK VINA RESULT:      -7.1      2.527     10.633
REMARK  Name = 
REMARK  7 active torsions:
REMARK  status: ('A' for Active; 'I' for Inactive)
REMARK    1  A    between atoms: C_1  and  N_2
REMARK    2  A    between atoms: C_3  and  C_5
REMARK    3  A    between atoms: C_6  and  N_7
REMARK    4  A    between atoms: N_11  and  C_12
REMARK    5  A    between atoms: C_15  and  N_20
REMARK    6  A    between atoms: C_17  and  O_18
REMARK    7  A    between atoms: O_18  and  C_19
REMARK                            x       y       z     vdW  Elec       q    Type
REMARK                         _______ _______ _______ _____ _____    ______ ____
ROOT
ATOM      1  N   UNL     1       8.634   3.292  23.191  0.00  0.00    -0.298 N 
ATOM      2  H   UNL     1       9.221   3.004  22.408  0.00  0.00    +0.154 HD
ATOM      3  C   UNL     1       8.292   2.215  24.033  0.00  0.00    +0.147 A 
ATOM      4  C   UNL     1       7.832   2.407  25.333  0.00  0.00    +0.099 A 
ATOM      5 CL   UNL     1       7.537   3.913  26.111  0.00  0.00    -0.078 Cl
ATOM      6  C   UNL     1       7.705   1.271  26.087  0.00  0.00    +0.137 A 
ATOM      7  N   UNL     1       7.920   0.035  25.619  0.00  0.00    -0.221 NA
ATOM      8  C   UNL     1       8.235  -0.106  24.328  0.00  0.00    +0.221 A 
ATOM      9  N   UNL     1       8.228  -1.392  23.757  0.00  0.00    -0.281 N 
ATOM     10  H   UNL     1       8.362  -1.306  22.759  0.00  0.00    +0.155 HD
ATOM     11  N   UNL     1       8.497   0.957  23.534  0.00  0.00    -0.198 NA
ENDROOT
BRANCH   1  17
ATOM     12  C   UNL     1       8.733   5.755  23.352  0.00  0.00    +0.058 A 
ATOM     13  C   UNL     1       8.120   7.013  23.185  0.00  0.00    +0.015 A 
ATOM     14  C   UNL     1       6.832   7.108  22.680  0.00  0.00    +0.001 A 
ATOM     15  C   UNL     1       6.155   5.952  22.306  0.00  0.00    +0.002 A 
ATOM     16  C   UNL     1       6.762   4.700  22.454  0.00  0.00    +0.024 A 
ATOM     17  C   UNL     1       8.056   4.570  22.994  0.00  0.00    +0.045 A 
BRANCH  12  21
ATOM     18  C   UNL     1      12.511   5.482  23.356  0.00  0.00    +0.128 C 
ATOM     19  N   UNL     1      11.130   5.521  22.950  0.00  0.00    -0.314 N 
ATOM     20  H   UNL     1      10.920   5.606  21.961  0.00  0.00    +0.149 HD
ATOM     21  C   UNL     1      10.125   5.703  23.881  0.00  0.00    +0.246 C 
ATOM     22  O   UNL     1      10.330   5.811  25.083  0.00  0.00    -0.270 OA
ENDBRANCH  12  21
ENDBRANCH   1  17
BRANCH   9  23
ATOM     23  C   UNL     1       7.487  -2.543  24.137  0.00  0.00    +0.076 A 
ATOM     24  C   UNL     1       8.094  -3.772  24.450  0.00  0.00    +0.143 A 
ATOM     25  C   UNL     1       7.307  -4.922  24.708  0.00  0.00    +0.070 A 
ATOM     26  C   UNL     1       5.904  -4.916  24.751  0.00  0.00    +0.033 A 
ATOM     27  C   UNL     1       5.322  -3.671  24.541  0.00  0.00    +0.025 A 
ATOM     28  C   UNL     1       6.087  -2.526  24.255  0.00  0.00    +0.029 A 
BRANCH  26  29
ATOM     29  N   UNL     1       5.157  -6.053  24.967  0.00  0.00    -0.325 N 
ATOM     30  C   UNL     1       4.511  -6.818  23.887  0.00  0.00    +0.133 C 
ATOM     31  C   UNL     1       3.024  -7.010  24.216  0.00  0.00    +0.178 C 
ATOM     32  O   UNL     1       2.851  -7.675  25.479  0.00  0.00    -0.377 OA
ATOM     33  C   UNL     1       3.454  -6.904  26.533  0.00  0.00    +0.178 C 
ATOM     34  C   UNL     1       4.960  -6.673  26.294  0.00  0.00    +0.133 C 
ENDBRANCH  26  29
BRANCH  24  35
ATOM     35  O   UNL     1       9.439  -4.051  24.422  0.00  0.00    -0.493 OA
ATOM     36  C   UNL     1       9.947  -4.958  25.392  0.00  0.00    +0.277 C 
ENDBRANCH  24  35
ENDBRANCH   9  23
TORSDOF 5
ENDMDL
MODEL 6
REMARK VINA RESULT:      -6.9      2.640     10.093
REMARK  Name = 
REMARK  7 active torsions:
REMARK  status: ('A' for Active; 'I' for Inactive)
REMARK    1  A    between atoms: C_1  and  N_2
REMARK    2  A    between atoms: C_3  and  C_5
REMARK    3  A    between atoms: C_6  and  N_7
REMARK    4  A    between atoms: N_11  and  C_12
REMARK    5  A    between atoms: C_15  and  N_20
REMARK    6  A    between atoms: C_17  and  O_18
REMARK    7  A    between atoms: O_18  and  C_19
REMARK                            x       y       z     vdW  Elec       q    Type
REMARK                         _______ _______ _______ _____ _____    ______ ____
ROOT
ATOM      1  N   UNL     1       8.595   3.310  25.199  0.00  0.00    -0.298 N 
ATOM      2  H   UNL     1       8.797   3.255  26.197  0.00  0.00    +0.154 HD
ATOM      3  C   UNL     1       7.623   2.374  24.793  0.00  0.00    +0.147 A 
ATOM      4  C   UNL     1       6.922   2.503  23.597  0.00  0.00    +0.099 A 
ATOM      5 CL   UNL     1       7.136   3.722  22.403  0.00  0.00    -0.078 Cl
ATOM      6  C   UNL     1       5.892   1.618  23.419  0.00  0.00    +0.137 A 
ATOM      7  N   UNL     1       5.598   0.631  24.275  0.00  0.00    -0.221 NA
ATOM      8  C   UNL     1       6.381   0.469  25.346  0.00  0.00    +0.221 A 
ATOM      9  N   UNL     1       6.244  -0.695  26.124  0.00  0.00    -0.281 N 
ATOM     10  H   UNL     1       6.987  -0.718  26.809  0.00  0.00    +0.155 HD
ATOM     11  N   UNL     1       7.347   1.358  25.668  0.00  0.00    -0.198 NA
ENDROOT
BRANCH   1  17
ATOM     12  C   UNL     1      10.558   3.370  23.701  0.00  0.00    +0.058 A 
ATOM     13  C   UNL     1      11.558   4.104  23.031  0.00  0.00    +0.015 A 
ATOM     14  C   UNL     1      11.613   5.486  23.142  0.00  0.00    +0.001 A 
ATOM     15  C   UNL     1      10.652   6.151  23.895  0.00  0.00    +0.002 A 
ATOM     16  C   UNL     1       9.647   5.432  24.551  0.00  0.00    +0.024 A 
ATOM     17  C   UNL     1       9.585   4.027  24.483  0.00  0.00    +0.045 A 
BRANCH  12  21
ATOM     18  C   UNL     1      10.003  -0.000  22.064  0.00  0.00    +0.128 C 
ATOM     19  N   UNL     1      10.049   1.415  22.331  0.00  0.00    -0.314 N 
ATOM     20  H   UNL     1       9.908   2.057  21.559  0.00  0.00    +0.149 HD
ATOM     21  C   UNL     1      10.528   1.891  23.537  0.00  0.00    +0.246 C 
ATOM     22  O   UNL     1      10.907   1.164  24.446  0.00  0.00    -0.270 OA
ENDBRANCH  12  21
ENDBRANCH   1  17
BRANCH   9  23
ATOM     23  C   UNL     1       5.776  -1.983  25.747  0.00  0.00    +0.076 A 
ATOM     24  C   UNL     1       6.630  -2.997  25.279  0.00  0.00    +0.143 A 
ATOM     25  C   UNL     1       6.102  -4.224  24.803  0.00  0.00    +0.070 A 
ATOM     26  C   UNL     1       4.737  -4.551  24.832  0.00  0.00    +0.033 A 
ATOM     27  C   UNL     1       3.917  -3.577  25.394  0.00  0.00    +0.025 A 
ATOM     28  C   UNL     1       4.422  -2.344  25.843  0.00  0.00    +0.029 A 
BRANCH  26  29
ATOM     29  N   UNL     1       4.240  -5.734  24.331  0.00  0.00    -0.325 N 
ATOM     30  C   UNL     1       3.572  -5.845  23.024  0.00  0.00    +0.133 C 
ATOM     31  C   UNL     1       2.211  -6.533  23.202  0.00  0.00    +0.178 C 
ATOM     32  O   UNL     1       2.358  -7.830  23.807  0.00  0.00    -0.377 OA
ATOM     33  C   UNL     1       2.980  -7.709  25.098  0.00  0.00    +0.178 C 
ATOM     34  C   UNL     1       4.366  -7.038  25.014  0.00  0.00    +0.133 C 
ENDBRANCH  26  29
BRANCH  24  35
ATOM     35  O   UNL     1       7.988  -2.906  25.100  0.00  0.00    -0.493 OA
ATOM     36  C   UNL     1       8.493  -3.056  23.780  0.00  0.00    +0.277 C 
ENDBRANCH  24  35
ENDBRANCH   9  23
TORSDOF 5
ENDMDL
MODEL 7
REMARK VINA RESULT:      -6.8      2.516      3.911
REMARK  Name = 
REMARK  7 active torsions:
REMARK  status: ('A' for Active; 'I' for Inactive)
REMARK    1  A    between atoms: C_1  and  N_2
REMARK    2  A    between atoms: C_3  and  C_5
REMARK    3  A    between atoms: C_6  and  N_7
REMARK    4  A    between atoms: N_11  and  C_12
REMARK    5  A    between atoms: C_15  and  N_20
REMARK    6  A    between atoms: C_17  and  O_18
REMARK    7  A    between atoms: O_18  and  C_19
REMARK                            x       y       z     vdW  Elec       q    Type
REMARK                         _______ _______ _______ _____ _____    ______ ____
ROOT
ATOM      1  N   UNL     1       4.681  -2.762  25.065  0.00  0.00    -0.298 N 
ATOM      2  H   UNL     1       3.782  -2.370  24.787  0.00  0.00    +0.154 HD
ATOM      3  C   UNL     1       5.599  -1.772  25.469  0.00  0.00    +0.147 A 
ATOM      4  C   UNL     1       6.726  -2.071  26.230  0.00  0.00    +0.099 A 
ATOM      5 CL   UNL     1       7.239  -3.630  26.745  0.00  0.00    -0.078 Cl
ATOM      6  C   UNL     1       7.429  -0.990  26.692  0.00  0.00    +0.137 A 
ATOM      7  N   UNL     1       7.133   0.280  26.388  0.00  0.00    -0.221 NA
ATOM      8  C   UNL     1       6.118   0.509  25.548  0.00  0.00    +0.221 A 
ATOM      9  N   UNL     1       5.940   1.803  25.026  0.00  0.00    -0.281 N 
ATOM     10  H   UNL     1       5.217   1.773  24.320  0.00  0.00    +0.155 HD
ATOM     11  N   UNL     1       5.295  -0.480  25.133  0.00  0.00    -0.198 NA
ENDROOT
BRANCH   1  17
ATOM     12  C   UNL     1       5.604  -4.408  23.471  0.00  0.00    +0.058 A 
ATOM     13  C   UNL     1       5.725  -5.740  23.028  0.00  0.00    +0.015 A 
ATOM     14  C   UNL     1       5.092  -6.770  23.709  0.00  0.00    +0.001 A 
ATOM     15  C   UNL     1       4.361  -6.485  24.856  0.00  0.00    +0.002 A 
ATOM     16  C   UNL     1       4.248  -5.166  25.312  0.00  0.00    +0.024 A 
ATOM     17  C   UNL     1       4.852  -4.097  24.624  0.00  0.00    +0.045 A 
BRANCH  12  21
ATOM     18  C   UNL     1       8.461  -2.246  22.239  0.00  0.00    +0.128 C 
ATOM     19  N   UNL     1       7.676  -3.232  22.937  0.00  0.00    -0.314 N 
ATOM     20  H   UNL     1       8.162  -3.967  23.441  0.00  0.00    +0.149 HD
ATOM     21  C   UNL     1       6.316  -3.338  22.718  0.00  0.00    +0.246 C 
ATOM     22  O   UNL     1       5.696  -2.603  21.960  0.00  0.00    -0.270 OA
ENDBRANCH  12  21
ENDBRANCH   1  17
BRANCH   9  23
ATOM     23  C   UNL     1       6.898   2.831  24.817  0.00  0.00    +0.076 A 
ATOM     24  C   UNL     1       7.665   2.931  23.643  0.00  0.00    +0.143 A 
ATOM     25  C   UNL     1       8.691   3.903  23.530  0.00  0.00    +0.070 A 
ATOM     26  C   UNL     1       8.966   4.867  24.513  0.00  0.00    +0.033 A 
ATOM     27  C   UNL     1       8.130   4.820  25.624  0.00  0.00    +0.025 A 
ATOM     28  C   UNL     1       7.127   3.844  25.764  0.00  0.00    +0.029 A 
BRANCH  26  29
ATOM     29  N   UNL     1       9.991   5.780  24.400  0.00  0.00    -0.325 N 
ATOM     30  C   UNL     1      11.087   5.654  23.424  0.00  0.00    +0.133 C 
ATOM     31  C   UNL     1      12.434   5.766  24.151  0.00  0.00    +0.178 C 
ATOM     32  O   UNL     1      12.537   7.008  24.869  0.00  0.00    -0.377 OA
ATOM     33  C   UNL     1      11.484   7.108  25.843  0.00  0.00    +0.178 C 
ATOM     34  C   UNL     1      10.086   7.020  25.198  0.00  0.00    +0.133 C 
ENDBRANCH  26  29
BRANCH  24  35
ATOM     35  O   UNL     1       7.628   2.079  22.566  0.00  0.00    -0.493 OA
ATOM     36  C   UNL     1       8.848   1.824  21.883  0.00  0.00    +0.277 C 
ENDBRANCH  24  35
ENDBRANCH   9  23
TORSDOF 5
ENDMDL
MODEL 8
REMARK VINA RESULT:      -6.7      2.796     10.043
REMARK  Name = 
REMARK  7 active torsions:
REMARK  status: ('A' for Active; 'I' for Inactive)
REMARK    1  A    between atoms: C_1  and  N_2
REMARK    2  A    between atoms: C_3  and  C_5
REMARK    3  A    between atoms: C_6  and  N_7
REMARK    4  A    between atoms: N_11  and  C_12
REMARK    5  A    between atoms: C_15  and  N_20
REMARK    6  A    between atoms: C_17  and  O_18
REMARK    7  A    between atoms: O_18  and  C_19
REMARK                            x       y       z     vdW  Elec       q    Type
REMARK                         _______ _______ _______ _____ _____    ______ ____
ROOT
ATOM      1  N   UNL     1       9.291   2.993  23.990  0.00  0.00    -0.298 N 
ATOM      2  H   UNL     1      10.013   2.656  23.353  0.00  0.00    +0.154 HD
ATOM      3  C   UNL     1       8.578   1.942  24.602  0.00  0.00    +0.147 A 
ATOM      4  C   UNL     1       7.827   2.130  25.758  0.00  0.00    +0.099 A 
ATOM      5 CL   UNL     1       7.570   3.613  26.592  0.00  0.00    -0.078 Cl
ATOM      6  C   UNL     1       7.334   0.989  26.333  0.00  0.00    +0.137 A 
ATOM      7  N   UNL     1       7.474  -0.234  25.805  0.00  0.00    -0.221 NA
ATOM      8  C   UNL     1       8.093  -0.347  24.626  0.00  0.00    +0.221 A 
ATOM      9  N   UNL     1       8.041  -1.574  23.940  0.00  0.00    -0.281 N 
ATOM     10  H   UNL     1       8.445  -1.451  23.022  0.00  0.00    +0.155 HD
ATOM     11  N   UNL     1       8.714   0.701  24.040  0.00  0.00    -0.198 NA
ENDROOT
BRANCH   1  17
ATOM     12  C   UNL     1       7.847   4.772  23.067  0.00  0.00    +0.058 A 
ATOM     13  C   UNL     1       7.588   6.139  22.847  0.00  0.00    +0.015 A 
ATOM     14  C   UNL     1       8.460   7.108  23.324  0.00  0.00    +0.001 A 
ATOM     15  C   UNL     1       9.579   6.723  24.053  0.00  0.00    +0.002 A 
ATOM     16  C   UNL     1       9.836   5.368  24.291  0.00  0.00    +0.024 A 
ATOM     17  C   UNL     1       8.987   4.361  23.791  0.00  0.00    +0.045 A 
BRANCH  12  21
ATOM     18  C   UNL     1       4.575   2.917  22.624  0.00  0.00    +0.128 C 
ATOM     19  N   UNL     1       5.597   3.827  23.075  0.00  0.00    -0.314 N 
ATOM     20  H   UNL     1       5.318   4.626  23.633  0.00  0.00    +0.149 HD
ATOM     21  C   UNL     1       6.874   3.769  22.552  0.00  0.00    +0.246 C 
ATOM     22  O   UNL     1       7.225   2.947  21.716  0.00  0.00    -0.270 OA
ENDBRANCH  12  21
ENDBRANCH   1  17
BRANCH   9  23
ATOM     23  C   UNL     1       7.059  -2.600  23.999  0.00  0.00    +0.076 A 
ATOM     24  C   UNL     1       7.110  -3.651  24.931  0.00  0.00    +0.143 A 
ATOM     25  C   UNL     1       6.173  -4.714  24.873  0.00  0.00    +0.070 A 
ATOM     26  C   UNL     1       5.104  -4.765  23.965  0.00  0.00    +0.033 A 
ATOM     27  C   UNL     1       5.007  -3.666  23.118  0.00  0.00    +0.025 A 
ATOM     28  C   UNL     1       5.945  -2.618  23.143  0.00  0.00    +0.029 A 
BRANCH  26  29
ATOM     29  N   UNL     1       4.226  -5.825  23.902  0.00  0.00    -0.325 N 
ATOM     30  C   UNL     1       3.017  -5.827  23.062  0.00  0.00    +0.133 C 
ATOM     31  C   UNL     1       1.798  -6.192  23.922  0.00  0.00    +0.178 C 
ATOM     32  O   UNL     1       1.974  -7.469  24.559  0.00  0.00    -0.377 OA
ATOM     33  C   UNL     1       3.137  -7.447  25.404  0.00  0.00    +0.178 C 
ATOM     34  C   UNL     1       4.418  -7.102  24.619  0.00  0.00    +0.133 C 
ENDBRANCH  26  29
BRANCH  24  35
ATOM     35  O   UNL     1       8.083  -3.859  25.878  0.00  0.00    -0.493 OA
ATOM     36  C   UNL     1       7.947  -4.990  26.729  0.00  0.00    +0.277 C 
ENDBRANCH  24  35
ENDBRANCH   9  23
TORSDOF 5
ENDMDL
MODEL 9
REMARK VINA RESULT:      -6.5      2.833     10.086
REMARK  Name = 
REMARK  7 active torsions:
REMARK  status: ('A' for Active; 'I' for Inactive)
REMARK    1  A    between atoms: C_1  and  N_2
REMARK    2  A    between atoms: C_3  and  C_5
REMARK    3  A    between atoms: C_6  and  N_7
REMARK    4  A    between atoms: N_11  and  C_12
REMARK    5  A    between atoms: C_15  and  N_20
REMARK    6  A    between atoms: C_17  and  O_18
REMARK    7  A    between atoms: O_18  and  C_19
REMARK                            x       y       z     vdW  Elec       q    Type
REMARK                         _______ _______ _______ _____ _____    ______ ____
ROOT
ATOM      1  N   UNL     1       9.314   2.319  22.746  0.00  0.00    -0.298 N 
ATOM      2  H   UNL     1       8.680   2.526  21.975  0.00  0.00    +0.154 HD
ATOM      3  C   UNL     1       9.104   1.036  23.288  0.00  0.00    +0.147 A 
ATOM      4  C   UNL     1      10.060   0.393  24.069  0.00  0.00    +0.099 A 
ATOM      5 CL   UNL     1      11.582   1.025  24.563  0.00  0.00    -0.078 Cl
ATOM      6  C   UNL     1       9.788  -0.913  24.379  0.00  0.00    +0.137 A 
ATOM      7  N   UNL     1       8.653  -1.540  24.043  0.00  0.00    -0.221 NA
ATOM      8  C   UNL     1       7.710  -0.841  23.405  0.00  0.00    +0.221 A 
ATOM      9  N   UNL     1       6.427  -1.399  23.256  0.00  0.00    -0.281 N 
ATOM     10  H   UNL     1       5.809  -0.698  22.870  0.00  0.00    +0.155 HD
ATOM     11  N   UNL     1       7.930   0.414  22.953  0.00  0.00    -0.198 NA
ENDROOT
BRANCH   1  17
ATOM     12  C   UNL     1       9.239   4.411  24.057  0.00  0.00    +0.058 A 
ATOM     13  C   UNL     1       9.872   5.580  24.524  0.00  0.00    +0.015 A 
ATOM     14  C   UNL     1      11.193   5.846  24.196  0.00  0.00    +0.001 A 
ATOM     15  C   UNL     1      11.905   4.932  23.427  0.00  0.00    +0.002 A 
ATOM     16  C   UNL     1      11.289   3.761  22.972  0.00  0.00    +0.024 A 
ATOM     17  C   UNL     1       9.940   3.480  23.261  0.00  0.00    +0.045 A 
BRANCH  12  21
ATOM     18  C   UNL     1       6.254   3.700  26.279  0.00  0.00    +0.128 C 
ATOM     19  N   UNL     1       7.591   3.929  25.793  0.00  0.00    -0.314 N 
ATOM     20  H   UNL     1       8.326   4.109  26.468  0.00  0.00    +0.149 HD
ATOM     21  C   UNL     1       7.825   4.159  24.451  0.00  0.00    +0.246 C 
ATOM     22  O   UNL     1       6.942   4.156  23.602  0.00  0.00    -0.270 OA
ENDBRANCH  12  21
ENDBRANCH   1  17
BRANCH   9  23
ATOM     23  C   UNL     1       5.763  -2.362  24.064  0.00  0.00    +0.076 A 
ATOM     24  C   UNL     1       4.973  -2.012  25.173  0.00  0.00    +0.143 A 
ATOM     25  C   UNL     1       4.429  -3.012  26.017  0.00  0.00    +0.070 A 
ATOM     26  C   UNL     1       4.559  -4.389  25.781  0.00  0.00    +0.033 A 
ATOM     27  C   UNL     1       5.254  -4.718  24.622  0.00  0.00    +0.025 A 
ATOM     28  C   UNL     1       5.826  -3.738  23.790  0.00  0.00    +0.029 A 
BRANCH  26  29
ATOM     29  N   UNL     1       4.052  -5.346  26.633  0.00  0.00    -0.325 N 
ATOM     30  C   UNL     1       2.879  -5.125  27.495  0.00  0.00    +0.133 C 
ATOM     31  C   UNL     1       3.234  -5.489  28.944  0.00  0.00    +0.178 C 
ATOM     32  O   UNL     1       3.687  -6.850  29.044  0.00  0.00    -0.377 OA
ATOM     33  C   UNL     1       4.853  -7.047  28.226  0.00  0.00    +0.178 C 
ATOM     34  C   UNL     1       4.584  -6.720  26.744  0.00  0.00    +0.133 C 
ENDBRANCH  26  29
BRANCH  24  35
ATOM     35  O   UNL     1       4.744  -0.743  25.646  0.00  0.00    -0.493 OA
ATOM     36  C   UNL     1       4.129  -0.614  26.922  0.00  0.00    +0.277 C 
ENDBRANCH  24  35
ENDBRANCH   9  23
TORSDOF 5
ENDMDL
