MODEL 1
REMARK VINA RESULT:      -6.7      0.000      0.000
REMARK  Name = 
REMARK  9 active torsions:
REMARK  status: ('A' for Active; 'I' for Inactive)
REMARK    1  A    between atoms: C_1  and  C_2
REMARK    2  A    between atoms: C_2  and  C_3
REMARK    3  A    between atoms: C_3  and  C_4
REMARK    4  A    between atoms: C_4  and  C_5
REMARK    5  A    between atoms: C_5  and  N_6
REMARK    6  A    between atoms: N_9  and  N_10
REMARK    7  A    between atoms: N_10  and  C_11
REMARK    8  A    between atoms: C_18  and  C_19
REMARK    9  A    between atoms: C_19  and  O_20
REMARK                            x       y       z     vdW  Elec       q    Type
REMARK                         _______ _______ _______ _____ _____    ______ ____
ROOT
ATOM      1  N   UNL     1       9.771  -0.842  21.481  0.00  0.00    -0.217 N 
ATOM      2  H   UNL     1      10.702  -1.085  21.122  0.00  0.00    +0.187 HD
ENDROOT
BRANCH   1   3
ATOM      3  C   UNL     1       8.969  -1.872  21.911  0.00  0.00    +0.114 C 
ATOM      4  C   UNL     1       8.739  -2.328  23.145  0.00  0.00    +0.019 C 
ATOM      5  C   UNL     1       7.873  -3.418  23.579  0.00  0.00    +0.011 A 
ATOM      6  C   UNL     1       7.070  -4.336  22.921  0.00  0.00    +0.016 A 
ATOM      7  C   UNL     1       6.356  -5.274  23.689  0.00  0.00    -0.021 A 
ATOM      8  C   UNL     1       6.471  -5.256  25.097  0.00  0.00    +0.008 A 
ATOM      9  C   UNL     1       7.288  -4.323  25.747  0.00  0.00    +0.029 A 
ATOM     10  C   UNL     1       7.989  -3.411  24.979  0.00  0.00    +0.072 A 
ATOM     11  N   UNL     1       8.861  -2.411  25.472  0.00  0.00    -0.254 NA
ATOM     12  C   UNL     1       9.296  -1.789  24.409  0.00  0.00    +0.121 C 
BRANCH   7  13
ATOM     13  C   UNL     1       5.497  -6.307  23.009  0.00  0.00    +0.191 C 
BRANCH  13  14
ATOM     14  O   UNL     1       5.335  -5.988  21.635  0.00  0.00    -0.390 OA
ATOM     15  H   UNL     1       6.060  -6.427  21.158  0.00  0.00    +0.210 HD
ENDBRANCH  13  14
ENDBRANCH   7  13
ENDBRANCH   1   3
BRANCH   1  18
ATOM     16  N   UNL     1      10.178   1.408  23.086  0.00  0.00    -0.112 NA
ATOM     17  C   UNL     1       9.493   1.478  21.999  0.00  0.00    +0.399 C 
ATOM     18  N   UNL     1       9.348   0.413  21.136  0.00  0.00    -0.186 N 
ATOM     19  H   UNL     1       8.470   0.437  20.623  0.00  0.00    +0.287 HD
ATOM     20  N   UNL     1       8.822   2.562  21.514  0.00  0.00    -0.288 N 
ATOM     21  H   UNL     1       8.881   2.660  20.508  0.00  0.00    +0.255 HD
ATOM     22  H   UNL     1       9.052   3.435  21.972  0.00  0.00    +0.255 HD
BRANCH  16  23
ATOM     23  C   UNL     1      10.310   2.609  23.911  0.00  0.00    +0.243 C 
BRANCH  23  24
ATOM     24  C   UNL     1      11.353   3.544  23.295  0.00  0.00    +0.041 C 
BRANCH  24  25
ATOM     25  C   UNL     1      11.148   5.000  23.720  0.00  0.00    +0.003 C 
BRANCH  25  27
ATOM     26  C   UNL     1      13.234   5.536  22.428  0.00  0.00    +0.004 C 
ATOM     27  C   UNL     1      12.460   5.783  23.714  0.00  0.00    -0.003 C 
ENDBRANCH  25  27
ENDBRANCH  24  25
ENDBRANCH  23  24
ENDBRANCH  16  23
ENDBRANCH   1  18
TORSDOF 8
ENDMDL
MODEL 2
REMARK VINA RESULT:      -6.7      1.852      2.980
REMARK  Name = 
REMARK  9 active torsions:
REMARK  status: ('A' for Active; 'I' for Inactive)
REMARK    1  A    between atoms: C_1  and  C_2
REMARK    2  A    between atoms: C_2  and  C_3
REMARK    3  A    between atoms: C_3  and  C_4
REMARK    4  A    between atoms: C_4  and  C_5
REMARK    5  A    between atoms: C_5  and  N_6
REMARK    6  A    between atoms: N_9  and  N_10
REMARK    7  A    between atoms: N_10  and  C_11
REMARK    8  A    between atoms: C_18  and  C_19
REMARK    9  A    between atoms: C_19  and  O_20
REMARK                            x       y       z     vdW  Elec       q    Type
REMARK                         _______ _______ _______ _____ _____    ______ ____
ROOT
ATOM      1  N   UNL     1       9.759  -1.485  21.682  0.00  0.00    -0.217 N 
ATOM      2  H   UNL     1      10.673  -1.885  21.440  0.00  0.00    +0.187 HD
ENDROOT
BRANCH   1   3
ATOM      3  C   UNL     1       8.788  -2.351  22.126  0.00  0.00    +0.114 C 
ATOM      4  C   UNL     1       8.550  -2.823  23.353  0.00  0.00    +0.019 C 
ATOM      5  C   UNL     1       7.504  -3.735  23.803  0.00  0.00    +0.011 A 
ATOM      6  C   UNL     1       6.483  -4.424  23.169  0.00  0.00    +0.016 A 
ATOM      7  C   UNL     1       5.640  -5.238  23.947  0.00  0.00    -0.021 A 
ATOM      8  C   UNL     1       5.850  -5.331  25.341  0.00  0.00    +0.008 A 
ATOM      9  C   UNL     1       6.888  -4.629  25.967  0.00  0.00    +0.029 A 
ATOM     10  C   UNL     1       7.713  -3.837  25.188  0.00  0.00    +0.072 A 
ATOM     11  N   UNL     1       8.808  -3.072  25.657  0.00  0.00    -0.254 NA
ATOM     12  C   UNL     1       9.292  -2.490  24.592  0.00  0.00    +0.121 C 
BRANCH   7  13
ATOM     13  C   UNL     1       4.538  -6.027  23.290  0.00  0.00    +0.191 C 
BRANCH  13  14
ATOM     14  O   UNL     1       4.531  -7.363  23.771  0.00  0.00    -0.390 OA
ATOM     15  H   UNL     1       5.110  -7.876  23.181  0.00  0.00    +0.210 HD
ENDBRANCH  13  14
ENDBRANCH   7  13
ENDBRANCH   1   3
BRANCH   1  18
ATOM     16  N   UNL     1       9.917   0.831  23.236  0.00  0.00    -0.112 NA
ATOM     17  C   UNL     1       9.548   0.877  22.004  0.00  0.00    +0.399 C 
ATOM     18  N   UNL     1       9.545  -0.229  21.182  0.00  0.00    -0.186 N 
ATOM     19  H   UNL     1       8.837  -0.180  20.454  0.00  0.00    +0.287 HD
ATOM     20  N   UNL     1       9.118   1.970  21.311  0.00  0.00    -0.288 N 
ATOM     21  H   UNL     1       9.446   1.999  20.354  0.00  0.00    +0.255 HD
ATOM     22  H   UNL     1       9.291   2.853  21.775  0.00  0.00    +0.255 HD
BRANCH  16  23
ATOM     23  C   UNL     1       9.926   2.070  24.013  0.00  0.00    +0.243 C 
BRANCH  23  24
ATOM     24  C   UNL     1       8.655   2.153  24.862  0.00  0.00    +0.041 C 
BRANCH  24  25
ATOM     25  C   UNL     1       8.336   0.828  25.558  0.00  0.00    +0.003 C 
BRANCH  25  27
ATOM     26  C   UNL     1       6.474   0.118  24.028  0.00  0.00    +0.004 C 
ATOM     27  C   UNL     1       6.852   0.477  25.457  0.00  0.00    -0.003 C 
ENDBRANCH  25  27
ENDBRANCH  24  25
ENDBRANCH  23  24
ENDBRANCH  16  23
ENDBRANCH   1  18
TORSDOF 8
ENDMDL
MODEL 3
REMARK VINA RESULT:      -6.7      3.810      6.395
REMARK  Name = 
REMARK  9 active torsions:
REMARK  status: ('A' for Active; 'I' for Inactive)
REMARK    1  A    between atoms: C_1  and  C_2
REMARK    2  A    between atoms: C_2  and  C_3
REMARK    3  A    between atoms: C_3  and  C_4
REMARK    4  A    between atoms: C_4  and  C_5
REMARK    5  A    between atoms: C_5  and  N_6
REMARK    6  A    between atoms: N_9  and  N_10
REMARK    7  A    between atoms: N_10  and  C_11
REMARK    8  A    between atoms: C_18  and  C_19
REMARK    9  A    between atoms: C_19  and  O_20
REMARK                            x       y       z     vdW  Elec       q    Type
REMARK                         _______ _______ _______ _____ _____    ______ ____
ROOT
ATOM      1  N   UNL     1       6.804  -5.249  26.482  0.00  0.00    -0.217 N 
ATOM      2  H   UNL     1       6.634  -4.478  27.139  0.00  0.00    +0.187 HD
ENDROOT
BRANCH   1   3
ATOM      3  C   UNL     1       5.719  -5.995  26.086  0.00  0.00    +0.114 C 
ATOM      4  C   UNL     1       4.909  -5.846  25.035  0.00  0.00    +0.019 C 
ATOM      5  C   UNL     1       3.767  -6.659  24.628  0.00  0.00    +0.011 A 
ATOM      6  C   UNL     1       3.128  -7.765  25.163  0.00  0.00    +0.016 A 
ATOM      7  C   UNL     1       2.023  -8.299  24.476  0.00  0.00    -0.021 A 
ATOM      8  C   UNL     1       1.596  -7.701  23.269  0.00  0.00    +0.008 A 
ATOM      9  C   UNL     1       2.252  -6.581  22.742  0.00  0.00    +0.029 A 
ATOM     10  C   UNL     1       3.333  -6.064  23.432  0.00  0.00    +0.072 A 
ATOM     11  N   UNL     1       4.099  -4.938  23.046  0.00  0.00    -0.254 NA
ATOM     12  C   UNL     1       5.006  -4.812  23.977  0.00  0.00    +0.121 C 
BRANCH   7  13
ATOM     13  C   UNL     1       1.284  -9.483  25.042  0.00  0.00    +0.191 C 
BRANCH  13  14
ATOM     14  O   UNL     1       2.200 -10.483  25.462  0.00  0.00    -0.390 OA
ATOM     15  H   UNL     1       2.328 -10.361  26.419  0.00  0.00    +0.210 HD
ENDBRANCH  13  14
ENDBRANCH   7  13
ENDBRANCH   1   3
BRANCH   1  18
ATOM     16  N   UNL     1       8.725  -3.829  25.033  0.00  0.00    -0.112 NA
ATOM     17  C   UNL     1       9.008  -4.950  25.598  0.00  0.00    +0.399 C 
ATOM     18  N   UNL     1       8.115  -5.633  26.396  0.00  0.00    -0.186 N 
ATOM     19  H   UNL     1       8.260  -6.639  26.380  0.00  0.00    +0.287 HD
ATOM     20  N   UNL     1      10.183  -5.638  25.526  0.00  0.00    -0.288 N 
ATOM     21  H   UNL     1      10.452  -6.076  26.399  0.00  0.00    +0.255 HD
ATOM     22  H   UNL     1      10.955  -5.107  25.140  0.00  0.00    +0.255 HD
BRANCH  16  23
ATOM     23  C   UNL     1       9.758  -3.161  24.243  0.00  0.00    +0.243 C 
BRANCH  23  24
ATOM     24  C   UNL     1       9.100  -2.263  23.192  0.00  0.00    +0.041 C 
BRANCH  24  25
ATOM     25  C   UNL     1      10.121  -1.396  22.450  0.00  0.00    +0.003 C 
BRANCH  25  27
ATOM     26  C   UNL     1       9.866   1.039  21.892  0.00  0.00    +0.004 C 
ATOM     27  C   UNL     1       9.443  -0.378  21.536  0.00  0.00    -0.003 C 
ENDBRANCH  25  27
ENDBRANCH  24  25
ENDBRANCH  23  24
ENDBRANCH  16  23
ENDBRANCH   1  18
TORSDOF 8
ENDMDL
MODEL 4
REMARK VINA RESULT:      -6.7      3.494      8.987
REMARK  Name = 
REMARK  9 active torsions:
REMARK  status: ('A' for Active; 'I' for Inactive)
REMARK    1  A    between atoms: C_1  and  C_2
REMARK    2  A    between atoms: C_2  and  C_3
REMARK    3  A    between atoms: C_3  and  C_4
REMARK    4  A    between atoms: C_4  and  C_5
REMARK    5  A    between atoms: C_5  and  N_6
REMARK    6  A    between atoms: N_9  and  N_10
REMARK    7  A    between atoms: N_10  and  C_11
REMARK    8  A    between atoms: C_18  and  C_19
REMARK    9  A    between atoms: C_19  and  O_20
REMARK                            x       y       z     vdW  Elec       q    Type
REMARK                         _______ _______ _______ _____ _____    ______ ____
ROOT
ATOM      1  N   UNL     1       9.850  -0.506  23.773  0.00  0.00    -0.217 N 
ATOM      2  H   UNL     1       9.859  -1.120  22.951  0.00  0.00    +0.187 HD
ENDROOT
BRANCH   1   3
ATOM      3  C   UNL     1      10.368   0.758  23.626  0.00  0.00    +0.114 C 
ATOM      4  C   UNL     1       9.828   1.948  23.904  0.00  0.00    +0.019 C 
ATOM      5  C   UNL     1      10.403   3.280  23.749  0.00  0.00    +0.011 A 
ATOM      6  C   UNL     1      11.603   3.764  23.254  0.00  0.00    +0.016 A 
ATOM      7  C   UNL     1      11.819   5.154  23.260  0.00  0.00    -0.021 A 
ATOM      8  C   UNL     1      10.819   6.014  23.767  0.00  0.00    +0.008 A 
ATOM      9  C   UNL     1       9.610   5.509  24.262  0.00  0.00    +0.029 A 
ATOM     10  C   UNL     1       9.410   4.141  24.245  0.00  0.00    +0.072 A 
ATOM     11  N   UNL     1       8.248   3.469  24.696  0.00  0.00    -0.254 NA
ATOM     12  C   UNL     1       8.493   2.202  24.494  0.00  0.00    +0.121 C 
BRANCH   7  13
ATOM     13  C   UNL     1      13.098   5.721  22.703  0.00  0.00    +0.191 C 
BRANCH  13  14
ATOM     14  O   UNL     1      14.216   5.000  23.201  0.00  0.00    -0.390 OA
ATOM     15  H   UNL     1      13.999   4.055  23.117  0.00  0.00    +0.210 HD
ENDBRANCH  13  14
ENDBRANCH   7  13
ENDBRANCH   1   3
BRANCH   1  18
ATOM     16  N   UNL     1       7.683  -2.199  24.265  0.00  0.00    -0.112 NA
ATOM     17  C   UNL     1       8.534  -1.918  25.188  0.00  0.00    +0.399 C 
ATOM     18  N   UNL     1       9.664  -1.162  24.960  0.00  0.00    -0.186 N 
ATOM     19  H   UNL     1       9.965  -0.644  25.781  0.00  0.00    +0.287 HD
ATOM     20  N   UNL     1       8.489  -2.300  26.497  0.00  0.00    -0.288 N 
ATOM     21  H   UNL     1       9.394  -2.537  26.883  0.00  0.00    +0.255 HD
ATOM     22  H   UNL     1       7.813  -3.027  26.697  0.00  0.00    +0.255 HD
BRANCH  16  23
ATOM     23  C   UNL     1       6.540  -3.048  24.599  0.00  0.00    +0.243 C 
BRANCH  23  24
ATOM     24  C   UNL     1       6.804  -4.477  24.121  0.00  0.00    +0.041 C 
BRANCH  24  25
ATOM     25  C   UNL     1       7.348  -4.519  22.691  0.00  0.00    +0.003 C 
BRANCH  25  27
ATOM     26  C   UNL     1       6.203  -5.787  20.850  0.00  0.00    +0.004 C 
ATOM     27  C   UNL     1       7.140  -5.887  22.044  0.00  0.00    -0.003 C 
ENDBRANCH  25  27
ENDBRANCH  24  25
ENDBRANCH  23  24
ENDBRANCH  16  23
ENDBRANCH   1  18
TORSDOF 8
ENDMDL
MODEL 5
REMARK VINA RESULT:      -6.6      2.100      2.891
REMARK  Name = 
REMARK  9 active torsions:
REMARK  status: ('A' for Active; 'I' for Inactive)
REMARK    1  A    between atoms: C_1  and  C_2
REMARK    2  A    between atoms: C_2  and  C_3
REMARK    3  A    between atoms: C_3  and  C_4
REMARK    4  A    between atoms: C_4  and  C_5
REMARK    5  A    between atoms: C_5  and  N_6
REMARK    6  A    between atoms: N_9  and  N_10
REMARK    7  A    between atoms: N_10  and  C_11
REMARK    8  A    between atoms: C_18  and  C_19
REMARK    9  A    between atoms: C_19  and  O_20
REMARK                            x       y       z     vdW  Elec       q    Type
REMARK                         _______ _______ _______ _____ _____    ______ ____
ROOT
ATOM      1  N   UNL     1      10.581   0.757  24.985  0.00  0.00    -0.217 N 
ATOM      2  H   UNL     1      11.274   1.101  25.660  0.00  0.00    +0.187 HD
ENDROOT
BRANCH   1   3
ATOM      3  C   UNL     1       9.877  -0.375  25.320  0.00  0.00    +0.114 C 
ATOM      4  C   UNL     1       9.512  -1.417  24.568  0.00  0.00    +0.019 C 
ATOM      5  C   UNL     1       8.773  -2.615  24.949  0.00  0.00    +0.011 A 
ATOM      6  C   UNL     1       8.186  -3.057  26.124  0.00  0.00    +0.016 A 
ATOM      7  C   UNL     1       7.536  -4.305  26.121  0.00  0.00    -0.021 A 
ATOM      8  C   UNL     1       7.500  -5.070  24.934  0.00  0.00    +0.008 A 
ATOM      9  C   UNL     1       8.096  -4.608  23.754  0.00  0.00    +0.029 A 
ATOM     10  C   UNL     1       8.726  -3.378  23.771  0.00  0.00    +0.072 A 
ATOM     11  N   UNL     1       9.368  -2.762  22.669  0.00  0.00    -0.254 NA
ATOM     12  C   UNL     1       9.818  -1.627  23.133  0.00  0.00    +0.121 C 
BRANCH   7  13
ATOM     13  C   UNL     1       6.861  -4.806  27.371  0.00  0.00    +0.191 C 
BRANCH  13  14
ATOM     14  O   UNL     1       7.514  -5.971  27.852  0.00  0.00    -0.390 OA
ATOM     15  H   UNL     1       7.076  -6.731  27.432  0.00  0.00    +0.210 HD
ENDBRANCH  13  14
ENDBRANCH   7  13
ENDBRANCH   1   3
BRANCH   1  18
ATOM     16  N   UNL     1       9.235   3.030  24.075  0.00  0.00    -0.112 NA
ATOM     17  C   UNL     1       9.980   2.335  23.289  0.00  0.00    +0.399 C 
ATOM     18  N   UNL     1      10.730   1.263  23.722  0.00  0.00    -0.186 N 
ATOM     19  H   UNL     1      10.871   0.561  23.000  0.00  0.00    +0.287 HD
ATOM     20  N   UNL     1      10.165   2.519  21.950  0.00  0.00    -0.288 N 
ATOM     21  H   UNL     1      11.118   2.358  21.646  0.00  0.00    +0.255 HD
ATOM     22  H   UNL     1       9.822   3.405  21.599  0.00  0.00    +0.255 HD
BRANCH  16  23
ATOM     23  C   UNL     1       8.513   4.176  23.526  0.00  0.00    +0.243 C 
BRANCH  23  24
ATOM     24  C   UNL     1       8.926   5.448  24.271  0.00  0.00    +0.041 C 
BRANCH  24  25
ATOM     25  C   UNL     1      10.032   6.213  23.541  0.00  0.00    +0.003 C 
BRANCH  25  27
ATOM     26  C   UNL     1      12.358   5.269  23.450  0.00  0.00    +0.004 C 
ATOM     27  C   UNL     1      11.374   6.097  24.262  0.00  0.00    -0.003 C 
ENDBRANCH  25  27
ENDBRANCH  24  25
ENDBRANCH  23  24
ENDBRANCH  16  23
ENDBRANCH   1  18
TORSDOF 8
ENDMDL
MODEL 6
REMARK VINA RESULT:      -6.6      3.211      8.435
REMARK  Name = 
REMARK  9 active torsions:
REMARK  status: ('A' for Active; 'I' for Inactive)
REMARK    1  A    between atoms: C_1  and  C_2
REMARK    2  A    between atoms: C_2  and  C_3
REMARK    3  A    between atoms: C_3  and  C_4
REMARK    4  A    between atoms: C_4  and  C_5
REMARK    5  A    between atoms: C_5  and  N_6
REMARK    6  A    between atoms: N_9  and  N_10
REMARK    7  A    between atoms: N_10  and  C_11
REMARK    8  A    between atoms: C_18  and  C_19
REMARK    9  A    between atoms: C_19  and  O_20
REMARK                            x       y       z     vdW  Elec       q    Type
REMARK                         _______ _______ _______ _____ _____    ______ ____
ROOT
ATOM      1  N   UNL     1       7.313  -2.571  26.474  0.00  0.00    -0.217 N 
ATOM      2  H   UNL     1       6.288  -2.548  26.527  0.00  0.00    +0.187 HD
ENDROOT
BRANCH   1   3
ATOM      3  C   UNL     1       7.935  -1.561  25.780  0.00  0.00    +0.114 C 
ATOM      4  C   UNL     1       8.214  -1.454  24.478  0.00  0.00    +0.019 C 
ATOM      5  C   UNL     1       8.866  -0.364  23.761  0.00  0.00    +0.011 A 
ATOM      6  C   UNL     1       9.431   0.842  24.141  0.00  0.00    +0.016 A 
ATOM      7  C   UNL     1       9.987   1.666  23.145  0.00  0.00    -0.021 A 
ATOM      8  C   UNL     1       9.955   1.249  21.795  0.00  0.00    +0.008 A 
ATOM      9  C   UNL     1       9.382   0.024  21.427  0.00  0.00    +0.029 A 
ATOM     10  C   UNL     1       8.844  -0.777  22.418  0.00  0.00    +0.072 A 
ATOM     11  N   UNL     1       8.238  -2.041  22.222  0.00  0.00    -0.254 NA
ATOM     12  C   UNL     1       7.878  -2.431  23.415  0.00  0.00    +0.121 C 
BRANCH   7  13
ATOM     13  C   UNL     1      10.637   2.971  23.522  0.00  0.00    +0.191 C 
BRANCH  13  14
ATOM     14  O   UNL     1       9.797   4.061  23.172  0.00  0.00    -0.390 OA
ATOM     15  H   UNL     1      10.351   4.860  23.194  0.00  0.00    +0.210 HD
ENDBRANCH  13  14
ENDBRANCH   7  13
ENDBRANCH   1   3
BRANCH   1  18
ATOM     16  N   UNL     1       6.048  -5.005  25.944  0.00  0.00    -0.112 NA
ATOM     17  C   UNL     1       7.164  -4.957  26.583  0.00  0.00    +0.399 C 
ATOM     18  N   UNL     1       7.863  -3.786  26.783  0.00  0.00    -0.186 N 
ATOM     19  H   UNL     1       8.413  -3.795  27.638  0.00  0.00    +0.287 HD
ATOM     20  N   UNL     1       7.837  -6.000  27.149  0.00  0.00    -0.288 N 
ATOM     21  H   UNL     1       8.843  -5.938  27.048  0.00  0.00    +0.255 HD
ATOM     22  H   UNL     1       7.505  -6.914  26.866  0.00  0.00    +0.255 HD
BRANCH  16  23
ATOM     23  C   UNL     1       5.408  -6.305  25.746  0.00  0.00    +0.243 C 
BRANCH  23  24
ATOM     24  C   UNL     1       4.835  -6.384  24.329  0.00  0.00    +0.041 C 
BRANCH  24  25
ATOM     25  C   UNL     1       5.494  -5.379  23.381  0.00  0.00    +0.003 C 
BRANCH  25  27
ATOM     26  C   UNL     1       6.232  -5.644  20.994  0.00  0.00    +0.004 C 
ATOM     27  C   UNL     1       6.486  -6.056  22.436  0.00  0.00    -0.003 C 
ENDBRANCH  25  27
ENDBRANCH  24  25
ENDBRANCH  23  24
ENDBRANCH  16  23
ENDBRANCH   1  18
TORSDOF 8
ENDMDL
MODEL 7
REMARK VINA RESULT:      -6.6      2.233      3.645
REMARK  Name = 
REMARK  9 active torsions:
REMARK  status: ('A' for Active; 'I' for Inactive)
REMARK    1  A    between atoms: C_1  and  C_2
REMARK    2  A    between atoms: C_2  and  C_3
REMARK    3  A    between atoms: C_3  and  C_4
REMARK    4  A    between atoms: C_4  and  C_5
REMARK    5  A    between atoms: C_5  and  N_6
REMARK    6  A    between atoms: N_9  and  N_10
REMARK    7  A    between atoms: N_10  and  C_11
REMARK    8  A    between atoms: C_18  and  C_19
REMARK    9  A    between atoms: C_19  and  O_20
REMARK                            x       y       z     vdW  Elec       q    Type
REMARK                         _______ _______ _______ _____ _____    ______ ____
ROOT
ATOM      1  N   UNL     1       9.731   0.855  21.472  0.00  0.00    -0.217 N 
ATOM      2  H   UNL     1      10.681   0.828  21.085  0.00  0.00    +0.187 HD
ENDROOT
BRANCH   1   3
ATOM      3  C   UNL     1       9.070  -0.342  21.613  0.00  0.00    +0.114 C 
ATOM      4  C   UNL     1       9.160  -1.269  22.571  0.00  0.00    +0.019 C 
ATOM      5  C   UNL     1       8.439  -2.530  22.705  0.00  0.00    +0.011 A 
ATOM      6  C   UNL     1       7.506  -3.198  21.928  0.00  0.00    +0.016 A 
ATOM      7  C   UNL     1       7.014  -4.434  22.385  0.00  0.00    -0.021 A 
ATOM      8  C   UNL     1       7.476  -4.958  23.614  0.00  0.00    +0.008 A 
ATOM      9  C   UNL     1       8.421  -4.271  24.386  0.00  0.00    +0.029 A 
ATOM     10  C   UNL     1       8.900  -3.060  23.921  0.00  0.00    +0.072 A 
ATOM     11  N   UNL     1       9.858  -2.245  24.570  0.00  0.00    -0.254 NA
ATOM     12  C   UNL     1      10.009  -1.212  23.784  0.00  0.00    +0.121 C 
BRANCH   7  13
ATOM     13  C   UNL     1       6.022  -5.204  21.554  0.00  0.00    +0.191 C 
BRANCH  13  14
ATOM     14  O   UNL     1       6.094  -6.589  21.857  0.00  0.00    -0.390 OA
ATOM     15  H   UNL     1       6.218  -7.054  21.012  0.00  0.00    +0.210 HD
ENDBRANCH  13  14
ENDBRANCH   7  13
ENDBRANCH   1   3
BRANCH   1  18
ATOM     16  N   UNL     1       8.828   2.178  23.761  0.00  0.00    -0.112 NA
ATOM     17  C   UNL     1       8.639   2.669  22.586  0.00  0.00    +0.399 C 
ATOM     18  N   UNL     1       9.148   2.093  21.443  0.00  0.00    -0.186 N 
ATOM     19  H   UNL     1       8.577   2.271  20.622  0.00  0.00    +0.287 HD
ATOM     20  N   UNL     1       7.942   3.797  22.265  0.00  0.00    -0.288 N 
ATOM     21  H   UNL     1       8.364   4.338  21.521  0.00  0.00    +0.255 HD
ATOM     22  H   UNL     1       7.719   4.389  23.056  0.00  0.00    +0.255 HD
BRANCH  16  23
ATOM     23  C   UNL     1       8.282   2.890  24.916  0.00  0.00    +0.243 C 
BRANCH  23  24
ATOM     24  C   UNL     1       7.098   2.109  25.488  0.00  0.00    +0.041 C 
BRANCH  24  25
ATOM     25  C   UNL     1       7.268   0.596  25.324  0.00  0.00    +0.003 C 
BRANCH  25  27
ATOM     26  C   UNL     1       5.741  -1.364  24.956  0.00  0.00    +0.004 C 
ATOM     27  C   UNL     1       6.180  -0.004  24.435  0.00  0.00    -0.003 C 
ENDBRANCH  25  27
ENDBRANCH  24  25
ENDBRANCH  23  24
ENDBRANCH  16  23
ENDBRANCH   1  18
TORSDOF 8
ENDMDL
MODEL 8
REMARK VINA RESULT:      -6.6      4.580      8.367
REMARK  Name = 
REMARK  9 active torsions:
REMARK  status: ('A' for Active; 'I' for Inactive)
REMARK    1  A    between atoms: C_1  and  C_2
REMARK    2  A    between atoms: C_2  and  C_3
REMARK    3  A    between atoms: C_3  and  C_4
REMARK    4  A    between atoms: C_4  and  C_5
REMARK    5  A    between atoms: C_5  and  N_6
REMARK    6  A    between atoms: N_9  and  N_10
REMARK    7  A    between atoms: N_10  and  C_11
REMARK    8  A    between atoms: C_18  and  C_19
REMARK    9  A    between atoms: C_19  and  O_20
REMARK                            x       y       z     vdW  Elec       q    Type
REMARK                         _______ _______ _______ _____ _____    ______ ____
ROOT
ATOM      1  N   UNL     1       7.068  -6.034  27.671  0.00  0.00    -0.217 N 
ATOM      2  H   UNL     1       7.812  -6.470  28.228  0.00  0.00    +0.187 HD
ENDROOT
BRANCH   1   3
ATOM      3  C   UNL     1       7.320  -4.791  27.141  0.00  0.00    +0.114 C 
ATOM      4  C   UNL     1       8.186  -4.417  26.196  0.00  0.00    +0.019 C 
ATOM      5  C   UNL     1       8.429  -3.090  25.640  0.00  0.00    +0.011 A 
ATOM      6  C   UNL     1       7.924  -1.826  25.899  0.00  0.00    +0.016 A 
ATOM      7  C   UNL     1       8.408  -0.743  25.142  0.00  0.00    -0.021 A 
ATOM      8  C   UNL     1       9.385  -0.967  24.147  0.00  0.00    +0.008 A 
ATOM      9  C   UNL     1       9.887  -2.252  23.899  0.00  0.00    +0.029 A 
ATOM     10  C   UNL     1       9.406  -3.305  24.654  0.00  0.00    +0.072 A 
ATOM     11  N   UNL     1       9.810  -4.657  24.540  0.00  0.00    -0.254 NA
ATOM     12  C   UNL     1       9.105  -5.296  25.435  0.00  0.00    +0.121 C 
BRANCH   7  13
ATOM     13  C   UNL     1       7.905   0.651  25.414  0.00  0.00    +0.191 C 
BRANCH  13  14
ATOM     14  O   UNL     1       8.973   1.584  25.343  0.00  0.00    -0.390 OA
ATOM     15  H   UNL     1       9.796   1.066  25.321  0.00  0.00    +0.210 HD
ENDBRANCH  13  14
ENDBRANCH   7  13
ENDBRANCH   1   3
BRANCH   1  18
ATOM     16  N   UNL     1       5.293  -6.541  25.574  0.00  0.00    -0.112 NA
ATOM     17  C   UNL     1       4.955  -6.743  26.800  0.00  0.00    +0.399 C 
ATOM     18  N   UNL     1       5.831  -6.592  27.852  0.00  0.00    -0.186 N 
ATOM     19  H   UNL     1       5.369  -6.321  28.716  0.00  0.00    +0.287 HD
ATOM     20  N   UNL     1       3.733  -7.131  27.266  0.00  0.00    -0.288 N 
ATOM     21  H   UNL     1       3.782  -7.786  28.037  0.00  0.00    +0.255 HD
ATOM     22  H   UNL     1       3.100  -7.467  26.550  0.00  0.00    +0.255 HD
BRANCH  16  23
ATOM     23  C   UNL     1       4.301  -6.773  24.525  0.00  0.00    +0.243 C 
BRANCH  23  24
ATOM     24  C   UNL     1       4.632  -5.909  23.305  0.00  0.00    +0.041 C 
BRANCH  24  25
ATOM     25  C   UNL     1       5.611  -4.782  23.643  0.00  0.00    +0.003 C 
BRANCH  25  27
ATOM     26  C   UNL     1       7.266  -5.917  22.132  0.00  0.00    +0.004 C 
ATOM     27  C   UNL     1       6.653  -4.587  22.542  0.00  0.00    -0.003 C 
ENDBRANCH  25  27
ENDBRANCH  24  25
ENDBRANCH  23  24
ENDBRANCH  16  23
ENDBRANCH   1  18
TORSDOF 8
ENDMDL
MODEL 9
REMARK VINA RESULT:      -6.4      2.088      2.830
REMARK  Name = 
REMARK  9 active torsions:
REMARK  status: ('A' for Active; 'I' for Inactive)
REMARK    1  A    between atoms: C_1  and  C_2
REMARK    2  A    between atoms: C_2  and  C_3
REMARK    3  A    between atoms: C_3  and  C_4
REMARK    4  A    between atoms: C_4  and  C_5
REMARK    5  A    between atoms: C_5  and  N_6
REMARK    6  A    between atoms: N_9  and  N_10
REMARK    7  A    between atoms: N_10  and  C_11
REMARK    8  A    between atoms: C_18  and  C_19
REMARK    9  A    between atoms: C_19  and  O_20
REMARK                            x       y       z     vdW  Elec       q    Type
REMARK                         _______ _______ _______ _____ _____    ______ ____
ROOT
ATOM      1  N   UNL     1      10.165  -1.686  22.539  0.00  0.00    -0.217 N 
ATOM      2  H   UNL     1      11.088  -2.067  22.301  0.00  0.00    +0.187 HD
ENDROOT
BRANCH   1   3
ATOM      3  C   UNL     1       9.393  -2.401  23.423  0.00  0.00    +0.114 C 
ATOM      4  C   UNL     1       8.236  -3.041  23.234  0.00  0.00    +0.019 C 
ATOM      5  C   UNL     1       7.438  -3.805  24.188  0.00  0.00    +0.011 A 
ATOM      6  C   UNL     1       7.553  -4.085  25.540  0.00  0.00    +0.016 A 
ATOM      7  C   UNL     1       6.563  -4.879  26.147  0.00  0.00    -0.021 A 
ATOM      8  C   UNL     1       5.488  -5.368  25.372  0.00  0.00    +0.008 A 
ATOM      9  C   UNL     1       5.385  -5.074  24.006  0.00  0.00    +0.029 A 
ATOM     10  C   UNL     1       6.362  -4.288  23.425  0.00  0.00    +0.072 A 
ATOM     11  N   UNL     1       6.405  -3.890  22.066  0.00  0.00    -0.254 NA
ATOM     12  C   UNL     1       7.488  -3.167  21.961  0.00  0.00    +0.121 C 
BRANCH   7  13
ATOM     13  C   UNL     1       6.638  -5.181  27.620  0.00  0.00    +0.191 C 
BRANCH  13  14
ATOM     14  O   UNL     1       7.614  -6.181  27.871  0.00  0.00    -0.390 OA
ATOM     15  H   UNL     1       7.964  -6.454  27.006  0.00  0.00    +0.210 HD
ENDBRANCH  13  14
ENDBRANCH   7  13
ENDBRANCH   1   3
BRANCH   1  18
ATOM     16  N   UNL     1      10.340   1.057  23.039  0.00  0.00    -0.112 NA
ATOM     17  C   UNL     1       9.738   0.606  21.995  0.00  0.00    +0.399 C 
ATOM     18  N   UNL     1       9.710  -0.733  21.667  0.00  0.00    -0.186 N 
ATOM     19  H   UNL     1       8.875  -0.997  21.152  0.00  0.00    +0.287 HD
ATOM     20  N   UNL     1       9.056   1.325  21.059  0.00  0.00    -0.288 N 
ATOM     21  H   UNL     1       9.188   0.990  20.113  0.00  0.00    +0.255 HD
ATOM     22  H   UNL     1       9.208   2.326  21.109  0.00  0.00    +0.255 HD
BRANCH  16  23
ATOM     23  C   UNL     1      10.350   2.500  23.274  0.00  0.00    +0.243 C 
BRANCH  23  24
ATOM     24  C   UNL     1       9.297   2.857  24.326  0.00  0.00    +0.041 C 
BRANCH  24  25
ATOM     25  C   UNL     1       8.535   4.136  23.972  0.00  0.00    +0.003 C 
BRANCH  25  27
ATOM     26  C   UNL     1       9.910   6.216  23.672  0.00  0.00    +0.004 C 
ATOM     27  C   UNL     1       9.132   5.362  24.661  0.00  0.00    -0.003 C 
ENDBRANCH  25  27
ENDBRANCH  24  25
ENDBRANCH  23  24
ENDBRANCH  16  23
ENDBRANCH   1  18
TORSDOF 8
ENDMDL
