MODEL 1
REMARK VINA RESULT:      -4.7      0.000      0.000
REMARK  Name = 
REMARK  6 active torsions:
REMARK  status: ('A' for Active; 'I' for Inactive)
REMARK    1  A    between atoms: C_1  and  O_2
REMARK    2  A    between atoms: O_2  and  C_3
REMARK    3  A    between atoms: C_5  and  O_7
REMARK    4  A    between atoms: C_9  and  C_11
REMARK    5  A    between atoms: C_12  and  O_14
REMARK    6  A    between atoms: C_15  and  O_17
REMARK                            x       y       z     vdW  Elec       q    Type
REMARK                         _______ _______ _______ _____ _____    ______ ____
ROOT
ATOM      1  C   UNL     1       9.867   1.232  23.849  0.00  0.00    +0.204 C 
ATOM      2  C   UNL     1      10.051   0.878  22.368  0.00  0.00    +0.179 C 
ATOM      3  C   UNL     1       9.119  -0.270  21.969  0.00  0.00    +0.174 C 
ATOM      4  C   UNL     1       9.321  -1.471  22.915  0.00  0.00    +0.149 C 
ATOM      5  C   UNL     1       8.246  -2.531  22.684  0.00  0.00    +0.041 C 
ATOM      6  O   UNL     1       9.251  -1.098  24.293  0.00  0.00    -0.343 OA
ATOM      7  C   UNL     1      10.160  -0.057  24.646  0.00  0.00    +0.279 C 
ENDROOT
BRANCH   1   9
ATOM      8  C   UNL     1       8.409   2.979  24.647  0.00  0.00    +0.194 C 
ATOM      9  O   UNL     1       8.522   1.632  24.209  0.00  0.00    -0.372 OA
ENDBRANCH   1   9
BRANCH   2  10
ATOM     10  O   UNL     1       9.852   2.001  21.507  0.00  0.00    -0.386 OA
ATOM     11  H   UNL     1      10.556   2.636  21.746  0.00  0.00    +0.210 HD
ENDBRANCH   2  10
BRANCH   3  12
ATOM     12  O   UNL     1       9.420  -0.608  20.605  0.00  0.00    -0.387 OA
ATOM     13  H   UNL     1       9.564   0.224  20.119  0.00  0.00    +0.210 HD
ENDBRANCH   3  12
BRANCH   7  14
ATOM     14  O   UNL     1      10.020   0.194  26.037  0.00  0.00    -0.365 OA
ATOM     15  H   UNL     1       9.593  -0.617  26.373  0.00  0.00    +0.213 HD
ENDBRANCH   7  14
TORSDOF 4
ENDMDL
MODEL 2
REMARK VINA RESULT:      -4.4      1.363      3.993
REMARK  Name = 
REMARK  6 active torsions:
REMARK  status: ('A' for Active; 'I' for Inactive)
REMARK    1  A    between atoms: C_1  and  O_2
REMARK    2  A    between atoms: O_2  and  C_3
REMARK    3  A    between atoms: C_5  and  O_7
REMARK    4  A    between atoms: C_9  and  C_11
REMARK    5  A    between atoms: C_12  and  O_14
REMARK    6  A    between atoms: C_15  and  O_17
REMARK                            x       y       z     vdW  Elec       q    Type
REMARK                         _______ _______ _______ _____ _____    ______ ____
ROOT
ATOM      1  C   UNL     1       9.866  -1.034  23.789  0.00  0.00    +0.204 C 
ATOM      2  C   UNL     1       9.898   0.205  24.690  0.00  0.00    +0.179 C 
ATOM      3  C   UNL     1       8.932   1.275  24.172  0.00  0.00    +0.174 C 
ATOM      4  C   UNL     1       9.234   1.588  22.692  0.00  0.00    +0.149 C 
ATOM      5  C   UNL     1       8.143   2.472  22.092  0.00  0.00    +0.041 C 
ATOM      6  O   UNL     1       9.304   0.408  21.888  0.00  0.00    -0.343 OA
ATOM      7  C   UNL     1      10.243  -0.552  22.371  0.00  0.00    +0.279 C 
ENDROOT
BRANCH   1   9
ATOM      8  C   UNL     1       8.487  -2.961  24.232  0.00  0.00    +0.194 C 
ATOM      9  O   UNL     1       8.566  -1.659  23.669  0.00  0.00    -0.372 OA
ENDBRANCH   1   9
BRANCH   2  10
ATOM     10  O   UNL     1       9.609  -0.103  26.057  0.00  0.00    -0.386 OA
ATOM     11  H   UNL     1       8.874  -0.747  26.023  0.00  0.00    +0.210 HD
ENDBRANCH   2  10
BRANCH   3  12
ATOM     12  O   UNL     1       9.092   2.434  25.005  0.00  0.00    -0.387 OA
ATOM     13  H   UNL     1       8.652   3.181  24.561  0.00  0.00    +0.210 HD
ENDBRANCH   3  12
BRANCH   7  14
ATOM     14  O   UNL     1      10.246  -1.652  21.472  0.00  0.00    -0.365 OA
ATOM     15  H   UNL     1      10.118  -1.234  20.599  0.00  0.00    +0.213 HD
ENDBRANCH   7  14
TORSDOF 4
ENDMDL
MODEL 3
REMARK VINA RESULT:      -4.3      3.008      5.329
REMARK  Name = 
REMARK  6 active torsions:
REMARK  status: ('A' for Active; 'I' for Inactive)
REMARK    1  A    between atoms: C_1  and  O_2
REMARK    2  A    between atoms: O_2  and  C_3
REMARK    3  A    between atoms: C_5  and  O_7
REMARK    4  A    between atoms: C_9  and  C_11
REMARK    5  A    between atoms: C_12  and  O_14
REMARK    6  A    between atoms: C_15  and  O_17
REMARK                            x       y       z     vdW  Elec       q    Type
REMARK                         _______ _______ _______ _____ _____    ______ ____
ROOT
ATOM      1  C   UNL     1       7.715  -4.594  23.977  0.00  0.00    +0.204 C 
ATOM      2  C   UNL     1       7.046  -3.217  23.901  0.00  0.00    +0.179 C 
ATOM      3  C   UNL     1       7.949  -2.218  23.171  0.00  0.00    +0.174 C 
ATOM      4  C   UNL     1       9.344  -2.186  23.829  0.00  0.00    +0.149 C 
ATOM      5  C   UNL     1      10.325  -1.379  22.981  0.00  0.00    +0.041 C 
ATOM      6  O   UNL     1       9.904  -3.491  23.986  0.00  0.00    -0.343 OA
ATOM      7  C   UNL     1       9.059  -4.388  24.707  0.00  0.00    +0.279 C 
ENDROOT
BRANCH   1   9
ATOM      8  C   UNL     1       7.099  -6.134  22.227  0.00  0.00    +0.194 C 
ATOM      9  O   UNL     1       8.040  -5.177  22.691  0.00  0.00    -0.372 OA
ENDBRANCH   1   9
BRANCH   2  10
ATOM     10  O   UNL     1       5.758  -3.265  23.282  0.00  0.00    -0.386 OA
ATOM     11  H   UNL     1       5.154  -2.825  23.913  0.00  0.00    +0.210 HD
ENDBRANCH   2  10
BRANCH   3  12
ATOM     12  O   UNL     1       7.302  -0.936  23.230  0.00  0.00    -0.387 OA
ATOM     13  H   UNL     1       7.750  -0.411  23.917  0.00  0.00    +0.210 HD
ENDBRANCH   3  12
BRANCH   7  14
ATOM     14  O   UNL     1       9.739  -5.629  24.826  0.00  0.00    -0.365 OA
ATOM     15  H   UNL     1       9.274  -6.074  25.561  0.00  0.00    +0.213 HD
ENDBRANCH   7  14
TORSDOF 4
ENDMDL
MODEL 4
REMARK VINA RESULT:      -4.3      1.675      4.466
REMARK  Name = 
REMARK  6 active torsions:
REMARK  status: ('A' for Active; 'I' for Inactive)
REMARK    1  A    between atoms: C_1  and  O_2
REMARK    2  A    between atoms: O_2  and  C_3
REMARK    3  A    between atoms: C_5  and  O_7
REMARK    4  A    between atoms: C_9  and  C_11
REMARK    5  A    between atoms: C_12  and  O_14
REMARK    6  A    between atoms: C_15  and  O_17
REMARK                            x       y       z     vdW  Elec       q    Type
REMARK                         _______ _______ _______ _____ _____    ______ ____
ROOT
ATOM      1  C   UNL     1       9.149  -2.246  23.505  0.00  0.00    +0.204 C 
ATOM      2  C   UNL     1       9.217  -1.941  25.006  0.00  0.00    +0.179 C 
ATOM      3  C   UNL     1       9.012  -0.445  25.263  0.00  0.00    +0.174 C 
ATOM      4  C   UNL     1      10.011   0.378  24.425  0.00  0.00    +0.149 C 
ATOM      5  C   UNL     1       9.672   1.866  24.485  0.00  0.00    +0.041 C 
ATOM      6  O   UNL     1      10.006   0.004  23.046  0.00  0.00    -0.343 OA
ATOM      7  C   UNL     1      10.242  -1.387  22.835  0.00  0.00    +0.279 C 
ENDROOT
BRANCH   1   9
ATOM      8  C   UNL     1       7.138  -2.973  22.391  0.00  0.00    +0.194 C 
ATOM      9  O   UNL     1       7.900  -1.875  22.872  0.00  0.00    -0.372 OA
ENDBRANCH   1   9
BRANCH   2  10
ATOM     10  O   UNL     1       8.279  -2.708  25.765  0.00  0.00    -0.386 OA
ATOM     11  H   UNL     1       7.458  -2.706  25.234  0.00  0.00    +0.210 HD
ENDBRANCH   2  10
BRANCH   3  12
ATOM     12  O   UNL     1       9.189  -0.226  26.672  0.00  0.00    -0.387 OA
ATOM     13  H   UNL     1       8.314  -0.031  27.052  0.00  0.00    +0.210 HD
ENDBRANCH   3  12
BRANCH   7  14
ATOM     14  O   UNL     1      10.250  -1.623  21.434  0.00  0.00    -0.365 OA
ATOM     15  H   UNL     1       9.332  -1.895  21.243  0.00  0.00    +0.213 HD
ENDBRANCH   7  14
TORSDOF 4
ENDMDL
MODEL 5
REMARK VINA RESULT:      -4.3      5.404      6.152
REMARK  Name = 
REMARK  6 active torsions:
REMARK  status: ('A' for Active; 'I' for Inactive)
REMARK    1  A    between atoms: C_1  and  O_2
REMARK    2  A    between atoms: O_2  and  C_3
REMARK    3  A    between atoms: C_5  and  O_7
REMARK    4  A    between atoms: C_9  and  C_11
REMARK    5  A    between atoms: C_12  and  O_14
REMARK    6  A    between atoms: C_15  and  O_17
REMARK                            x       y       z     vdW  Elec       q    Type
REMARK                         _______ _______ _______ _____ _____    ______ ____
ROOT
ATOM      1  C   UNL     1       7.894  -4.485  25.945  0.00  0.00    +0.204 C 
ATOM      2  C   UNL     1       6.908  -3.639  25.131  0.00  0.00    +0.179 C 
ATOM      3  C   UNL     1       6.427  -4.409  23.898  0.00  0.00    +0.174 C 
ATOM      4  C   UNL     1       7.635  -4.901  23.075  0.00  0.00    +0.149 C 
ATOM      5  C   UNL     1       7.188  -5.864  21.977  0.00  0.00    +0.041 C 
ATOM      6  O   UNL     1       8.594  -5.597  23.876  0.00  0.00    -0.343 OA
ATOM      7  C   UNL     1       9.056  -4.839  24.993  0.00  0.00    +0.279 C 
ENDROOT
BRANCH   1   9
ATOM      8  C   UNL     1       6.913  -5.728  27.763  0.00  0.00    +0.194 C 
ATOM      9  O   UNL     1       7.360  -5.746  26.415  0.00  0.00    -0.372 OA
ENDBRANCH   1   9
BRANCH   2  10
ATOM     10  O   UNL     1       5.792  -3.198  25.908  0.00  0.00    -0.386 OA
ATOM     11  H   UNL     1       5.247  -3.998  26.049  0.00  0.00    +0.210 HD
ENDBRANCH   2  10
BRANCH   3  12
ATOM     12  O   UNL     1       5.592  -3.520  23.139  0.00  0.00    -0.387 OA
ATOM     13  H   UNL     1       6.172  -2.990  22.562  0.00  0.00    +0.210 HD
ENDBRANCH   3  12
BRANCH   7  14
ATOM     14  O   UNL     1      10.024  -5.619  25.681  0.00  0.00    -0.365 OA
ATOM     15  H   UNL     1       9.592  -6.490  25.772  0.00  0.00    +0.213 HD
ENDBRANCH   7  14
TORSDOF 4
ENDMDL
MODEL 6
REMARK VINA RESULT:      -4.3      1.360      3.502
REMARK  Name = 
REMARK  6 active torsions:
REMARK  status: ('A' for Active; 'I' for Inactive)
REMARK    1  A    between atoms: C_1  and  O_2
REMARK    2  A    between atoms: O_2  and  C_3
REMARK    3  A    between atoms: C_5  and  O_7
REMARK    4  A    between atoms: C_9  and  C_11
REMARK    5  A    between atoms: C_12  and  O_14
REMARK    6  A    between atoms: C_15  and  O_17
REMARK                            x       y       z     vdW  Elec       q    Type
REMARK                         _______ _______ _______ _____ _____    ______ ____
ROOT
ATOM      1  C   UNL     1       8.400  -0.925  23.117  0.00  0.00    +0.204 C 
ATOM      2  C   UNL     1       8.941  -0.034  21.992  0.00  0.00    +0.179 C 
ATOM      3  C   UNL     1       9.583   1.231  22.567  0.00  0.00    +0.174 C 
ATOM      4  C   UNL     1       8.586   1.956  23.495  0.00  0.00    +0.149 C 
ATOM      5  C   UNL     1       9.277   3.083  24.259  0.00  0.00    +0.041 C 
ATOM      6  O   UNL     1       8.014   1.081  24.471  0.00  0.00    -0.343 OA
ATOM      7  C   UNL     1       7.386  -0.068  23.903  0.00  0.00    +0.279 C 
ENDROOT
BRANCH   1   9
ATOM      8  C   UNL     1       9.715  -2.736  24.013  0.00  0.00    +0.194 C 
ATOM      9  O   UNL     1       9.396  -1.354  24.077  0.00  0.00    -0.372 OA
ENDBRANCH   1   9
BRANCH   2  10
ATOM     10  O   UNL     1       9.868  -0.721  21.147  0.00  0.00    -0.386 OA
ATOM     11  H   UNL     1      10.574  -0.070  20.960  0.00  0.00    +0.210 HD
ENDBRANCH   2  10
BRANCH   3  12
ATOM     12  O   UNL     1       9.972   2.055  21.456  0.00  0.00    -0.387 OA
ATOM     13  H   UNL     1       9.756   1.570  20.639  0.00  0.00    +0.210 HD
ENDBRANCH   3  12
BRANCH   7  14
ATOM     14  O   UNL     1       6.828  -0.831  24.964  0.00  0.00    -0.365 OA
ATOM     15  H   UNL     1       6.209  -0.209  25.391  0.00  0.00    +0.213 HD
ENDBRANCH   7  14
TORSDOF 4
ENDMDL
MODEL 7
REMARK VINA RESULT:      -4.3      2.084      3.695
REMARK  Name = 
REMARK  6 active torsions:
REMARK  status: ('A' for Active; 'I' for Inactive)
REMARK    1  A    between atoms: C_1  and  O_2
REMARK    2  A    between atoms: O_2  and  C_3
REMARK    3  A    between atoms: C_5  and  O_7
REMARK    4  A    between atoms: C_9  and  C_11
REMARK    5  A    between atoms: C_12  and  O_14
REMARK    6  A    between atoms: C_15  and  O_17
REMARK                            x       y       z     vdW  Elec       q    Type
REMARK                         _______ _______ _______ _____ _____    ______ ____
ROOT
ATOM      1  C   UNL     1       7.716  -1.875  24.161  0.00  0.00    +0.204 C 
ATOM      2  C   UNL     1       8.887  -2.367  23.303  0.00  0.00    +0.179 C 
ATOM      3  C   UNL     1       9.712  -1.184  22.786  0.00  0.00    +0.174 C 
ATOM      4  C   UNL     1       8.798  -0.180  22.056  0.00  0.00    +0.149 C 
ATOM      5  C   UNL     1       9.552   1.110  21.740  0.00  0.00    +0.041 C 
ATOM      6  O   UNL     1       7.655   0.185  22.834  0.00  0.00    -0.343 OA
ATOM      7  C   UNL     1       6.882  -0.934  23.265  0.00  0.00    +0.279 C 
ENDROOT
BRANCH   1   9
ATOM      8  C   UNL     1       7.879  -1.735  26.563  0.00  0.00    +0.194 C 
ATOM      9  O   UNL     1       8.104  -1.092  25.316  0.00  0.00    -0.372 OA
ENDBRANCH   1   9
BRANCH   2  10
ATOM     10  O   UNL     1       9.727  -3.291  23.999  0.00  0.00    -0.386 OA
ATOM     11  H   UNL     1       9.306  -3.411  24.873  0.00  0.00    +0.210 HD
ENDBRANCH   2  10
BRANCH   3  12
ATOM     12  O   UNL     1      10.722  -1.717  21.915  0.00  0.00    -0.387 OA
ATOM     13  H   UNL     1      10.408  -1.612  20.999  0.00  0.00    +0.210 HD
ENDBRANCH   3  12
BRANCH   7  14
ATOM     14  O   UNL     1       5.765  -0.442  23.990  0.00  0.00    -0.365 OA
ATOM     15  H   UNL     1       5.641   0.459  23.634  0.00  0.00    +0.213 HD
ENDBRANCH   7  14
TORSDOF 4
ENDMDL
MODEL 8
REMARK VINA RESULT:      -4.3      2.396      3.966
REMARK  Name = 
REMARK  6 active torsions:
REMARK  status: ('A' for Active; 'I' for Inactive)
REMARK    1  A    between atoms: C_1  and  O_2
REMARK    2  A    between atoms: O_2  and  C_3
REMARK    3  A    between atoms: C_5  and  O_7
REMARK    4  A    between atoms: C_9  and  C_11
REMARK    5  A    between atoms: C_12  and  O_14
REMARK    6  A    between atoms: C_15  and  O_17
REMARK                            x       y       z     vdW  Elec       q    Type
REMARK                         _______ _______ _______ _____ _____    ______ ____
ROOT
ATOM      1  C   UNL     1       9.142  -0.933  23.954  0.00  0.00    +0.204 C 
ATOM      2  C   UNL     1       8.044  -1.446  24.893  0.00  0.00    +0.179 C 
ATOM      3  C   UNL     1       8.535  -2.662  25.684  0.00  0.00    +0.174 C 
ATOM      4  C   UNL     1       9.068  -3.741  24.719  0.00  0.00    +0.149 C 
ATOM      5  C   UNL     1       9.774  -4.856  25.489  0.00  0.00    +0.041 C 
ATOM      6  O   UNL     1      10.013  -3.218  23.783  0.00  0.00    -0.343 OA
ATOM      7  C   UNL     1       9.514  -2.113  23.030  0.00  0.00    +0.279 C 
ENDROOT
BRANCH   1   9
ATOM      8  C   UNL     1      10.646   0.851  24.559  0.00  0.00    +0.194 C 
ATOM      9  O   UNL     1      10.367  -0.540  24.618  0.00  0.00    -0.372 OA
ENDBRANCH   1   9
BRANCH   2  10
ATOM     10  O   UNL     1       7.568  -0.434  25.784  0.00  0.00    -0.386 OA
ATOM     11  H   UNL     1       8.133   0.345  25.611  0.00  0.00    +0.210 HD
ENDBRANCH   2  10
BRANCH   3  12
ATOM     12  O   UNL     1       7.426  -3.142  26.460  0.00  0.00    -0.387 OA
ATOM     13  H   UNL     1       7.788  -3.614  27.232  0.00  0.00    +0.210 HD
ENDBRANCH   3  12
BRANCH   7  14
ATOM     14  O   UNL     1      10.525  -1.712  22.117  0.00  0.00    -0.365 OA
ATOM     15  H   UNL     1      10.203  -0.852  21.784  0.00  0.00    +0.213 HD
ENDBRANCH   7  14
TORSDOF 4
ENDMDL
MODEL 9
REMARK VINA RESULT:      -4.3      4.306      6.389
REMARK  Name = 
REMARK  6 active torsions:
REMARK  status: ('A' for Active; 'I' for Inactive)
REMARK    1  A    between atoms: C_1  and  O_2
REMARK    2  A    between atoms: O_2  and  C_3
REMARK    3  A    between atoms: C_5  and  O_7
REMARK    4  A    between atoms: C_9  and  C_11
REMARK    5  A    between atoms: C_12  and  O_14
REMARK    6  A    between atoms: C_15  and  O_17
REMARK                            x       y       z     vdW  Elec       q    Type
REMARK                         _______ _______ _______ _____ _____    ______ ____
ROOT
ATOM      1  C   UNL     1       6.445  -4.692  25.952  0.00  0.00    +0.204 C 
ATOM      2  C   UNL     1       7.771  -5.431  26.162  0.00  0.00    +0.179 C 
ATOM      3  C   UNL     1       8.955  -4.529  25.801  0.00  0.00    +0.174 C 
ATOM      4  C   UNL     1       8.783  -3.975  24.372  0.00  0.00    +0.149 C 
ATOM      5  C   UNL     1       9.822  -2.895  24.079  0.00  0.00    +0.041 C 
ATOM      6  O   UNL     1       7.498  -3.384  24.166  0.00  0.00    -0.343 OA
ATOM      7  C   UNL     1       6.414  -4.262  24.470  0.00  0.00    +0.279 C 
ENDROOT
BRANCH   1   9
ATOM      8  C   UNL     1       5.257  -3.513  27.687  0.00  0.00    +0.194 C 
ATOM      9  O   UNL     1       6.303  -3.477  26.727  0.00  0.00    -0.372 OA
ENDBRANCH   1   9
BRANCH   2  10
ATOM     10  O   UNL     1       7.916  -5.930  27.494  0.00  0.00    -0.386 OA
ATOM     11  H   UNL     1       7.648  -5.191  28.075  0.00  0.00    +0.210 HD
ENDBRANCH   2  10
BRANCH   3  12
ATOM     12  O   UNL     1      10.148  -5.319  25.927  0.00  0.00    -0.387 OA
ATOM     13  H   UNL     1      10.293  -5.486  26.875  0.00  0.00    +0.210 HD
ENDBRANCH   3  12
BRANCH   7  14
ATOM     14  O   UNL     1       5.203  -3.575  24.191  0.00  0.00    -0.365 OA
ATOM     15  H   UNL     1       5.502  -2.745  23.773  0.00  0.00    +0.213 HD
ENDBRANCH   7  14
TORSDOF 4
ENDMDL
