MODEL 1
REMARK VINA RESULT:      -3.4      0.000      0.000
REMARK  Name = 
REMARK  5 active torsions:
REMARK  status: ('A' for Active; 'I' for Inactive)
REMARK    1  A    between atoms: O_1  and  C_2
REMARK    2  A    between atoms: C_2  and  C_3
REMARK    3  A    between atoms: C_3  and  O_4
REMARK    4  A    between atoms: C_3  and  C_5
REMARK    5  A    between atoms: C_5  and  O_6
REMARK                            x       y       z     vdW  Elec       q    Type
REMARK                         _______ _______ _______ _____ _____    ______ ____
ROOT
ATOM      1  C   UNL     1      12.178   6.116  23.841  0.00  0.00    +0.165 C 
ENDROOT
BRANCH   1   2
ATOM      2  O   UNL     1      12.815   6.479  25.072  0.00  0.00    -0.387 OA
ATOM      3  H   UNL     1      12.685   5.742  25.699  0.00  0.00    +0.210 HD
ENDBRANCH   1   2
BRANCH   1   4
ATOM      4  C   UNL     1      10.692   5.874  24.092  0.00  0.00    +0.189 C 
BRANCH   4   5
ATOM      5  O   UNL     1      10.186   4.846  23.254  0.00  0.00    -0.392 OA
ATOM      6  H   UNL     1      10.945   4.459  22.791  0.00  0.00    +0.210 HD
ENDBRANCH   4   5
ENDBRANCH   1   4
BRANCH   1   7
ATOM      7  C   UNL     1      12.868   4.897  23.211  0.00  0.00    +0.189 C 
BRANCH   7   8
ATOM      8  O   UNL     1      14.287   5.076  23.169  0.00  0.00    -0.392 OA
ATOM      9  H   UNL     1      14.577   5.289  24.073  0.00  0.00    +0.210 HD
ENDBRANCH   7   8
ENDBRANCH   1   7
TORSDOF 5
ENDMDL
MODEL 2
REMARK VINA RESULT:      -3.2     10.495     11.282
REMARK  Name = 
REMARK  5 active torsions:
REMARK  status: ('A' for Active; 'I' for Inactive)
REMARK    1  A    between atoms: O_1  and  C_2
REMARK    2  A    between atoms: C_2  and  C_3
REMARK    3  A    between atoms: C_3  and  O_4
REMARK    4  A    between atoms: C_3  and  C_5
REMARK    5  A    between atoms: C_5  and  O_6
REMARK                            x       y       z     vdW  Elec       q    Type
REMARK                         _______ _______ _______ _____ _____    ______ ____
ROOT
ATOM      1  C   UNL     1       8.931  -5.149  25.300  0.00  0.00    +0.165 C 
ENDROOT
BRANCH   1   2
ATOM      2  O   UNL     1      10.288  -5.605  25.345  0.00  0.00    -0.387 OA
ATOM      3  H   UNL     1      10.277  -6.533  25.652  0.00  0.00    +0.210 HD
ENDBRANCH   1   2
BRANCH   1   4
ATOM      4  C   UNL     1       8.813  -4.011  24.290  0.00  0.00    +0.189 C 
BRANCH   4   5
ATOM      5  O   UNL     1      10.059  -3.358  24.097  0.00  0.00    -0.392 OA
ATOM      6  H   UNL     1      10.752  -4.013  24.273  0.00  0.00    +0.210 HD
ENDBRANCH   4   5
ENDBRANCH   1   4
BRANCH   1   7
ATOM      7  C   UNL     1       8.450  -4.737  26.700  0.00  0.00    +0.189 C 
BRANCH   7   8
ATOM      8  O   UNL     1       7.959  -5.867  27.426  0.00  0.00    -0.392 OA
ATOM      9  H   UNL     1       7.592  -5.533  28.263  0.00  0.00    +0.210 HD
ENDBRANCH   7   8
ENDBRANCH   1   7
TORSDOF 5
ENDMDL
MODEL 3
REMARK VINA RESULT:      -3.1      5.388      6.299
REMARK  Name = 
REMARK  5 active torsions:
REMARK  status: ('A' for Active; 'I' for Inactive)
REMARK    1  A    between atoms: O_1  and  C_2
REMARK    2  A    between atoms: C_2  and  C_3
REMARK    3  A    between atoms: C_3  and  O_4
REMARK    4  A    between atoms: C_3  and  C_5
REMARK    5  A    between atoms: C_5  and  O_6
REMARK                            x       y       z     vdW  Elec       q    Type
REMARK                         _______ _______ _______ _____ _____    ______ ____
ROOT
ATOM      1  C   UNL     1      10.027   0.885  22.034  0.00  0.00    +0.165 C 
ENDROOT
BRANCH   1   2
ATOM      2  O   UNL     1       9.493   2.058  21.409  0.00  0.00    -0.387 OA
ATOM      3  H   UNL     1       8.888   2.482  22.047  0.00  0.00    +0.210 HD
ENDBRANCH   1   2
BRANCH   1   4
ATOM      4  C   UNL     1       9.359  -0.353  21.442  0.00  0.00    +0.189 C 
BRANCH   4   5
ATOM      5  O   UNL     1      10.206  -1.490  21.528  0.00  0.00    -0.392 OA
ATOM      6  H   UNL     1      11.112  -1.160  21.625  0.00  0.00    +0.210 HD
ENDBRANCH   4   5
ENDBRANCH   1   4
BRANCH   1   7
ATOM      7  C   UNL     1       9.864   0.961  23.560  0.00  0.00    +0.189 C 
BRANCH   7   8
ATOM      8  O   UNL     1      10.446  -0.181  24.195  0.00  0.00    -0.392 OA
ATOM      9  H   UNL     1       9.960  -0.326  25.025  0.00  0.00    +0.210 HD
ENDBRANCH   7   8
ENDBRANCH   1   7
TORSDOF 5
ENDMDL
MODEL 4
REMARK VINA RESULT:      -3.1     12.465     12.859
REMARK  Name = 
REMARK  5 active torsions:
REMARK  status: ('A' for Active; 'I' for Inactive)
REMARK    1  A    between atoms: O_1  and  C_2
REMARK    2  A    between atoms: C_2  and  C_3
REMARK    3  A    between atoms: C_3  and  O_4
REMARK    4  A    between atoms: C_3  and  C_5
REMARK    5  A    between atoms: C_5  and  O_6
REMARK                            x       y       z     vdW  Elec       q    Type
REMARK                         _______ _______ _______ _____ _____    ______ ____
ROOT
ATOM      1  C   UNL     1       2.248   5.220  14.886  0.00  0.00    +0.165 C 
ENDROOT
BRANCH   1   2
ATOM      2  O   UNL     1       3.207   4.159  14.977  0.00  0.00    -0.387 OA
ATOM      3  H   UNL     1       4.020   4.531  15.371  0.00  0.00    +0.210 HD
ENDBRANCH   1   2
BRANCH   1   4
ATOM      4  C   UNL     1       2.963   6.520  14.530  0.00  0.00    +0.189 C 
BRANCH   4   5
ATOM      5  O   UNL     1       4.140   6.693  15.305  0.00  0.00    -0.392 OA
ATOM      6  H   UNL     1       4.140   7.611  15.618  0.00  0.00    +0.210 HD
ENDBRANCH   4   5
ENDBRANCH   1   4
BRANCH   1   7
ATOM      7  C   UNL     1       1.442   5.337  16.188  0.00  0.00    +0.189 C 
BRANCH   7   8
ATOM      8  O   UNL     1       2.306   5.535  17.310  0.00  0.00    -0.392 OA
ATOM      9  H   UNL     1       2.339   4.695  17.799  0.00  0.00    +0.210 HD
ENDBRANCH   7   8
ENDBRANCH   1   7
TORSDOF 5
ENDMDL
MODEL 5
REMARK VINA RESULT:      -3.1     10.536     11.311
REMARK  Name = 
REMARK  5 active torsions:
REMARK  status: ('A' for Active; 'I' for Inactive)
REMARK    1  A    between atoms: O_1  and  C_2
REMARK    2  A    between atoms: C_2  and  C_3
REMARK    3  A    between atoms: C_3  and  O_4
REMARK    4  A    between atoms: C_3  and  C_5
REMARK    5  A    between atoms: C_5  and  O_6
REMARK                            x       y       z     vdW  Elec       q    Type
REMARK                         _______ _______ _______ _____ _____    ______ ____
ROOT
ATOM      1  C   UNL     1       8.818  -3.999  26.421  0.00  0.00    +0.165 C 
ENDROOT
BRANCH   1   2
ATOM      2  O   UNL     1       8.515  -2.613  26.225  0.00  0.00    -0.387 OA
ATOM      3  H   UNL     1       9.273  -2.095  26.558  0.00  0.00    +0.210 HD
ENDBRANCH   1   2
BRANCH   1   4
ATOM      4  C   UNL     1       9.423  -4.570  25.141  0.00  0.00    +0.189 C 
BRANCH   4   5
ATOM      5  O   UNL     1      10.223  -5.713  25.411  0.00  0.00    -0.392 OA
ATOM      6  H   UNL     1      10.100  -5.928  26.348  0.00  0.00    +0.210 HD
ENDBRANCH   4   5
ENDBRANCH   1   4
BRANCH   1   7
ATOM      7  C   UNL     1       7.568  -4.771  26.868  0.00  0.00    +0.189 C 
BRANCH   7   8
ATOM      8  O   UNL     1       7.925  -6.001  27.506  0.00  0.00    -0.392 OA
ATOM      9  H   UNL     1       8.025  -6.669  26.806  0.00  0.00    +0.210 HD
ENDBRANCH   7   8
ENDBRANCH   1   7
TORSDOF 5
ENDMDL
MODEL 6
REMARK VINA RESULT:      -3.1     11.443     11.802
REMARK  Name = 
REMARK  5 active torsions:
REMARK  status: ('A' for Active; 'I' for Inactive)
REMARK    1  A    between atoms: O_1  and  C_2
REMARK    2  A    between atoms: C_2  and  C_3
REMARK    3  A    between atoms: C_3  and  O_4
REMARK    4  A    between atoms: C_3  and  C_5
REMARK    5  A    between atoms: C_5  and  O_6
REMARK                            x       y       z     vdW  Elec       q    Type
REMARK                         _______ _______ _______ _____ _____    ______ ____
ROOT
ATOM      1  C   UNL     1       9.181  -4.835  25.373  0.00  0.00    +0.165 C 
ENDROOT
BRANCH   1   2
ATOM      2  O   UNL     1      10.043  -5.974  25.484  0.00  0.00    -0.387 OA
ATOM      3  H   UNL     1       9.709  -6.526  26.217  0.00  0.00    +0.210 HD
ENDBRANCH   1   2
BRANCH   1   4
ATOM      4  C   UNL     1       8.401  -4.662  26.673  0.00  0.00    +0.189 C 
BRANCH   4   5
ATOM      5  O   UNL     1       7.986  -5.914  27.200  0.00  0.00    -0.392 OA
ATOM      6  H   UNL     1       8.560  -6.590  26.806  0.00  0.00    +0.210 HD
ENDBRANCH   4   5
ENDBRANCH   1   4
BRANCH   1   7
ATOM      7  C   UNL     1       8.256  -4.972  24.153  0.00  0.00    +0.189 C 
BRANCH   7   8
ATOM      8  O   UNL     1       6.913  -5.251  24.557  0.00  0.00    -0.392 OA
ATOM      9  H   UNL     1       6.835  -6.216  24.649  0.00  0.00    +0.210 HD
ENDBRANCH   7   8
ENDBRANCH   1   7
TORSDOF 5
ENDMDL
MODEL 7
REMARK VINA RESULT:      -3.0     11.369     11.741
REMARK  Name = 
REMARK  5 active torsions:
REMARK  status: ('A' for Active; 'I' for Inactive)
REMARK    1  A    between atoms: O_1  and  C_2
REMARK    2  A    between atoms: C_2  and  C_3
REMARK    3  A    between atoms: C_3  and  O_4
REMARK    4  A    between atoms: C_3  and  C_5
REMARK    5  A    between atoms: C_5  and  O_6
REMARK                            x       y       z     vdW  Elec       q    Type
REMARK                         _______ _______ _______ _____ _____    ______ ____
ROOT
ATOM      1  C   UNL     1       8.095  -4.874  26.412  0.00  0.00    +0.165 C 
ENDROOT
BRANCH   1   2
ATOM      2  O   UNL     1       8.057  -5.890  27.421  0.00  0.00    -0.387 OA
ATOM      3  H   UNL     1       7.767  -5.469  28.253  0.00  0.00    +0.210 HD
ENDBRANCH   1   2
BRANCH   1   4
ATOM      4  C   UNL     1       7.005  -5.145  25.379  0.00  0.00    +0.189 C 
BRANCH   4   5
ATOM      5  O   UNL     1       7.513  -5.059  24.055  0.00  0.00    -0.392 OA
ATOM      6  H   UNL     1       6.966  -4.412  23.584  0.00  0.00    +0.210 HD
ENDBRANCH   4   5
ENDBRANCH   1   4
BRANCH   1   7
ATOM      7  C   UNL     1       9.491  -4.790  25.778  0.00  0.00    +0.189 C 
BRANCH   7   8
ATOM      8  O   UNL     1       9.888  -6.056  25.243  0.00  0.00    -0.392 OA
ATOM      9  H   UNL     1       9.381  -6.739  25.714  0.00  0.00    +0.210 HD
ENDBRANCH   7   8
ENDBRANCH   1   7
TORSDOF 5
ENDMDL
MODEL 8
REMARK VINA RESULT:      -3.0      5.478      6.343
REMARK  Name = 
REMARK  5 active torsions:
REMARK  status: ('A' for Active; 'I' for Inactive)
REMARK    1  A    between atoms: O_1  and  C_2
REMARK    2  A    between atoms: C_2  and  C_3
REMARK    3  A    between atoms: C_3  and  O_4
REMARK    4  A    between atoms: C_3  and  C_5
REMARK    5  A    between atoms: C_5  and  O_6
REMARK                            x       y       z     vdW  Elec       q    Type
REMARK                         _______ _______ _______ _____ _____    ______ ____
ROOT
ATOM      1  C   UNL     1       9.600   0.802  22.297  0.00  0.00    +0.165 C 
ENDROOT
BRANCH   1   2
ATOM      2  O   UNL     1      10.102   1.945  21.594  0.00  0.00    -0.387 OA
ATOM      3  H   UNL     1       9.930   1.805  20.643  0.00  0.00    +0.210 HD
ENDBRANCH   1   2
BRANCH   1   4
ATOM      4  C   UNL     1      10.559   0.443  23.429  0.00  0.00    +0.189 C 
BRANCH   4   5
ATOM      5  O   UNL     1       9.970  -0.480  24.333  0.00  0.00    -0.392 OA
ATOM      6  H   UNL     1      10.684  -0.819  24.895  0.00  0.00    +0.210 HD
ENDBRANCH   4   5
ENDBRANCH   1   4
BRANCH   1   7
ATOM      7  C   UNL     1       9.373  -0.372  21.332  0.00  0.00    +0.189 C 
BRANCH   7   8
ATOM      8  O   UNL     1      10.272  -1.448  21.614  0.00  0.00    -0.392 OA
ATOM      9  H   UNL     1      10.807  -1.182  22.382  0.00  0.00    +0.210 HD
ENDBRANCH   7   8
ENDBRANCH   1   7
TORSDOF 5
ENDMDL
MODEL 9
REMARK VINA RESULT:      -3.0      5.581      6.437
REMARK  Name = 
REMARK  5 active torsions:
REMARK  status: ('A' for Active; 'I' for Inactive)
REMARK    1  A    between atoms: O_1  and  C_2
REMARK    2  A    between atoms: C_2  and  C_3
REMARK    3  A    between atoms: C_3  and  O_4
REMARK    4  A    between atoms: C_3  and  C_5
REMARK    5  A    between atoms: C_5  and  O_6
REMARK                            x       y       z     vdW  Elec       q    Type
REMARK                         _______ _______ _______ _____ _____    ______ ____
ROOT
ATOM      1  C   UNL     1       9.563  -0.398  22.261  0.00  0.00    +0.165 C 
ENDROOT
BRANCH   1   2
ATOM      2  O   UNL     1      10.179  -1.391  21.432  0.00  0.00    -0.387 OA
ATOM      3  H   UNL     1      10.387  -0.971  20.575  0.00  0.00    +0.210 HD
ENDBRANCH   1   2
BRANCH   1   4
ATOM      4  C   UNL     1       9.116   0.778  21.396  0.00  0.00    +0.189 C 
BRANCH   4   5
ATOM      5  O   UNL     1       9.986   1.890  21.544  0.00  0.00    -0.392 OA
ATOM      6  H   UNL     1      10.616   1.665  22.245  0.00  0.00    +0.210 HD
ENDBRANCH   4   5
ENDBRANCH   1   4
BRANCH   1   7
ATOM      7  C   UNL     1      10.516   0.036  23.386  0.00  0.00    +0.189 C 
BRANCH   7   8
ATOM      8  O   UNL     1       9.862   0.923  24.298  0.00  0.00    -0.392 OA
ATOM      9  H   UNL     1      10.116   0.649  25.196  0.00  0.00    +0.210 HD
ENDBRANCH   7   8
ENDBRANCH   1   7
TORSDOF 5
ENDMDL
