MODEL 1
REMARK VINA RESULT:      -7.2      0.000      0.000
REMARK  Name = 
REMARK  13 active torsions:
REMARK  status: ('A' for Active; 'I' for Inactive)
REMARK    1  A    between atoms: C_1  and  O_2
REMARK    2  A    between atoms: O_2  and  C_3
REMARK    3  A    between atoms: C_3  and  C_5
REMARK    4  A    between atoms: C_6  and  C_7
REMARK    5  A    between atoms: C_7  and  C_8
REMARK    6  A    between atoms: C_8  and  C_9
REMARK    7  A    between atoms: N_11  and  C_12
REMARK    8  A    between atoms: C_13  and  O_14
REMARK    9  A    between atoms: C_16  and  O_17
REMARK   10  A    between atoms: O_17  and  C_18
REMARK   11  A    between atoms: C_19  and  O_20
REMARK   12  A    between atoms: C_24  and  O_25
REMARK   13  A    between atoms: C_27  and  O_28
REMARK                            x       y       z     vdW  Elec       q    Type
REMARK                         _______ _______ _______ _____ _____    ______ ____
ROOT
ATOM      1  C   UNL     1       8.146  -4.430  24.744  0.00  0.00    +0.101 C 
ENDROOT
BRANCH   1   2
ATOM      2  C   UNL     1       9.036  -3.258  24.360  0.00  0.00    +0.218 C 
ATOM      3  N   UNL     1       8.364  -2.050  24.368  0.00  0.00    -0.282 N 
ATOM      4  H   UNL     1       7.358  -2.112  24.260  0.00  0.00    +0.155 HD
ATOM      5  O   UNL     1      10.238  -3.374  24.141  0.00  0.00    -0.275 OA
BRANCH   3   6
ATOM      6  C   UNL     1       8.937  -0.802  24.024  0.00  0.00    +0.079 A 
ATOM      7  C   UNL     1       8.792  -0.397  22.696  0.00  0.00    +0.076 A 
ATOM      8  C   UNL     1       9.301   0.831  22.288  0.00  0.00    +0.160 A 
ATOM      9  C   UNL     1       9.934   1.704  23.178  0.00  0.00    +0.165 A 
ATOM     10  C   UNL     1      10.072   1.312  24.507  0.00  0.00    +0.096 A 
ATOM     11  C   UNL     1       9.575   0.068  24.925  0.00  0.00    +0.142 A 
BRANCH   8  12
ATOM     12  O   UNL     1       9.156   1.177  20.970  0.00  0.00    -0.503 OA
ATOM     13  H   UNL     1      10.056   1.413  20.672  0.00  0.00    +0.292 HD
ENDBRANCH   8  12
BRANCH   9  14
ATOM     14  O   UNL     1      10.347   2.890  22.630  0.00  0.00    -0.491 OA
ATOM     15  C   UNL     1      11.222   3.685  23.422  0.00  0.00    +0.277 C 
ENDBRANCH   9  14
BRANCH  11  16
ATOM     16  O   UNL     1       9.672  -0.185  26.266  0.00  0.00    -0.505 OA
ATOM     17  H   UNL     1       9.589   0.673  26.724  0.00  0.00    +0.292 HD
ENDBRANCH  11  16
ENDBRANCH   3   6
ENDBRANCH   1   2
BRANCH   1  18
ATOM     18  C   UNL     1       6.689  -4.009  24.939  0.00  0.00    +0.047 C 
BRANCH  18  25
ATOM     19  C   UNL     1       5.029  -5.834  24.195  0.00  0.00    +0.105 A 
ATOM     20  C   UNL     1       4.198  -6.934  24.491  0.00  0.00    +0.135 A 
ATOM     21  C   UNL     1       4.089  -7.415  25.793  0.00  0.00    +0.093 A 
ATOM     22  C   UNL     1       4.779  -6.768  26.808  0.00  0.00    +0.139 A 
ATOM     23  C   UNL     1       5.590  -5.656  26.541  0.00  0.00    +0.086 A 
ATOM     24 CL   UNL     1       6.370  -4.898  27.894  0.00  0.00    -0.079 Cl
ATOM     25  C   UNL     1       5.750  -5.173  25.222  0.00  0.00    -0.008 A 
BRANCH  19  26
ATOM     26  C   UNL     1       5.075  -5.334  22.791  0.00  0.00    +0.343 C 
ATOM     27  O   UNL     1       4.564  -4.274  22.446  0.00  0.00    -0.245 OA
BRANCH  26  29
ATOM     28  C   UNL     1       7.001  -5.679  21.475  0.00  0.00    +0.280 C 
ATOM     29  O   UNL     1       5.773  -6.185  22.007  0.00  0.00    -0.464 OA
ENDBRANCH  26  29
ENDBRANCH  19  26
BRANCH  20  30
ATOM     30  O   UNL     1       3.449  -7.532  23.518  0.00  0.00    -0.506 OA
ATOM     31  H   UNL     1       3.730  -8.451  23.400  0.00  0.00    +0.292 HD
ENDBRANCH  20  30
BRANCH  22  32
ATOM     32  O   UNL     1       4.616  -7.270  28.074  0.00  0.00    -0.505 OA
ATOM     33  H   UNL     1       4.216  -6.562  28.615  0.00  0.00    +0.292 HD
ENDBRANCH  22  32
ENDBRANCH  18  25
ENDBRANCH   1  18
TORSDOF 11
ENDMDL
MODEL 2
REMARK VINA RESULT:      -7.2      2.107      3.407
REMARK  Name = 
REMARK  13 active torsions:
REMARK  status: ('A' for Active; 'I' for Inactive)
REMARK    1  A    between atoms: C_1  and  O_2
REMARK    2  A    between atoms: O_2  and  C_3
REMARK    3  A    between atoms: C_3  and  C_5
REMARK    4  A    between atoms: C_6  and  C_7
REMARK    5  A    between atoms: C_7  and  C_8
REMARK    6  A    between atoms: C_8  and  C_9
REMARK    7  A    between atoms: N_11  and  C_12
REMARK    8  A    between atoms: C_13  and  O_14
REMARK    9  A    between atoms: C_16  and  O_17
REMARK   10  A    between atoms: O_17  and  C_18
REMARK   11  A    between atoms: C_19  and  O_20
REMARK   12  A    between atoms: C_24  and  O_25
REMARK   13  A    between atoms: C_27  and  O_28
REMARK                            x       y       z     vdW  Elec       q    Type
REMARK                         _______ _______ _______ _____ _____    ______ ____
ROOT
ATOM      1  C   UNL     1       6.939  -2.789  22.434  0.00  0.00    +0.101 C 
ENDROOT
BRANCH   1   2
ATOM      2  C   UNL     1       8.025  -1.724  22.397  0.00  0.00    +0.218 C 
ATOM      3  N   UNL     1       7.716  -0.618  23.166  0.00  0.00    -0.282 N 
ATOM      4  H   UNL     1       6.729  -0.474  23.345  0.00  0.00    +0.155 HD
ATOM      5  O   UNL     1       9.089  -1.874  21.804  0.00  0.00    -0.275 OA
BRANCH   3   6
ATOM      6  C   UNL     1       8.530   0.534  23.292  0.00  0.00    +0.079 A 
ATOM      7  C   UNL     1       7.981   1.735  22.839  0.00  0.00    +0.076 A 
ATOM      8  C   UNL     1       8.707   2.915  22.956  0.00  0.00    +0.160 A 
ATOM      9  C   UNL     1       9.973   2.951  23.548  0.00  0.00    +0.165 A 
ATOM     10  C   UNL     1      10.523   1.759  24.012  0.00  0.00    +0.096 A 
ATOM     11  C   UNL     1       9.804   0.561  23.885  0.00  0.00    +0.142 A 
BRANCH   8  12
ATOM     12  O   UNL     1       8.137   4.067  22.478  0.00  0.00    -0.503 OA
ATOM     13  H   UNL     1       7.757   4.504  23.265  0.00  0.00    +0.292 HD
ENDBRANCH   8  12
BRANCH   9  14
ATOM     14  O   UNL     1      10.542   4.196  23.622  0.00  0.00    -0.491 OA
ATOM     15  C   UNL     1      11.914   4.289  23.256  0.00  0.00    +0.277 C 
ENDBRANCH   9  14
BRANCH  11  16
ATOM     16  O   UNL     1      10.385  -0.538  24.456  0.00  0.00    -0.505 OA
ATOM     17  H   UNL     1      11.301  -0.290  24.683  0.00  0.00    +0.292 HD
ENDBRANCH  11  16
ENDBRANCH   3   6
ENDBRANCH   1   2
BRANCH   1  18
ATOM     18  C   UNL     1       7.513  -4.191  22.649  0.00  0.00    +0.047 C 
BRANCH  18  25
ATOM     19  C   UNL     1       7.743  -4.878  25.122  0.00  0.00    +0.105 A 
ATOM     20  C   UNL     1       7.220  -5.486  26.282  0.00  0.00    +0.135 A 
ATOM     21  C   UNL     1       5.954  -6.065  26.275  0.00  0.00    +0.093 A 
ATOM     22  C   UNL     1       5.227  -6.076  25.094  0.00  0.00    +0.139 A 
ATOM     23  C   UNL     1       5.737  -5.502  23.921  0.00  0.00    +0.086 A 
ATOM     24 CL   UNL     1       4.761  -5.614  22.491  0.00  0.00    -0.079 Cl
ATOM     25  C   UNL     1       7.003  -4.870  23.912  0.00  0.00    -0.008 A 
BRANCH  19  26
ATOM     26  C   UNL     1       9.120  -4.310  25.174  0.00  0.00    +0.343 C 
ATOM     27  O   UNL     1      10.127  -5.009  25.168  0.00  0.00    -0.245 OA
BRANCH  26  29
ATOM     28  C   UNL     1       8.386  -2.371  26.298  0.00  0.00    +0.280 C 
ATOM     29  O   UNL     1       9.076  -2.960  25.191  0.00  0.00    -0.464 OA
ENDBRANCH  26  29
ENDBRANCH  19  26
BRANCH  20  30
ATOM     30  O   UNL     1       7.955  -5.555  27.431  0.00  0.00    -0.506 OA
ATOM     31  H   UNL     1       8.027  -4.678  27.834  0.00  0.00    +0.292 HD
ENDBRANCH  20  30
BRANCH  22  32
ATOM     32  O   UNL     1       3.997  -6.682  25.139  0.00  0.00    -0.505 OA
ATOM     33  H   UNL     1       4.145  -7.642  25.038  0.00  0.00    +0.292 HD
ENDBRANCH  22  32
ENDBRANCH  18  25
ENDBRANCH   1  18
TORSDOF 11
ENDMDL
MODEL 3
REMARK VINA RESULT:      -7.0      1.765      2.226
REMARK  Name = 
REMARK  13 active torsions:
REMARK  status: ('A' for Active; 'I' for Inactive)
REMARK    1  A    between atoms: C_1  and  O_2
REMARK    2  A    between atoms: O_2  and  C_3
REMARK    3  A    between atoms: C_3  and  C_5
REMARK    4  A    between atoms: C_6  and  C_7
REMARK    5  A    between atoms: C_7  and  C_8
REMARK    6  A    between atoms: C_8  and  C_9
REMARK    7  A    between atoms: N_11  and  C_12
REMARK    8  A    between atoms: C_13  and  O_14
REMARK    9  A    between atoms: C_16  and  O_17
REMARK   10  A    between atoms: O_17  and  C_18
REMARK   11  A    between atoms: C_19  and  O_20
REMARK   12  A    between atoms: C_24  and  O_25
REMARK   13  A    between atoms: C_27  and  O_28
REMARK                            x       y       z     vdW  Elec       q    Type
REMARK                         _______ _______ _______ _____ _____    ______ ____
ROOT
ATOM      1  C   UNL     1       6.901  -4.257  27.235  0.00  0.00    +0.101 C 
ENDROOT
BRANCH   1   2
ATOM      2  C   UNL     1       7.216  -2.982  26.468  0.00  0.00    +0.218 C 
ATOM      3  N   UNL     1       8.447  -3.025  25.842  0.00  0.00    -0.282 N 
ATOM      4  H   UNL     1       9.115  -3.677  26.238  0.00  0.00    +0.155 HD
ATOM      5  O   UNL     1       6.422  -2.053  26.361  0.00  0.00    -0.275 OA
BRANCH   3   6
ATOM      6  C   UNL     1       9.007  -1.968  25.083  0.00  0.00    +0.079 A 
ATOM      7  C   UNL     1       9.277  -2.242  23.741  0.00  0.00    +0.076 A 
ATOM      8  C   UNL     1       9.800  -1.247  22.923  0.00  0.00    +0.160 A 
ATOM      9  C   UNL     1      10.039   0.048  23.393  0.00  0.00    +0.165 A 
ATOM     10  C   UNL     1       9.762   0.333  24.727  0.00  0.00    +0.096 A 
ATOM     11  C   UNL     1       9.249  -0.670  25.564  0.00  0.00    +0.142 A 
BRANCH   8  12
ATOM     12  O   UNL     1      10.070  -1.567  21.618  0.00  0.00    -0.503 OA
ATOM     13  H   UNL     1      10.083  -2.544  21.597  0.00  0.00    +0.292 HD
ENDBRANCH   8  12
BRANCH   9  14
ATOM     14  O   UNL     1      10.520   0.924  22.454  0.00  0.00    -0.491 OA
ATOM     15  C   UNL     1       9.610   1.912  21.982  0.00  0.00    +0.277 C 
ENDBRANCH   9  14
BRANCH  11  16
ATOM     16  O   UNL     1       8.919  -0.268  26.830  0.00  0.00    -0.505 OA
ATOM     17  H   UNL     1       9.747   0.012  27.264  0.00  0.00    +0.292 HD
ENDBRANCH  11  16
ENDBRANCH   3   6
ENDBRANCH   1   2
BRANCH   1  18
ATOM     18  C   UNL     1       7.119  -5.511  26.386  0.00  0.00    +0.047 C 
BRANCH  18  25
ATOM     19  C   UNL     1       5.645  -5.789  24.290  0.00  0.00    +0.105 A 
ATOM     20  C   UNL     1       4.484  -6.283  23.662  0.00  0.00    +0.135 A 
ATOM     21  C   UNL     1       3.536  -7.006  24.381  0.00  0.00    +0.093 A 
ATOM     22  C   UNL     1       3.729  -7.199  25.741  0.00  0.00    +0.139 A 
ATOM     23  C   UNL     1       4.863  -6.694  26.393  0.00  0.00    +0.086 A 
ATOM     24 CL   UNL     1       4.978  -6.955  28.105  0.00  0.00    -0.079 Cl
ATOM     25  C   UNL     1       5.861  -5.992  25.677  0.00  0.00    -0.008 A 
BRANCH  19  26
ATOM     26  C   UNL     1       6.606  -4.985  23.482  0.00  0.00    +0.343 C 
ATOM     27  O   UNL     1       7.605  -5.469  22.963  0.00  0.00    -0.245 OA
BRANCH  26  29
ATOM     28  C   UNL     1       6.072  -3.178  22.064  0.00  0.00    +0.280 C 
ATOM     29  O   UNL     1       6.190  -3.702  23.390  0.00  0.00    -0.464 OA
ENDBRANCH  26  29
ENDBRANCH  19  26
BRANCH  20  30
ATOM     30  O   UNL     1       4.239  -6.033  22.342  0.00  0.00    -0.506 OA
ATOM     31  H   UNL     1       4.692  -5.223  22.066  0.00  0.00    +0.292 HD
ENDBRANCH  20  30
BRANCH  22  32
ATOM     32  O   UNL     1       2.752  -7.897  26.404  0.00  0.00    -0.505 OA
ATOM     33  H   UNL     1       2.603  -8.725  25.908  0.00  0.00    +0.292 HD
ENDBRANCH  22  32
ENDBRANCH  18  25
ENDBRANCH   1  18
TORSDOF 11
ENDMDL
MODEL 4
REMARK VINA RESULT:      -7.0      1.908      2.927
REMARK  Name = 
REMARK  13 active torsions:
REMARK  status: ('A' for Active; 'I' for Inactive)
REMARK    1  A    between atoms: C_1  and  O_2
REMARK    2  A    between atoms: O_2  and  C_3
REMARK    3  A    between atoms: C_3  and  C_5
REMARK    4  A    between atoms: C_6  and  C_7
REMARK    5  A    between atoms: C_7  and  C_8
REMARK    6  A    between atoms: C_8  and  C_9
REMARK    7  A    between atoms: N_11  and  C_12
REMARK    8  A    between atoms: C_13  and  O_14
REMARK    9  A    between atoms: C_16  and  O_17
REMARK   10  A    between atoms: O_17  and  C_18
REMARK   11  A    between atoms: C_19  and  O_20
REMARK   12  A    between atoms: C_24  and  O_25
REMARK   13  A    between atoms: C_27  and  O_28
REMARK                            x       y       z     vdW  Elec       q    Type
REMARK                         _______ _______ _______ _____ _____    ______ ____
ROOT
ATOM      1  C   UNL     1       7.997  -3.957  23.105  0.00  0.00    +0.101 C 
ENDROOT
BRANCH   1   2
ATOM      2  C   UNL     1       8.860  -2.729  23.350  0.00  0.00    +0.218 C 
ATOM      3  N   UNL     1       8.125  -1.560  23.409  0.00  0.00    -0.282 N 
ATOM      4  H   UNL     1       7.225  -1.588  22.943  0.00  0.00    +0.155 HD
ATOM      5  O   UNL     1      10.070  -2.791  23.547  0.00  0.00    -0.275 OA
BRANCH   3   6
ATOM      6  C   UNL     1       8.672  -0.268  23.598  0.00  0.00    +0.079 A 
ATOM      7  C   UNL     1       9.174   0.366  22.460  0.00  0.00    +0.076 A 
ATOM      8  C   UNL     1       9.700   1.649  22.559  0.00  0.00    +0.160 A 
ATOM      9  C   UNL     1       9.716   2.353  23.767  0.00  0.00    +0.165 A 
ATOM     10  C   UNL     1       9.207   1.732  24.904  0.00  0.00    +0.096 A 
ATOM     11  C   UNL     1       8.687   0.432  24.817  0.00  0.00    +0.142 A 
BRANCH   8  12
ATOM     12  O   UNL     1      10.203   2.223  21.420  0.00  0.00    -0.503 OA
ATOM     13  H   UNL     1       9.832   3.128  21.411  0.00  0.00    +0.292 HD
ENDBRANCH   8  12
BRANCH   9  14
ATOM     14  O   UNL     1      10.234   3.620  23.691  0.00  0.00    -0.491 OA
ATOM     15  C   UNL     1       9.303   4.693  23.782  0.00  0.00    +0.277 C 
ENDBRANCH   9  14
BRANCH  11  16
ATOM     16  O   UNL     1       8.123  -0.055  25.965  0.00  0.00    -0.505 OA
ATOM     17  H   UNL     1       7.679  -0.892  25.731  0.00  0.00    +0.292 HD
ENDBRANCH  11  16
ENDBRANCH   3   6
ENDBRANCH   1   2
BRANCH   1  18
ATOM     18  C   UNL     1       6.536  -3.722  23.496  0.00  0.00    +0.047 C 
BRANCH  18  25
ATOM     19  C   UNL     1       6.145  -4.784  25.811  0.00  0.00    +0.105 A 
ATOM     20  C   UNL     1       5.572  -5.784  26.623  0.00  0.00    +0.135 A 
ATOM     21  C   UNL     1       4.794  -6.796  26.067  0.00  0.00    +0.093 A 
ATOM     22  C   UNL     1       4.625  -6.833  24.690  0.00  0.00    +0.139 A 
ATOM     23  C   UNL     1       5.208  -5.865  23.860  0.00  0.00    +0.086 A 
ATOM     24 CL   UNL     1       4.970  -6.036  22.150  0.00  0.00    -0.079 Cl
ATOM     25  C   UNL     1       5.968  -4.804  24.404  0.00  0.00    -0.008 A 
BRANCH  19  26
ATOM     26  C   UNL     1       7.003  -3.749  26.455  0.00  0.00    +0.343 C 
ATOM     27  O   UNL     1       6.793  -2.547  26.342  0.00  0.00    -0.245 OA
BRANCH  26  29
ATOM     28  C   UNL     1       9.144  -4.737  26.449  0.00  0.00    +0.280 C 
ATOM     29  O   UNL     1       7.984  -4.331  27.180  0.00  0.00    -0.464 OA
ENDBRANCH  26  29
ENDBRANCH  19  26
BRANCH  20  30
ATOM     30  O   UNL     1       5.794  -5.808  27.970  0.00  0.00    -0.506 OA
ATOM     31  H   UNL     1       6.710  -5.559  28.161  0.00  0.00    +0.292 HD
ENDBRANCH  20  30
BRANCH  22  32
ATOM     32  O   UNL     1       3.870  -7.865  24.195  0.00  0.00    -0.505 OA
ATOM     33  H   UNL     1       4.101  -7.964  23.251  0.00  0.00    +0.292 HD
ENDBRANCH  22  32
ENDBRANCH  18  25
ENDBRANCH   1  18
TORSDOF 11
ENDMDL
MODEL 5
REMARK VINA RESULT:      -6.7      2.223      8.136
REMARK  Name = 
REMARK  13 active torsions:
REMARK  status: ('A' for Active; 'I' for Inactive)
REMARK    1  A    between atoms: C_1  and  O_2
REMARK    2  A    between atoms: O_2  and  C_3
REMARK    3  A    between atoms: C_3  and  C_5
REMARK    4  A    between atoms: C_6  and  C_7
REMARK    5  A    between atoms: C_7  and  C_8
REMARK    6  A    between atoms: C_8  and  C_9
REMARK    7  A    between atoms: N_11  and  C_12
REMARK    8  A    between atoms: C_13  and  O_14
REMARK    9  A    between atoms: C_16  and  O_17
REMARK   10  A    between atoms: O_17  and  C_18
REMARK   11  A    between atoms: C_19  and  O_20
REMARK   12  A    between atoms: C_24  and  O_25
REMARK   13  A    between atoms: C_27  and  O_28
REMARK                            x       y       z     vdW  Elec       q    Type
REMARK                         _______ _______ _______ _____ _____    ______ ____
ROOT
ATOM      1  C   UNL     1       6.193  -0.639  25.534  0.00  0.00    +0.101 C 
ENDROOT
BRANCH   1   2
ATOM      2  C   UNL     1       5.301  -1.863  25.392  0.00  0.00    +0.218 C 
ATOM      3  N   UNL     1       6.013  -3.014  25.115  0.00  0.00    -0.282 N 
ATOM      4  H   UNL     1       6.923  -2.872  24.692  0.00  0.00    +0.155 HD
ATOM      5  O   UNL     1       4.088  -1.833  25.579  0.00  0.00    -0.275 OA
BRANCH   3   6
ATOM      6  C   UNL     1       5.438  -4.291  24.904  0.00  0.00    +0.079 A 
ATOM      7  C   UNL     1       5.416  -5.151  26.004  0.00  0.00    +0.076 A 
ATOM      8  C   UNL     1       4.842  -6.412  25.885  0.00  0.00    +0.160 A 
ATOM      9  C   UNL     1       4.246  -6.846  24.697  0.00  0.00    +0.165 A 
ATOM     10  C   UNL     1       4.254  -5.990  23.599  0.00  0.00    +0.096 A 
ATOM     11  C   UNL     1       4.846  -4.722  23.705  0.00  0.00    +0.142 A 
BRANCH   8  12
ATOM     12  O   UNL     1       4.862  -7.230  26.984  0.00  0.00    -0.503 OA
ATOM     13  H   UNL     1       5.671  -7.769  26.880  0.00  0.00    +0.292 HD
ENDBRANCH   8  12
BRANCH   9  14
ATOM     14  O   UNL     1       3.692  -8.098  24.752  0.00  0.00    -0.491 OA
ATOM     15  C   UNL     1       2.344  -8.215  24.309  0.00  0.00    +0.277 C 
ENDBRANCH   9  14
BRANCH  11  16
ATOM     16  O   UNL     1       4.719  -3.919  22.604  0.00  0.00    -0.505 OA
ATOM     17  H   UNL     1       3.779  -3.941  22.343  0.00  0.00    +0.292 HD
ENDBRANCH  11  16
ENDBRANCH   3   6
ENDBRANCH   1   2
BRANCH   1  18
ATOM     18  C   UNL     1       7.678  -1.004  25.538  0.00  0.00    +0.047 C 
BRANCH  18  25
ATOM     19  C   UNL     1       8.933  -1.259  23.302  0.00  0.00    +0.105 A 
ATOM     20  C   UNL     1       9.609  -0.695  22.201  0.00  0.00    +0.135 A 
ATOM     21  C   UNL     1       9.789   0.683  22.105  0.00  0.00    +0.093 A 
ATOM     22  C   UNL     1       9.332   1.493  23.134  0.00  0.00    +0.139 A 
ATOM     23  C   UNL     1       8.680   0.952  24.251  0.00  0.00    +0.086 A 
ATOM     24 CL   UNL     1       8.191   2.055  25.499  0.00  0.00    -0.079 Cl
ATOM     25  C   UNL     1       8.447  -0.440  24.353  0.00  0.00    -0.008 A 
BRANCH  19  26
ATOM     26  C   UNL     1       8.805  -2.743  23.374  0.00  0.00    +0.343 C 
ATOM     27  O   UNL     1       7.905  -3.360  22.815  0.00  0.00    -0.245 OA
BRANCH  26  29
ATOM     28  C   UNL     1       9.466  -4.339  24.979  0.00  0.00    +0.280 C 
ATOM     29  O   UNL     1       9.819  -3.271  24.094  0.00  0.00    -0.464 OA
ENDBRANCH  26  29
ENDBRANCH  19  26
BRANCH  20  30
ATOM     30  O   UNL     1      10.137  -1.484  21.220  0.00  0.00    -0.506 OA
ATOM     31  H   UNL     1      11.094  -1.568  21.339  0.00  0.00    +0.292 HD
ENDBRANCH  20  30
BRANCH  22  32
ATOM     32  O   UNL     1       9.558   2.839  22.998  0.00  0.00    -0.505 OA
ATOM     33  H   UNL     1       9.204   3.273  23.798  0.00  0.00    +0.292 HD
ENDBRANCH  22  32
ENDBRANCH  18  25
ENDBRANCH   1  18
TORSDOF 11
ENDMDL
MODEL 6
REMARK VINA RESULT:      -6.7      1.614      3.370
REMARK  Name = 
REMARK  13 active torsions:
REMARK  status: ('A' for Active; 'I' for Inactive)
REMARK    1  A    between atoms: C_1  and  O_2
REMARK    2  A    between atoms: O_2  and  C_3
REMARK    3  A    between atoms: C_3  and  C_5
REMARK    4  A    between atoms: C_6  and  C_7
REMARK    5  A    between atoms: C_7  and  C_8
REMARK    6  A    between atoms: C_8  and  C_9
REMARK    7  A    between atoms: N_11  and  C_12
REMARK    8  A    between atoms: C_13  and  O_14
REMARK    9  A    between atoms: C_16  and  O_17
REMARK   10  A    between atoms: O_17  and  C_18
REMARK   11  A    between atoms: C_19  and  O_20
REMARK   12  A    between atoms: C_24  and  O_25
REMARK   13  A    between atoms: C_27  and  O_28
REMARK                            x       y       z     vdW  Elec       q    Type
REMARK                         _______ _______ _______ _____ _____    ______ ____
ROOT
ATOM      1  C   UNL     1       8.149  -5.275  26.120  0.00  0.00    +0.101 C 
ENDROOT
BRANCH   1   2
ATOM      2  C   UNL     1       8.996  -4.249  25.382  0.00  0.00    +0.218 C 
ATOM      3  N   UNL     1       8.477  -2.970  25.461  0.00  0.00    -0.282 N 
ATOM      4  H   UNL     1       7.483  -2.915  25.651  0.00  0.00    +0.155 HD
ATOM      5  O   UNL     1      10.062  -4.527  24.841  0.00  0.00    -0.275 OA
BRANCH   3   6
ATOM      6  C   UNL     1       9.042  -1.828  24.844  0.00  0.00    +0.079 A 
ATOM      7  C   UNL     1       9.184  -1.878  23.456  0.00  0.00    +0.076 A 
ATOM      8  C   UNL     1       9.704  -0.783  22.774  0.00  0.00    +0.160 A 
ATOM      9  C   UNL     1      10.065   0.397  23.433  0.00  0.00    +0.165 A 
ATOM     10  C   UNL     1       9.915   0.459  24.815  0.00  0.00    +0.096 A 
ATOM     11  C   UNL     1       9.406  -0.647  25.513  0.00  0.00    +0.142 A 
BRANCH   8  12
ATOM     12  O   UNL     1       9.847  -0.884  21.415  0.00  0.00    -0.503 OA
ATOM     13  H   UNL     1      10.615  -1.474  21.287  0.00  0.00    +0.292 HD
ENDBRANCH   8  12
BRANCH   9  14
ATOM     14  O   UNL     1      10.525   1.397  22.616  0.00  0.00    -0.491 OA
ATOM     15  C   UNL     1      10.531   2.711  23.162  0.00  0.00    +0.277 C 
ENDBRANCH   9  14
BRANCH  11  16
ATOM     16  O   UNL     1       9.207  -0.456  26.854  0.00  0.00    -0.505 OA
ATOM     17  H   UNL     1       9.059   0.500  26.986  0.00  0.00    +0.292 HD
ENDBRANCH  11  16
ENDBRANCH   3   6
ENDBRANCH   1   2
BRANCH   1  18
ATOM     18  C   UNL     1       6.718  -4.784  26.349  0.00  0.00    +0.047 C 
BRANCH  18  25
ATOM     19  C   UNL     1       4.770  -6.469  26.270  0.00  0.00    +0.105 A 
ATOM     20  C   UNL     1       3.787  -7.177  25.550  0.00  0.00    +0.135 A 
ATOM     21  C   UNL     1       3.655  -7.014  24.173  0.00  0.00    +0.093 A 
ATOM     22  C   UNL     1       4.538  -6.174  23.509  0.00  0.00    +0.139 A 
ATOM     23  C   UNL     1       5.541  -5.480  24.201  0.00  0.00    +0.086 A 
ATOM     24 CL   UNL     1       6.617  -4.493  23.263  0.00  0.00    -0.079 Cl
ATOM     25  C   UNL     1       5.669  -5.597  25.604  0.00  0.00    -0.008 A 
BRANCH  19  26
ATOM     26  C   UNL     1       4.894  -6.714  27.735  0.00  0.00    +0.343 C 
ATOM     27  O   UNL     1       5.790  -7.395  28.222  0.00  0.00    -0.245 OA
BRANCH  26  29
ATOM     28  C   UNL     1       3.294  -6.793  29.465  0.00  0.00    +0.280 C 
ATOM     29  O   UNL     1       3.922  -6.060  28.409  0.00  0.00    -0.464 OA
ENDBRANCH  26  29
ENDBRANCH  19  26
BRANCH  20  30
ATOM     30  O   UNL     1       2.963  -8.069  26.175  0.00  0.00    -0.506 OA
ATOM     31  H   UNL     1       2.043  -7.907  25.920  0.00  0.00    +0.292 HD
ENDBRANCH  20  30
BRANCH  22  32
ATOM     32  O   UNL     1       4.377  -6.070  22.151  0.00  0.00    -0.505 OA
ATOM     33  H   UNL     1       4.825  -5.248  21.870  0.00  0.00    +0.292 HD
ENDBRANCH  22  32
ENDBRANCH  18  25
ENDBRANCH   1  18
TORSDOF 11
ENDMDL
MODEL 7
REMARK VINA RESULT:      -6.6      2.144      3.141
REMARK  Name = 
REMARK  13 active torsions:
REMARK  status: ('A' for Active; 'I' for Inactive)
REMARK    1  A    between atoms: C_1  and  O_2
REMARK    2  A    between atoms: O_2  and  C_3
REMARK    3  A    between atoms: C_3  and  C_5
REMARK    4  A    between atoms: C_6  and  C_7
REMARK    5  A    between atoms: C_7  and  C_8
REMARK    6  A    between atoms: C_8  and  C_9
REMARK    7  A    between atoms: N_11  and  C_12
REMARK    8  A    between atoms: C_13  and  O_14
REMARK    9  A    between atoms: C_16  and  O_17
REMARK   10  A    between atoms: O_17  and  C_18
REMARK   11  A    between atoms: C_19  and  O_20
REMARK   12  A    between atoms: C_24  and  O_25
REMARK   13  A    between atoms: C_27  and  O_28
REMARK                            x       y       z     vdW  Elec       q    Type
REMARK                         _______ _______ _______ _____ _____    ______ ____
ROOT
ATOM      1  C   UNL     1       4.548  -2.477  24.843  0.00  0.00    +0.101 C 
ENDROOT
BRANCH   1   2
ATOM      2  C   UNL     1       5.687  -1.470  24.870  0.00  0.00    +0.218 C 
ATOM      3  N   UNL     1       6.036  -1.022  23.610  0.00  0.00    -0.282 N 
ATOM      4  H   UNL     1       5.787  -1.638  22.845  0.00  0.00    +0.155 HD
ATOM      5  O   UNL     1       6.185  -1.051  25.911  0.00  0.00    -0.275 OA
BRANCH   3   6
ATOM      6  C   UNL     1       7.079  -0.104  23.336  0.00  0.00    +0.079 A 
ATOM      7  C   UNL     1       8.382  -0.585  23.482  0.00  0.00    +0.076 A 
ATOM      8  C   UNL     1       9.461   0.247  23.203  0.00  0.00    +0.160 A 
ATOM      9  C   UNL     1       9.288   1.557  22.743  0.00  0.00    +0.165 A 
ATOM     10  C   UNL     1       7.992   2.039  22.585  0.00  0.00    +0.096 A 
ATOM     11  C   UNL     1       6.897   1.212  22.879  0.00  0.00    +0.142 A 
BRANCH   8  12
ATOM     12  O   UNL     1      10.722  -0.259  23.381  0.00  0.00    -0.503 OA
ATOM     13  H   UNL     1      10.666  -0.789  24.200  0.00  0.00    +0.292 HD
ENDBRANCH   8  12
BRANCH   9  14
ATOM     14  O   UNL     1      10.449   2.234  22.478  0.00  0.00    -0.491 OA
ATOM     15  C   UNL     1      10.787   3.289  23.372  0.00  0.00    +0.277 C 
ENDBRANCH   9  14
BRANCH  11  16
ATOM     16  O   UNL     1       5.667   1.742  22.601  0.00  0.00    -0.505 OA
ATOM     17  H   UNL     1       5.810   2.672  22.342  0.00  0.00    +0.292 HD
ENDBRANCH  11  16
ENDBRANCH   3   6
ENDBRANCH   1   2
BRANCH   1  18
ATOM     18  C   UNL     1       4.986  -3.828  24.274  0.00  0.00    +0.047 C 
BRANCH  18  25
ATOM     19  C   UNL     1       7.391  -4.745  24.404  0.00  0.00    +0.105 A 
ATOM     20  C   UNL     1       8.458  -5.294  25.144  0.00  0.00    +0.135 A 
ATOM     21  C   UNL     1       8.329  -5.538  26.509  0.00  0.00    +0.093 A 
ATOM     22  C   UNL     1       7.115  -5.273  27.126  0.00  0.00    +0.139 A 
ATOM     23  C   UNL     1       6.031  -4.753  26.405  0.00  0.00    +0.086 A 
ATOM     24 CL   UNL     1       4.547  -4.504  27.269  0.00  0.00    -0.079 Cl
ATOM     25  C   UNL     1       6.150  -4.457  25.027  0.00  0.00    -0.008 A 
BRANCH  19  26
ATOM     26  C   UNL     1       7.570  -4.544  22.938  0.00  0.00    +0.343 C 
ATOM     27  O   UNL     1       7.791  -3.446  22.440  0.00  0.00    -0.245 OA
BRANCH  26  29
ATOM     28  C   UNL     1       6.504  -5.798  21.250  0.00  0.00    +0.280 C 
ATOM     29  O   UNL     1       7.489  -5.724  22.284  0.00  0.00    -0.464 OA
ENDBRANCH  26  29
ENDBRANCH  19  26
BRANCH  20  30
ATOM     30  O   UNL     1       9.633  -5.635  24.536  0.00  0.00    -0.506 OA
ATOM     31  H   UNL     1      10.382  -5.291  25.043  0.00  0.00    +0.292 HD
ENDBRANCH  20  30
BRANCH  22  32
ATOM     32  O   UNL     1       7.036  -5.556  28.466  0.00  0.00    -0.505 OA
ATOM     33  H   UNL     1       7.440  -4.805  28.943  0.00  0.00    +0.292 HD
ENDBRANCH  22  32
ENDBRANCH  18  25
ENDBRANCH   1  18
TORSDOF 11
ENDMDL
MODEL 8
REMARK VINA RESULT:      -6.5      2.456      8.164
REMARK  Name = 
REMARK  13 active torsions:
REMARK  status: ('A' for Active; 'I' for Inactive)
REMARK    1  A    between atoms: C_1  and  O_2
REMARK    2  A    between atoms: O_2  and  C_3
REMARK    3  A    between atoms: C_3  and  C_5
REMARK    4  A    between atoms: C_6  and  C_7
REMARK    5  A    between atoms: C_7  and  C_8
REMARK    6  A    between atoms: C_8  and  C_9
REMARK    7  A    between atoms: N_11  and  C_12
REMARK    8  A    between atoms: C_13  and  O_14
REMARK    9  A    between atoms: C_16  and  O_17
REMARK   10  A    between atoms: O_17  and  C_18
REMARK   11  A    between atoms: C_19  and  O_20
REMARK   12  A    between atoms: C_24  and  O_25
REMARK   13  A    between atoms: C_27  and  O_28
REMARK                            x       y       z     vdW  Elec       q    Type
REMARK                         _______ _______ _______ _____ _____    ______ ____
ROOT
ATOM      1  C   UNL     1       9.746  -2.090  24.045  0.00  0.00    +0.101 C 
ENDROOT
BRANCH   1   2
ATOM      2  C   UNL     1       9.069  -3.439  24.232  0.00  0.00    +0.218 C 
ATOM      3  N   UNL     1       7.718  -3.404  23.941  0.00  0.00    -0.282 N 
ATOM      4  H   UNL     1       7.283  -2.491  24.003  0.00  0.00    +0.155 HD
ATOM      5  O   UNL     1       9.680  -4.458  24.536  0.00  0.00    -0.275 OA
BRANCH   3   6
ATOM      6  C   UNL     1       6.836  -4.507  24.055  0.00  0.00    +0.079 A 
ATOM      7  C   UNL     1       6.617  -4.996  25.344  0.00  0.00    +0.076 A 
ATOM      8  C   UNL     1       5.741  -6.058  25.541  0.00  0.00    +0.160 A 
ATOM      9  C   UNL     1       5.035  -6.642  24.485  0.00  0.00    +0.165 A 
ATOM     10  C   UNL     1       5.239  -6.152  23.198  0.00  0.00    +0.096 A 
ATOM     11  C   UNL     1       6.133  -5.091  22.988  0.00  0.00    +0.142 A 
BRANCH   8  12
ATOM     12  O   UNL     1       5.574  -6.520  26.821  0.00  0.00    -0.503 OA
ATOM     13  H   UNL     1       6.480  -6.689  27.146  0.00  0.00    +0.292 HD
ENDBRANCH   8  12
BRANCH   9  14
ATOM     14  O   UNL     1       4.184  -7.653  24.849  0.00  0.00    -0.491 OA
ATOM     15  C   UNL     1       2.809  -7.471  24.527  0.00  0.00    +0.277 C 
ENDBRANCH   9  14
BRANCH  11  16
ATOM     16  O   UNL     1       6.193  -4.618  21.705  0.00  0.00    -0.505 OA
ATOM     17  H   UNL     1       6.646  -3.754  21.742  0.00  0.00    +0.292 HD
ENDBRANCH  11  16
ENDBRANCH   3   6
ENDBRANCH   1   2
BRANCH   1  18
ATOM     18  C   UNL     1       9.084  -0.992  24.880  0.00  0.00    +0.047 C 
BRANCH  18  25
ATOM     19  C   UNL     1       7.624   0.673  23.561  0.00  0.00    +0.105 A 
ATOM     20  C   UNL     1       7.462   1.904  22.894  0.00  0.00    +0.135 A 
ATOM     21  C   UNL     1       8.518   2.806  22.794  0.00  0.00    +0.093 A 
ATOM     22  C   UNL     1       9.752   2.456  23.323  0.00  0.00    +0.139 A 
ATOM     23  C   UNL     1       9.945   1.225  23.966  0.00  0.00    +0.086 A 
ATOM     24 CL   UNL     1      11.541   0.873  24.549  0.00  0.00    -0.079 Cl
ATOM     25  C   UNL     1       8.877   0.310  24.118  0.00  0.00    -0.008 A 
BRANCH  19  26
ATOM     26  C   UNL     1       6.472  -0.272  23.602  0.00  0.00    +0.343 C 
ATOM     27  O   UNL     1       6.363  -1.221  22.833  0.00  0.00    -0.245 OA
BRANCH  26  29
ATOM     28  C   UNL     1       5.400  -0.964  25.585  0.00  0.00    +0.280 C 
ATOM     29  O   UNL     1       5.627   0.054  24.605  0.00  0.00    -0.464 OA
ENDBRANCH  26  29
ENDBRANCH  19  26
BRANCH  20  30
ATOM     30  O   UNL     1       6.277   2.230  22.298  0.00  0.00    -0.506 OA
ATOM     31  H   UNL     1       5.559   1.699  22.672  0.00  0.00    +0.292 HD
ENDBRANCH  20  30
BRANCH  22  32
ATOM     32  O   UNL     1      10.763   3.371  23.173  0.00  0.00    -0.505 OA
ATOM     33  H   UNL     1      11.606   2.881  23.229  0.00  0.00    +0.292 HD
ENDBRANCH  22  32
ENDBRANCH  18  25
ENDBRANCH   1  18
TORSDOF 11
ENDMDL
MODEL 9
REMARK VINA RESULT:      -6.5      2.771      7.743
REMARK  Name = 
REMARK  13 active torsions:
REMARK  status: ('A' for Active; 'I' for Inactive)
REMARK    1  A    between atoms: C_1  and  O_2
REMARK    2  A    between atoms: O_2  and  C_3
REMARK    3  A    between atoms: C_3  and  C_5
REMARK    4  A    between atoms: C_6  and  C_7
REMARK    5  A    between atoms: C_7  and  C_8
REMARK    6  A    between atoms: C_8  and  C_9
REMARK    7  A    between atoms: N_11  and  C_12
REMARK    8  A    between atoms: C_13  and  O_14
REMARK    9  A    between atoms: C_16  and  O_17
REMARK   10  A    between atoms: O_17  and  C_18
REMARK   11  A    between atoms: C_19  and  O_20
REMARK   12  A    between atoms: C_24  and  O_25
REMARK   13  A    between atoms: C_27  and  O_28
REMARK                            x       y       z     vdW  Elec       q    Type
REMARK                         _______ _______ _______ _____ _____    ______ ____
ROOT
ATOM      1  C   UNL     1      10.276  -1.460  22.972  0.00  0.00    +0.101 C 
ENDROOT
BRANCH   1   2
ATOM      2  C   UNL     1       9.255  -2.542  23.290  0.00  0.00    +0.218 C 
ATOM      3  N   UNL     1       8.104  -2.431  22.533  0.00  0.00    -0.282 N 
ATOM      4  H   UNL     1       7.916  -1.508  22.160  0.00  0.00    +0.155 HD
ATOM      5  O   UNL     1       9.472  -3.453  24.083  0.00  0.00    -0.275 OA
BRANCH   3   6
ATOM      6  C   UNL     1       6.979  -3.284  22.640  0.00  0.00    +0.079 A 
ATOM      7  C   UNL     1       7.167  -4.612  22.251  0.00  0.00    +0.076 A 
ATOM      8  C   UNL     1       6.118  -5.518  22.355  0.00  0.00    +0.160 A 
ATOM      9  C   UNL     1       4.872  -5.154  22.873  0.00  0.00    +0.165 A 
ATOM     10  C   UNL     1       4.680  -3.834  23.275  0.00  0.00    +0.096 A 
ATOM     11  C   UNL     1       5.728  -2.909  23.159  0.00  0.00    +0.142 A 
BRANCH   8  12
ATOM     12  O   UNL     1       6.341  -6.805  21.939  0.00  0.00    -0.503 OA
ATOM     13  H   UNL     1       7.142  -7.089  22.421  0.00  0.00    +0.292 HD
ENDBRANCH   8  12
BRANCH   9  14
ATOM     14  O   UNL     1       3.955  -6.170  22.944  0.00  0.00    -0.491 OA
ATOM     15  C   UNL     1       3.602  -6.617  24.249  0.00  0.00    +0.277 C 
ENDBRANCH   9  14
BRANCH  11  16
ATOM     16  O   UNL     1       5.473  -1.664  23.668  0.00  0.00    -0.505 OA
ATOM     17  H   UNL     1       4.610  -1.713  24.119  0.00  0.00    +0.292 HD
ENDBRANCH  11  16
ENDBRANCH   3   6
ENDBRANCH   1   2
BRANCH   1  18
ATOM     18  C   UNL     1      10.431  -0.457  24.117  0.00  0.00    +0.047 C 
BRANCH  18  25
ATOM     19  C   UNL     1       8.292   0.488  25.200  0.00  0.00    +0.105 A 
ATOM     20  C   UNL     1       7.277   1.463  25.267  0.00  0.00    +0.135 A 
ATOM     21  C   UNL     1       7.252   2.530  24.372  0.00  0.00    +0.093 A 
ATOM     22  C   UNL     1       8.221   2.597  23.380  0.00  0.00    +0.139 A 
ATOM     23  C   UNL     1       9.224   1.623  23.277  0.00  0.00    +0.086 A 
ATOM     24 CL   UNL     1      10.355   1.781  21.971  0.00  0.00    -0.079 Cl
ATOM     25  C   UNL     1       9.295   0.553  24.199  0.00  0.00    -0.008 A 
BRANCH  19  26
ATOM     26  C   UNL     1       8.245  -0.655  26.156  0.00  0.00    +0.343 C 
ATOM     27  O   UNL     1       9.051  -0.791  27.069  0.00  0.00    -0.245 OA
BRANCH  26  29
ATOM     28  C   UNL     1       7.105  -2.657  26.660  0.00  0.00    +0.280 C 
ATOM     29  O   UNL     1       7.193  -1.459  25.883  0.00  0.00    -0.464 OA
ENDBRANCH  26  29
ENDBRANCH  19  26
BRANCH  20  30
ATOM     30  O   UNL     1       6.270   1.369  26.185  0.00  0.00    -0.506 OA
ATOM     31  H   UNL     1       6.631   1.131  27.051  0.00  0.00    +0.292 HD
ENDBRANCH  20  30
BRANCH  22  32
ATOM     32  O   UNL     1       8.134   3.655  22.512  0.00  0.00    -0.505 OA
ATOM     33  H   UNL     1       7.930   4.448  23.043  0.00  0.00    +0.292 HD
ENDBRANCH  22  32
ENDBRANCH  18  25
ENDBRANCH   1  18
TORSDOF 11
ENDMDL
