MODEL 1
REMARK VINA RESULT:      -7.0      0.000      0.000
REMARK  Name = 
REMARK  5 active torsions:
REMARK  status: ('A' for Active; 'I' for Inactive)
REMARK    1  A    between atoms: C_1  and  O_2
REMARK    2  A    between atoms: O_2  and  C_3
REMARK    3  A    between atoms: C_5  and  C_9
REMARK    4  A    between atoms: C_9  and  O_10
REMARK    5  A    between atoms: C_18  and  C_20
REMARK                            x       y       z     vdW  Elec       q    Type
REMARK                         _______ _______ _______ _____ _____    ______ ____
ROOT
ATOM      1  C   UNL     1       7.877  -1.384  25.293  0.00  0.00    +0.133 C 
ATOM      2  C   UNL     1       6.655  -0.838  25.373  0.00  0.00    +0.046 C 
ATOM      3  C   UNL     1       6.204   0.554  25.213  0.00  0.00    +0.039 A 
ATOM      4  C   UNL     1       4.908   0.521  25.768  0.00  0.00    +0.161 A 
ATOM      5  N   UNL     1       4.074   1.564  25.876  0.00  0.00    -0.236 NA
ATOM      6  C   UNL     1       4.545   2.714  25.367  0.00  0.00    +0.114 A 
ATOM      7  C   UNL     1       5.771   2.833  24.717  0.00  0.00    +0.029 A 
ATOM      8  N   UNL     1       4.454  -0.760  26.134  0.00  0.00    -0.235 NA
ATOM      9  C   UNL     1       6.643   1.725  24.585  0.00  0.00    -0.005 A 
ATOM     10  C   UNL     1       5.453  -1.550  25.876  0.00  0.00    +0.125 C 
ENDROOT
BRANCH   9  11
ATOM     11  C   UNL     1       7.840   1.859  23.711  0.00  0.00    -0.012 A 
ATOM     12  C   UNL     1       8.945   2.650  24.074  0.00  0.00    +0.047 A 
ATOM     13  C   UNL     1      10.072   2.757  23.257  0.00  0.00    +0.127 A 
ATOM     14  F   UNL     1      11.052   3.601  23.603  0.00  0.00    -0.205 F 
ATOM     15  C   UNL     1      10.194   2.005  22.104  0.00  0.00    +0.076 A 
ATOM     16  C   UNL     1       9.144   1.175  21.754  0.00  0.00    +0.127 A 
ATOM     17  F   UNL     1       9.255   0.396  20.670  0.00  0.00    -0.205 F 
ATOM     18  C   UNL     1       7.974   1.121  22.517  0.00  0.00    +0.047 A 
ENDBRANCH   9  11
BRANCH   1  23
ATOM     19  C   UNL     1       8.320  -4.981  24.182  0.00  0.00    +0.121 A 
ATOM     20  C   UNL     1       8.622  -5.619  25.382  0.00  0.00    +0.045 A 
ATOM     21  C   UNL     1       8.717  -4.881  26.560  0.00  0.00    +0.004 A 
ATOM     22  C   UNL     1       8.486  -3.503  26.541  0.00  0.00    +0.012 A 
ATOM     23  C   UNL     1       8.187  -2.840  25.341  0.00  0.00    +0.021 A 
ATOM     24  C   UNL     1       8.086  -3.604  24.168  0.00  0.00    +0.057 A 
BRANCH  19  26
ATOM     25  C   UNL     1       7.121  -5.538  22.234  0.00  0.00    +0.277 C 
ATOM     26  O   UNL     1       8.244  -5.788  23.077  0.00  0.00    -0.495 OA
ENDBRANCH  19  26
ENDBRANCH   1  23
BRANCH   1  27
ATOM     27  O   UNL     1       8.990  -0.568  25.202  0.00  0.00    -0.506 OA
ATOM     28  H   UNL     1       9.058  -0.030  26.009  0.00  0.00    +0.292 HD
ENDBRANCH   1  27
TORSDOF 4
ENDMDL
MODEL 2
REMARK VINA RESULT:      -6.9      3.067      6.304
REMARK  Name = 
REMARK  5 active torsions:
REMARK  status: ('A' for Active; 'I' for Inactive)
REMARK    1  A    between atoms: C_1  and  O_2
REMARK    2  A    between atoms: O_2  and  C_3
REMARK    3  A    between atoms: C_5  and  C_9
REMARK    4  A    between atoms: C_9  and  O_10
REMARK    5  A    between atoms: C_18  and  C_20
REMARK                            x       y       z     vdW  Elec       q    Type
REMARK                         _______ _______ _______ _____ _____    ______ ____
ROOT
ATOM      1  C   UNL     1       7.146  -1.043  24.022  0.00  0.00    +0.133 C 
ATOM      2  C   UNL     1       6.170  -1.204  24.926  0.00  0.00    +0.046 C 
ATOM      3  C   UNL     1       5.058  -2.166  24.989  0.00  0.00    +0.039 A 
ATOM      4  C   UNL     1       4.208  -1.588  25.955  0.00  0.00    +0.161 A 
ATOM      5  N   UNL     1       3.032  -2.083  26.364  0.00  0.00    -0.236 NA
ATOM      6  C   UNL     1       2.690  -3.253  25.799  0.00  0.00    +0.114 A 
ATOM      7  C   UNL     1       3.498  -3.952  24.905  0.00  0.00    +0.029 A 
ATOM      8  N   UNL     1       4.728  -0.446  26.592  0.00  0.00    -0.235 NA
ATOM      9  C   UNL     1       4.750  -3.437  24.490  0.00  0.00    -0.005 A 
ATOM     10  C   UNL     1       5.877  -0.243  26.019  0.00  0.00    +0.125 C 
ENDROOT
BRANCH   9  11
ATOM     11  C   UNL     1       5.655  -4.314  23.697  0.00  0.00    -0.012 A 
ATOM     12  C   UNL     1       5.386  -4.648  22.358  0.00  0.00    +0.047 A 
ATOM     13  C   UNL     1       6.248  -5.456  21.615  0.00  0.00    +0.127 A 
ATOM     14  F   UNL     1       5.894  -5.825  20.377  0.00  0.00    -0.205 F 
ATOM     15  C   UNL     1       7.458  -5.877  22.133  0.00  0.00    +0.076 A 
ATOM     16  C   UNL     1       7.773  -5.513  23.430  0.00  0.00    +0.127 A 
ATOM     17  F   UNL     1       8.961  -5.863  23.940  0.00  0.00    -0.205 F 
ATOM     18  C   UNL     1       6.882  -4.776  24.215  0.00  0.00    +0.047 A 
ENDBRANCH   9  11
BRANCH   1  23
ATOM     19  C   UNL     1       9.315   2.035  23.587  0.00  0.00    +0.121 A 
ATOM     20  C   UNL     1      10.500   1.643  24.205  0.00  0.00    +0.045 A 
ATOM     21  C   UNL     1      10.594   0.387  24.799  0.00  0.00    +0.004 A 
ATOM     22  C   UNL     1       9.507  -0.491  24.753  0.00  0.00    +0.012 A 
ATOM     23  C   UNL     1       8.302  -0.113  24.141  0.00  0.00    +0.021 A 
ATOM     24  C   UNL     1       8.232   1.154  23.540  0.00  0.00    +0.057 A 
BRANCH  19  26
ATOM     25  C   UNL     1       9.552   4.349  23.950  0.00  0.00    +0.277 C 
ATOM     26  O   UNL     1       9.316   3.286  23.028  0.00  0.00    -0.495 OA
ENDBRANCH  19  26
ENDBRANCH   1  23
BRANCH   1  27
ATOM     27  O   UNL     1       7.104  -1.747  22.831  0.00  0.00    -0.506 OA
ATOM     28  H   UNL     1       6.270  -1.547  22.372  0.00  0.00    +0.292 HD
ENDBRANCH   1  27
TORSDOF 4
ENDMDL
MODEL 3
REMARK VINA RESULT:      -6.8      3.162      4.317
REMARK  Name = 
REMARK  5 active torsions:
REMARK  status: ('A' for Active; 'I' for Inactive)
REMARK    1  A    between atoms: C_1  and  O_2
REMARK    2  A    between atoms: O_2  and  C_3
REMARK    3  A    between atoms: C_5  and  C_9
REMARK    4  A    between atoms: C_9  and  O_10
REMARK    5  A    between atoms: C_18  and  C_20
REMARK                            x       y       z     vdW  Elec       q    Type
REMARK                         _______ _______ _______ _____ _____    ______ ____
ROOT
ATOM      1  C   UNL     1       7.486  -0.821  23.426  0.00  0.00    +0.133 C 
ATOM      2  C   UNL     1       8.549  -0.073  23.754  0.00  0.00    +0.046 C 
ATOM      3  C   UNL     1       8.785   1.376  23.645  0.00  0.00    +0.039 A 
ATOM      4  C   UNL     1      10.182   1.471  23.805  0.00  0.00    +0.161 A 
ATOM      5  N   UNL     1      10.902   2.601  23.768  0.00  0.00    -0.236 NA
ATOM      6  C   UNL     1      10.180   3.719  23.594  0.00  0.00    +0.114 A 
ATOM      7  C   UNL     1       8.789   3.744  23.518  0.00  0.00    +0.029 A 
ATOM      8  N   UNL     1      10.824   0.262  24.131  0.00  0.00    -0.235 NA
ATOM      9  C   UNL     1       8.029   2.552  23.578  0.00  0.00    -0.005 A 
ATOM     10  C   UNL     1       9.874  -0.626  24.132  0.00  0.00    +0.125 C 
ENDROOT
BRANCH   9  11
ATOM     11  C   UNL     1       6.548   2.654  23.694  0.00  0.00    -0.012 A 
ATOM     12  C   UNL     1       5.873   2.384  24.897  0.00  0.00    +0.047 A 
ATOM     13  C   UNL     1       4.486   2.499  25.003  0.00  0.00    +0.127 A 
ATOM     14  F   UNL     1       3.885   2.133  26.144  0.00  0.00    -0.205 F 
ATOM     15  C   UNL     1       3.726   2.986  23.958  0.00  0.00    +0.076 A 
ATOM     16  C   UNL     1       4.374   3.313  22.780  0.00  0.00    +0.127 A 
ATOM     17  F   UNL     1       3.671   3.836  21.766  0.00  0.00    -0.205 F 
ATOM     18  C   UNL     1       5.751   3.124  22.630  0.00  0.00    +0.047 A 
ENDBRANCH   9  11
BRANCH   1  23
ATOM     19  C   UNL     1       7.255  -4.567  22.890  0.00  0.00    +0.121 A 
ATOM     20  C   UNL     1       6.873  -5.015  24.152  0.00  0.00    +0.045 A 
ATOM     21  C   UNL     1       6.719  -4.108  25.198  0.00  0.00    +0.004 A 
ATOM     22  C   UNL     1       6.925  -2.744  24.976  0.00  0.00    +0.012 A 
ATOM     23  C   UNL     1       7.317  -2.272  23.713  0.00  0.00    +0.021 A 
ATOM     24  C   UNL     1       7.456  -3.201  22.671  0.00  0.00    +0.057 A 
BRANCH  19  26
ATOM     25  C   UNL     1       6.223  -5.702  21.106  0.00  0.00    +0.277 C 
ATOM     26  O   UNL     1       7.378  -5.529  21.924  0.00  0.00    -0.495 OA
ENDBRANCH  19  26
ENDBRANCH   1  23
BRANCH   1  27
ATOM     27  O   UNL     1       6.441  -0.257  22.717  0.00  0.00    -0.506 OA
ATOM     28  H   UNL     1       5.669  -0.169  23.302  0.00  0.00    +0.292 HD
ENDBRANCH   1  27
TORSDOF 4
ENDMDL
MODEL 4
REMARK VINA RESULT:      -6.7      1.143      1.743
REMARK  Name = 
REMARK  5 active torsions:
REMARK  status: ('A' for Active; 'I' for Inactive)
REMARK    1  A    between atoms: C_1  and  O_2
REMARK    2  A    between atoms: O_2  and  C_3
REMARK    3  A    between atoms: C_5  and  C_9
REMARK    4  A    between atoms: C_9  and  O_10
REMARK    5  A    between atoms: C_18  and  C_20
REMARK                            x       y       z     vdW  Elec       q    Type
REMARK                         _______ _______ _______ _____ _____    ______ ____
ROOT
ATOM      1  C   UNL     1       7.638  -1.398  25.310  0.00  0.00    +0.133 C 
ATOM      2  C   UNL     1       6.458  -0.765  25.377  0.00  0.00    +0.046 C 
ATOM      3  C   UNL     1       6.110   0.655  25.209  0.00  0.00    +0.039 A 
ATOM      4  C   UNL     1       4.810   0.717  25.752  0.00  0.00    +0.161 A 
ATOM      5  N   UNL     1       4.051   1.817  25.850  0.00  0.00    -0.236 NA
ATOM      6  C   UNL     1       4.608   2.929  25.342  0.00  0.00    +0.114 A 
ATOM      7  C   UNL     1       5.846   2.957  24.704  0.00  0.00    +0.029 A 
ATOM      8  N   UNL     1       4.261  -0.527  26.117  0.00  0.00    -0.235 NA
ATOM      9  C   UNL     1       6.637   1.790  24.582  0.00  0.00    -0.005 A 
ATOM     10  C   UNL     1       5.204  -1.388  25.870  0.00  0.00    +0.125 C 
ENDROOT
BRANCH   9  11
ATOM     11  C   UNL     1       7.849   1.835  23.719  0.00  0.00    -0.012 A 
ATOM     12  C   UNL     1       9.015   2.521  24.104  0.00  0.00    +0.047 A 
ATOM     13  C   UNL     1      10.153   2.545  23.297  0.00  0.00    +0.127 A 
ATOM     14  F   UNL     1      11.200   3.295  23.666  0.00  0.00    -0.205 F 
ATOM     15  C   UNL     1      10.220   1.805  22.132  0.00  0.00    +0.076 A 
ATOM     16  C   UNL     1       9.106   1.075  21.760  0.00  0.00    +0.127 A 
ATOM     17  F   UNL     1       9.159   0.308  20.663  0.00  0.00    -0.205 F 
ATOM     18  C   UNL     1       7.928   1.109  22.513  0.00  0.00    +0.047 A 
ENDBRANCH   9  11
BRANCH   1  23
ATOM     19  C   UNL     1       7.814  -4.934  26.664  0.00  0.00    +0.121 A 
ATOM     20  C   UNL     1       8.341  -5.632  25.580  0.00  0.00    +0.045 A 
ATOM     21  C   UNL     1       8.614  -4.966  24.387  0.00  0.00    +0.004 A 
ATOM     22  C   UNL     1       8.380  -3.592  24.285  0.00  0.00    +0.012 A 
ATOM     23  C   UNL     1       7.843  -2.871  25.363  0.00  0.00    +0.021 A 
ATOM     24  C   UNL     1       7.586  -3.560  26.559  0.00  0.00    +0.057 A 
BRANCH  19  26
ATOM     25  C   UNL     1       6.208  -5.778  28.162  0.00  0.00    +0.277 C 
ATOM     26  O   UNL     1       7.582  -5.670  27.795  0.00  0.00    -0.495 OA
ENDBRANCH  19  26
ENDBRANCH   1  23
BRANCH   1  27
ATOM     27  O   UNL     1       8.808  -0.664  25.227  0.00  0.00    -0.506 OA
ATOM     28  H   UNL     1       8.668   0.093  24.631  0.00  0.00    +0.292 HD
ENDBRANCH   1  27
TORSDOF 4
ENDMDL
MODEL 5
REMARK VINA RESULT:      -6.7      3.197      4.468
REMARK  Name = 
REMARK  5 active torsions:
REMARK  status: ('A' for Active; 'I' for Inactive)
REMARK    1  A    between atoms: C_1  and  O_2
REMARK    2  A    between atoms: O_2  and  C_3
REMARK    3  A    between atoms: C_5  and  C_9
REMARK    4  A    between atoms: C_9  and  O_10
REMARK    5  A    between atoms: C_18  and  C_20
REMARK                            x       y       z     vdW  Elec       q    Type
REMARK                         _______ _______ _______ _____ _____    ______ ____
ROOT
ATOM      1  C   UNL     1       7.467  -0.635  23.342  0.00  0.00    +0.133 C 
ATOM      2  C   UNL     1       8.547   0.085  23.679  0.00  0.00    +0.046 C 
ATOM      3  C   UNL     1       8.808   1.532  23.607  0.00  0.00    +0.039 A 
ATOM      4  C   UNL     1      10.208   1.598  23.755  0.00  0.00    +0.161 A 
ATOM      5  N   UNL     1      10.948   2.715  23.740  0.00  0.00    -0.236 NA
ATOM      6  C   UNL     1      10.244   3.851  23.603  0.00  0.00    +0.114 A 
ATOM      7  C   UNL     1       8.853   3.902  23.541  0.00  0.00    +0.029 A 
ATOM      8  N   UNL     1      10.831   0.369  24.042  0.00  0.00    -0.235 NA
ATOM      9  C   UNL     1       8.072   2.723  23.578  0.00  0.00    -0.005 A 
ATOM     10  C   UNL     1       9.865  -0.501  24.030  0.00  0.00    +0.125 C 
ENDROOT
BRANCH   9  11
ATOM     11  C   UNL     1       6.595   2.848  23.711  0.00  0.00    -0.012 A 
ATOM     12  C   UNL     1       5.779   3.246  22.637  0.00  0.00    +0.047 A 
ATOM     13  C   UNL     1       4.393   3.344  22.765  0.00  0.00    +0.127 A 
ATOM     14  F   UNL     1       3.675   3.824  21.741  0.00  0.00    -0.205 F 
ATOM     15  C   UNL     1       3.752   2.953  23.924  0.00  0.00    +0.076 A 
ATOM     16  C   UNL     1       4.527   2.503  24.977  0.00  0.00    +0.127 A 
ATOM     17  F   UNL     1       3.931   2.068  26.095  0.00  0.00    -0.205 F 
ATOM     18  C   UNL     1       5.923   2.479  24.894  0.00  0.00    +0.047 A 
ENDBRANCH   9  11
BRANCH   1  23
ATOM     19  C   UNL     1       7.221  -4.366  22.721  0.00  0.00    +0.121 A 
ATOM     20  C   UNL     1       6.791  -4.837  23.959  0.00  0.00    +0.045 A 
ATOM     21  C   UNL     1       6.608  -3.950  25.017  0.00  0.00    +0.004 A 
ATOM     22  C   UNL     1       6.834  -2.583  24.831  0.00  0.00    +0.012 A 
ATOM     23  C   UNL     1       7.275  -2.090  23.593  0.00  0.00    +0.021 A 
ATOM     24  C   UNL     1       7.442  -2.999  22.537  0.00  0.00    +0.057 A 
BRANCH  19  26
ATOM     25  C   UNL     1       6.147  -5.757  21.155  0.00  0.00    +0.277 C 
ATOM     26  O   UNL     1       7.369  -5.310  21.739  0.00  0.00    -0.495 OA
ENDBRANCH  19  26
ENDBRANCH   1  23
BRANCH   1  27
ATOM     27  O   UNL     1       6.426  -0.033  22.659  0.00  0.00    -0.506 OA
ATOM     28  H   UNL     1       6.431  -0.341  21.736  0.00  0.00    +0.292 HD
ENDBRANCH   1  27
TORSDOF 4
ENDMDL
MODEL 6
REMARK VINA RESULT:      -6.6      0.792      1.753
REMARK  Name = 
REMARK  5 active torsions:
REMARK  status: ('A' for Active; 'I' for Inactive)
REMARK    1  A    between atoms: C_1  and  O_2
REMARK    2  A    between atoms: O_2  and  C_3
REMARK    3  A    between atoms: C_5  and  C_9
REMARK    4  A    between atoms: C_9  and  O_10
REMARK    5  A    between atoms: C_18  and  C_20
REMARK                            x       y       z     vdW  Elec       q    Type
REMARK                         _______ _______ _______ _____ _____    ______ ____
ROOT
ATOM      1  C   UNL     1       7.421  -1.243  25.434  0.00  0.00    +0.133 C 
ATOM      2  C   UNL     1       6.340  -0.457  25.530  0.00  0.00    +0.046 C 
ATOM      3  C   UNL     1       6.185   1.000  25.382  0.00  0.00    +0.039 A 
ATOM      4  C   UNL     1       4.916   1.232  25.951  0.00  0.00    +0.161 A 
ATOM      5  N   UNL     1       4.316   2.424  26.074  0.00  0.00    -0.236 NA
ATOM      6  C   UNL     1       5.010   3.455  25.565  0.00  0.00    +0.114 A 
ATOM      7  C   UNL     1       6.228   3.322  24.902  0.00  0.00    +0.029 A 
ATOM      8  N   UNL     1       4.210   0.070  26.316  0.00  0.00    -0.235 NA
ATOM      9  C   UNL     1       6.850   2.060  24.755  0.00  0.00    -0.005 A 
ATOM     10  C   UNL     1       5.022  -0.908  26.043  0.00  0.00    +0.125 C 
ENDROOT
BRANCH   9  11
ATOM     11  C   UNL     1       8.041   1.950  23.868  0.00  0.00    -0.012 A 
ATOM     12  C   UNL     1       7.991   1.287  22.629  0.00  0.00    +0.047 A 
ATOM     13  C   UNL     1       9.107   1.203  21.796  0.00  0.00    +0.127 A 
ATOM     14  F   UNL     1       9.031   0.474  20.674  0.00  0.00    -0.205 F 
ATOM     15  C   UNL     1      10.282   1.859  22.105  0.00  0.00    +0.076 A 
ATOM     16  C   UNL     1      10.340   2.567  23.292  0.00  0.00    +0.127 A 
ATOM     17  F   UNL     1      11.448   3.256  23.594  0.00  0.00    -0.205 F 
ATOM     18  C   UNL     1       9.258   2.590  24.178  0.00  0.00    +0.047 A 
ENDBRANCH   9  11
BRANCH   1  23
ATOM     19  C   UNL     1       6.857  -4.844  24.394  0.00  0.00    +0.121 A 
ATOM     20  C   UNL     1       7.270  -5.540  25.527  0.00  0.00    +0.045 A 
ATOM     21  C   UNL     1       7.767  -4.847  26.628  0.00  0.00    +0.004 A 
ATOM     22  C   UNL     1       7.830  -3.451  26.606  0.00  0.00    +0.012 A 
ATOM     23  C   UNL     1       7.425  -2.731  25.471  0.00  0.00    +0.021 A 
ATOM     24  C   UNL     1       6.917  -3.448  24.376  0.00  0.00    +0.057 A 
BRANCH  19  26
ATOM     25  C   UNL     1       7.290  -5.776  22.276  0.00  0.00    +0.277 C 
ATOM     26  O   UNL     1       6.380  -5.608  23.362  0.00  0.00    -0.495 OA
ENDBRANCH  19  26
ENDBRANCH   1  23
BRANCH   1  27
ATOM     27  O   UNL     1       8.678  -0.674  25.335  0.00  0.00    -0.506 OA
ATOM     28  H   UNL     1       9.337  -1.288  25.703  0.00  0.00    +0.292 HD
ENDBRANCH   1  27
TORSDOF 4
ENDMDL
MODEL 7
REMARK VINA RESULT:      -6.5      3.231      4.561
REMARK  Name = 
REMARK  5 active torsions:
REMARK  status: ('A' for Active; 'I' for Inactive)
REMARK    1  A    between atoms: C_1  and  O_2
REMARK    2  A    between atoms: O_2  and  C_3
REMARK    3  A    between atoms: C_5  and  C_9
REMARK    4  A    between atoms: C_9  and  O_10
REMARK    5  A    between atoms: C_18  and  C_20
REMARK                            x       y       z     vdW  Elec       q    Type
REMARK                         _______ _______ _______ _____ _____    ______ ____
ROOT
ATOM      1  C   UNL     1       7.538  -0.741  23.340  0.00  0.00    +0.133 C 
ATOM      2  C   UNL     1       8.597   0.007  23.679  0.00  0.00    +0.046 C 
ATOM      3  C   UNL     1       8.823   1.460  23.596  0.00  0.00    +0.039 A 
ATOM      4  C   UNL     1      10.220   1.562  23.753  0.00  0.00    +0.161 A 
ATOM      5  N   UNL     1      10.932   2.697  23.735  0.00  0.00    -0.236 NA
ATOM      6  C   UNL     1      10.202   3.813  23.583  0.00  0.00    +0.114 A 
ATOM      7  C   UNL     1       8.811   3.830  23.510  0.00  0.00    +0.029 A 
ATOM      8  N   UNL     1      10.871   0.351  24.056  0.00  0.00    -0.235 NA
ATOM      9  C   UNL     1       8.059   2.632  23.551  0.00  0.00    -0.005 A 
ATOM     10  C   UNL     1       9.926  -0.543  24.044  0.00  0.00    +0.125 C 
ENDROOT
BRANCH   9  11
ATOM     11  C   UNL     1       6.578   2.722  23.673  0.00  0.00    -0.012 A 
ATOM     12  C   UNL     1       5.909   2.447  24.879  0.00  0.00    +0.047 A 
ATOM     13  C   UNL     1       4.522   2.550  24.990  0.00  0.00    +0.127 A 
ATOM     14  F   UNL     1       3.929   2.180  26.133  0.00  0.00    -0.205 F 
ATOM     15  C   UNL     1       3.754   3.030  23.947  0.00  0.00    +0.076 A 
ATOM     16  C   UNL     1       4.395   3.363  22.767  0.00  0.00    +0.127 A 
ATOM     17  F   UNL     1       3.684   3.880  21.756  0.00  0.00    -0.205 F 
ATOM     18  C   UNL     1       5.773   3.185  22.612  0.00  0.00    +0.047 A 
ENDBRANCH   9  11
BRANCH   1  23
ATOM     19  C   UNL     1       6.909  -3.992  25.186  0.00  0.00    +0.121 A 
ATOM     20  C   UNL     1       7.198  -4.940  24.207  0.00  0.00    +0.045 A 
ATOM     21  C   UNL     1       7.568  -4.531  22.928  0.00  0.00    +0.004 A 
ATOM     22  C   UNL     1       7.673  -3.169  22.633  0.00  0.00    +0.012 A 
ATOM     23  C   UNL     1       7.379  -2.198  23.602  0.00  0.00    +0.021 A 
ATOM     24  C   UNL     1       7.019  -2.632  24.888  0.00  0.00    +0.057 A 
BRANCH  19  26
ATOM     25  C   UNL     1       7.567  -5.267  27.052  0.00  0.00    +0.277 C 
ATOM     26  O   UNL     1       6.558  -4.487  26.414  0.00  0.00    -0.495 OA
ENDBRANCH  19  26
ENDBRANCH   1  23
BRANCH   1  27
ATOM     27  O   UNL     1       6.487  -0.171  22.644  0.00  0.00    -0.506 OA
ATOM     28  H   UNL     1       6.810   0.611  22.164  0.00  0.00    +0.292 HD
ENDBRANCH   1  27
TORSDOF 4
ENDMDL
MODEL 8
REMARK VINA RESULT:      -6.5      2.934      6.248
REMARK  Name = 
REMARK  5 active torsions:
REMARK  status: ('A' for Active; 'I' for Inactive)
REMARK    1  A    between atoms: C_1  and  O_2
REMARK    2  A    between atoms: O_2  and  C_3
REMARK    3  A    between atoms: C_5  and  C_9
REMARK    4  A    between atoms: C_9  and  O_10
REMARK    5  A    between atoms: C_18  and  C_20
REMARK                            x       y       z     vdW  Elec       q    Type
REMARK                         _______ _______ _______ _____ _____    ______ ____
ROOT
ATOM      1  C   UNL     1       6.378  -0.634  23.667  0.00  0.00    +0.133 C 
ATOM      2  C   UNL     1       5.738  -0.805  24.832  0.00  0.00    +0.046 C 
ATOM      3  C   UNL     1       4.966  -1.944  25.355  0.00  0.00    +0.039 A 
ATOM      4  C   UNL     1       4.268  -1.369  26.437  0.00  0.00    +0.161 A 
ATOM      5  N   UNL     1       3.403  -2.004  27.240  0.00  0.00    -0.236 NA
ATOM      6  C   UNL     1       3.245  -3.310  26.971  0.00  0.00    +0.114 A 
ATOM      7  C   UNL     1       3.954  -3.994  25.986  0.00  0.00    +0.029 A 
ATOM      8  N   UNL     1       4.618  -0.037  26.725  0.00  0.00    -0.235 NA
ATOM      9  C   UNL     1       4.883  -3.326  25.153  0.00  0.00    -0.005 A 
ATOM     10  C   UNL     1       5.492   0.279  25.816  0.00  0.00    +0.125 C 
ENDROOT
BRANCH   9  11
ATOM     11  C   UNL     1       5.753  -4.139  24.260  0.00  0.00    -0.012 A 
ATOM     12  C   UNL     1       7.068  -4.489  24.615  0.00  0.00    +0.047 A 
ATOM     13  C   UNL     1       7.872  -5.266  23.779  0.00  0.00    +0.127 A 
ATOM     14  F   UNL     1       9.149  -5.486  24.121  0.00  0.00    -0.205 F 
ATOM     15  C   UNL     1       7.374  -5.813  22.613  0.00  0.00    +0.076 A 
ATOM     16  C   UNL     1       6.064  -5.531  22.269  0.00  0.00    +0.127 A 
ATOM     17  F   UNL     1       5.538  -6.089  21.171  0.00  0.00    -0.205 F 
ATOM     18  C   UNL     1       5.273  -4.685  23.052  0.00  0.00    +0.047 A 
ENDBRANCH   9  11
BRANCH   1  23
ATOM     19  C   UNL     1       9.341   1.730  23.615  0.00  0.00    +0.121 A 
ATOM     20  C   UNL     1       8.882   2.751  22.786  0.00  0.00    +0.045 A 
ATOM     21  C   UNL     1       7.617   2.664  22.209  0.00  0.00    +0.004 A 
ATOM     22  C   UNL     1       6.798   1.564  22.481  0.00  0.00    +0.012 A 
ATOM     23  C   UNL     1       7.245   0.522  23.308  0.00  0.00    +0.021 A 
ATOM     24  C   UNL     1       8.518   0.634  23.888  0.00  0.00    +0.057 A 
BRANCH  19  26
ATOM     25  C   UNL     1      11.211   0.706  24.614  0.00  0.00    +0.277 C 
ATOM     26  O   UNL     1      10.595   1.902  24.140  0.00  0.00    -0.495 OA
ENDBRANCH  19  26
ENDBRANCH   1  23
BRANCH   1  27
ATOM     27  O   UNL     1       6.221  -1.562  22.653  0.00  0.00    -0.506 OA
ATOM     28  H   UNL     1       5.477  -2.150  22.872  0.00  0.00    +0.292 HD
ENDBRANCH   1  27
TORSDOF 4
ENDMDL
MODEL 9
REMARK VINA RESULT:      -6.5      3.351      4.718
REMARK  Name = 
REMARK  5 active torsions:
REMARK  status: ('A' for Active; 'I' for Inactive)
REMARK    1  A    between atoms: C_1  and  O_2
REMARK    2  A    between atoms: O_2  and  C_3
REMARK    3  A    between atoms: C_5  and  C_9
REMARK    4  A    between atoms: C_9  and  O_10
REMARK    5  A    between atoms: C_18  and  C_20
REMARK                            x       y       z     vdW  Elec       q    Type
REMARK                         _______ _______ _______ _____ _____    ______ ____
ROOT
ATOM      1  C   UNL     1       6.288  -1.793  23.884  0.00  0.00    +0.133 C 
ATOM      2  C   UNL     1       7.431  -1.419  23.292  0.00  0.00    +0.046 C 
ATOM      3  C   UNL     1       8.053  -0.094  23.139  0.00  0.00    +0.039 A 
ATOM      4  C   UNL     1       9.016  -0.323  22.135  0.00  0.00    +0.161 A 
ATOM      5  N   UNL     1       9.847   0.593  21.619  0.00  0.00    -0.236 NA
ATOM      6  C   UNL     1       9.739   1.816  22.163  0.00  0.00    +0.114 A 
ATOM      7  C   UNL     1       8.886   2.126  23.220  0.00  0.00    +0.029 A 
ATOM      8  N   UNL     1       9.152  -1.668  21.741  0.00  0.00    -0.235 NA
ATOM      9  C   UNL     1       8.024   1.151  23.777  0.00  0.00    -0.005 A 
ATOM     10  C   UNL     1       8.256  -2.306  22.434  0.00  0.00    +0.125 C 
ENDROOT
BRANCH   9  11
ATOM     11  C   UNL     1       7.287   1.481  25.027  0.00  0.00    -0.012 A 
ATOM     12  C   UNL     1       7.631   0.917  26.269  0.00  0.00    +0.047 A 
ATOM     13  C   UNL     1       6.946   1.245  27.440  0.00  0.00    +0.127 A 
ATOM     14  F   UNL     1       7.251   0.603  28.576  0.00  0.00    -0.205 F 
ATOM     15  C   UNL     1       5.967   2.219  27.448  0.00  0.00    +0.076 A 
ATOM     16  C   UNL     1       5.648   2.831  26.249  0.00  0.00    +0.127 A 
ATOM     17  F   UNL     1       4.740   3.815  26.234  0.00  0.00    -0.205 F 
ATOM     18  C   UNL     1       6.266   2.454  25.053  0.00  0.00    +0.047 A 
ENDBRANCH   9  11
BRANCH   1  23
ATOM     19  C   UNL     1       6.014  -5.283  25.340  0.00  0.00    +0.121 A 
ATOM     20  C   UNL     1       5.120  -5.892  24.463  0.00  0.00    +0.045 A 
ATOM     21  C   UNL     1       4.572  -5.164  23.409  0.00  0.00    +0.004 A 
ATOM     22  C   UNL     1       4.937  -3.829  23.217  0.00  0.00    +0.012 A 
ATOM     23  C   UNL     1       5.831  -3.195  24.093  0.00  0.00    +0.021 A 
ATOM     24  C   UNL     1       6.380  -3.949  25.142  0.00  0.00    +0.057 A 
BRANCH  19  26
ATOM     25  C   UNL     1       6.641  -5.423  27.604  0.00  0.00    +0.277 C 
ATOM     26  O   UNL     1       6.503  -6.076  26.343  0.00  0.00    -0.495 OA
ENDBRANCH  19  26
ENDBRANCH   1  23
BRANCH   1  27
ATOM     27  O   UNL     1       5.393  -0.833  24.321  0.00  0.00    -0.506 OA
ATOM     28  H   UNL     1       5.884  -0.034  24.581  0.00  0.00    +0.292 HD
ENDBRANCH   1  27
TORSDOF 4
ENDMDL
