MODEL 1
REMARK VINA RESULT:      -5.0      0.000      0.000
REMARK  Name = 
REMARK  4 active torsions:
REMARK  status: ('A' for Active; 'I' for Inactive)
REMARK    1  A    between atoms: O_1  and  N_2
REMARK    2  A    between atoms: C_6  and  O_8
REMARK    3  A    between atoms: C_9  and  O_11
REMARK    4  A    between atoms: C_12  and  O_14
REMARK                            x       y       z     vdW  Elec       q    Type
REMARK                         _______ _______ _______ _____ _____    ______ ____
ROOT
ATOM      1  N   UNL     1       9.908  -2.481  22.885  0.00  0.00    +0.149 NA
ATOM      2  C   UNL     1       9.682  -1.239  23.216  0.00  0.00    +0.364 C 
ATOM      3  C   UNL     1       9.280  -0.238  22.116  0.00  0.00    +0.265 C 
ATOM      4  C   UNL     1      10.156   1.013  22.271  0.00  0.00    +0.187 C 
ATOM      5  C   UNL     1      10.127   1.551  23.713  0.00  0.00    +0.185 C 
ATOM      6  C   UNL     1      10.525   0.474  24.727  0.00  0.00    +0.257 C 
ATOM      7  N   UNL     1       9.807  -0.765  24.505  0.00  0.00    -0.229 N 
ATOM      8  H   UNL     1      10.111  -1.525  25.113  0.00  0.00    +0.291 HD
ENDROOT
BRANCH   1   9
ATOM      9  O   UNL     1      10.303  -3.221  24.010  0.00  0.00    -0.311 OA
ATOM     10  H   UNL     1      10.695  -2.532  24.579  0.00  0.00    +0.361 HD
ENDBRANCH   1   9
BRANCH   3  11
ATOM     11  O   UNL     1       9.421  -0.782  20.806  0.00  0.00    -0.378 OA
ATOM     12  H   UNL     1       8.628  -0.512  20.308  0.00  0.00    +0.211 HD
ENDBRANCH   3  11
BRANCH   4  13
ATOM     13  O   UNL     1       9.707   2.062  21.393  0.00  0.00    -0.386 OA
ATOM     14  H   UNL     1       8.939   1.710  20.905  0.00  0.00    +0.210 HD
ENDBRANCH   4  13
BRANCH   5  15
ATOM     15  O   UNL     1      11.011   2.681  23.802  0.00  0.00    -0.385 OA
ATOM     16  H   UNL     1      10.531   3.414  24.228  0.00  0.00    +0.210 HD
ENDBRANCH   5  15
TORSDOF 4
ENDMDL
MODEL 2
REMARK VINA RESULT:      -4.8      1.237      2.600
REMARK  Name = 
REMARK  4 active torsions:
REMARK  status: ('A' for Active; 'I' for Inactive)
REMARK    1  A    between atoms: O_1  and  N_2
REMARK    2  A    between atoms: C_6  and  O_8
REMARK    3  A    between atoms: C_9  and  O_11
REMARK    4  A    between atoms: C_12  and  O_14
REMARK                            x       y       z     vdW  Elec       q    Type
REMARK                         _______ _______ _______ _____ _____    ______ ____
ROOT
ATOM      1  N   UNL     1       9.779  -2.091  24.410  0.00  0.00    +0.149 NA
ATOM      2  C   UNL     1      10.120  -1.117  23.611  0.00  0.00    +0.364 C 
ATOM      3  C   UNL     1      10.528   0.238  24.221  0.00  0.00    +0.265 C 
ATOM      4  C   UNL     1       9.761   1.342  23.480  0.00  0.00    +0.187 C 
ATOM      5  C   UNL     1       9.919   1.217  21.954  0.00  0.00    +0.185 C 
ATOM      6  C   UNL     1       9.504  -0.170  21.453  0.00  0.00    +0.257 C 
ATOM      7  N   UNL     1      10.111  -1.228  22.236  0.00  0.00    -0.229 N 
ATOM      8  H   UNL     1       9.788  -2.160  21.978  0.00  0.00    +0.291 HD
ENDROOT
BRANCH   1   9
ATOM      9  O   UNL     1       9.399  -3.220  23.668  0.00  0.00    -0.311 OA
ATOM     10  H   UNL     1      10.262  -3.613  23.439  0.00  0.00    +0.361 HD
ENDBRANCH   1   9
BRANCH   3  11
ATOM     11  O   UNL     1      10.265   0.305  25.621  0.00  0.00    -0.378 OA
ATOM     12  H   UNL     1       9.706   1.091  25.758  0.00  0.00    +0.211 HD
ENDBRANCH   3  11
BRANCH   4  13
ATOM     13  O   UNL     1      10.233   2.643  23.875  0.00  0.00    -0.386 OA
ATOM     14  H   UNL     1       9.511   3.272  23.687  0.00  0.00    +0.210 HD
ENDBRANCH   4  13
BRANCH   5  15
ATOM     15  O   UNL     1       9.131   2.240  21.323  0.00  0.00    -0.385 OA
ATOM     16  H   UNL     1       8.508   2.598  21.981  0.00  0.00    +0.210 HD
ENDBRANCH   5  15
TORSDOF 4
ENDMDL
MODEL 3
REMARK VINA RESULT:      -4.7      1.770      3.687
REMARK  Name = 
REMARK  4 active torsions:
REMARK  status: ('A' for Active; 'I' for Inactive)
REMARK    1  A    between atoms: O_1  and  N_2
REMARK    2  A    between atoms: C_6  and  O_8
REMARK    3  A    between atoms: C_9  and  O_11
REMARK    4  A    between atoms: C_12  and  O_14
REMARK                            x       y       z     vdW  Elec       q    Type
REMARK                         _______ _______ _______ _____ _____    ______ ____
ROOT
ATOM      1  N   UNL     1       8.994   3.109  23.644  0.00  0.00    +0.149 NA
ATOM      2  C   UNL     1       9.666   1.991  23.633  0.00  0.00    +0.364 C 
ATOM      3  C   UNL     1       9.951   1.308  22.281  0.00  0.00    +0.265 C 
ATOM      4  C   UNL     1       9.577  -0.175  22.412  0.00  0.00    +0.187 C 
ATOM      5  C   UNL     1      10.238  -0.821  23.644  0.00  0.00    +0.185 C 
ATOM      6  C   UNL     1       9.907  -0.056  24.930  0.00  0.00    +0.257 C 
ATOM      7  N   UNL     1      10.120   1.369  24.778  0.00  0.00    -0.229 N 
ATOM      8  H   UNL     1       9.830   1.912  25.590  0.00  0.00    +0.291 HD
ENDROOT
BRANCH   1   9
ATOM      9  O   UNL     1       8.800   3.548  24.963  0.00  0.00    -0.311 OA
ATOM     10  H   UNL     1       9.406   4.311  25.015  0.00  0.00    +0.361 HD
ENDBRANCH   1   9
BRANCH   3  11
ATOM     11  O   UNL     1       9.231   1.907  21.207  0.00  0.00    -0.378 OA
ATOM     12  H   UNL     1       9.309   2.871  21.326  0.00  0.00    +0.211 HD
ENDBRANCH   3  11
BRANCH   4  13
ATOM     13  O   UNL     1       9.991  -0.910  21.245  0.00  0.00    -0.386 OA
ATOM     14  H   UNL     1       9.760  -1.844  21.406  0.00  0.00    +0.210 HD
ENDBRANCH   4  13
BRANCH   5  15
ATOM     15  O   UNL     1       9.801  -2.187  23.740  0.00  0.00    -0.385 OA
ATOM     16  H   UNL     1       8.826  -2.196  23.762  0.00  0.00    +0.210 HD
ENDBRANCH   5  15
TORSDOF 4
ENDMDL
MODEL 4
REMARK VINA RESULT:      -4.4      2.816      3.463
REMARK  Name = 
REMARK  4 active torsions:
REMARK  status: ('A' for Active; 'I' for Inactive)
REMARK    1  A    between atoms: O_1  and  N_2
REMARK    2  A    between atoms: C_6  and  O_8
REMARK    3  A    between atoms: C_9  and  O_11
REMARK    4  A    between atoms: C_12  and  O_14
REMARK                            x       y       z     vdW  Elec       q    Type
REMARK                         _______ _______ _______ _____ _____    ______ ____
ROOT
ATOM      1  N   UNL     1       6.283  -0.890  24.179  0.00  0.00    +0.149 NA
ATOM      2  C   UNL     1       6.861  -0.367  23.132  0.00  0.00    +0.364 C 
ATOM      3  C   UNL     1       7.998  -1.147  22.443  0.00  0.00    +0.265 C 
ATOM      4  C   UNL     1       9.173  -0.182  22.230  0.00  0.00    +0.187 C 
ATOM      5  C   UNL     1       8.725   1.113  21.529  0.00  0.00    +0.185 C 
ATOM      6  C   UNL     1       7.582   1.799  22.284  0.00  0.00    +0.257 C 
ATOM      7  N   UNL     1       6.523   0.868  22.619  0.00  0.00    -0.229 N 
ATOM      8  H   UNL     1       5.788   1.279  23.193  0.00  0.00    +0.291 HD
ENDROOT
BRANCH   1   9
ATOM      9  O   UNL     1       5.312  -0.014  24.688  0.00  0.00    -0.311 OA
ATOM     10  H   UNL     1       5.393  -0.156  25.650  0.00  0.00    +0.361 HD
ENDBRANCH   1   9
BRANCH   3  11
ATOM     11  O   UNL     1       8.417  -2.280  23.200  0.00  0.00    -0.378 OA
ATOM     12  H   UNL     1       7.627  -2.836  23.324  0.00  0.00    +0.211 HD
ENDBRANCH   3  11
BRANCH   4  13
ATOM     13  O   UNL     1      10.197  -0.796  21.426  0.00  0.00    -0.386 OA
ATOM     14  H   UNL     1      10.949  -0.176  21.408  0.00  0.00    +0.210 HD
ENDBRANCH   4  13
BRANCH   5  15
ATOM     15  O   UNL     1       9.856   1.992  21.416  0.00  0.00    -0.385 OA
ATOM     16  H   UNL     1       9.944   2.488  22.250  0.00  0.00    +0.210 HD
ENDBRANCH   5  15
TORSDOF 4
ENDMDL
MODEL 5
REMARK VINA RESULT:      -4.4      6.586      8.182
REMARK  Name = 
REMARK  4 active torsions:
REMARK  status: ('A' for Active; 'I' for Inactive)
REMARK    1  A    between atoms: O_1  and  N_2
REMARK    2  A    between atoms: C_6  and  O_8
REMARK    3  A    between atoms: C_9  and  O_11
REMARK    4  A    between atoms: C_12  and  O_14
REMARK                            x       y       z     vdW  Elec       q    Type
REMARK                         _______ _______ _______ _____ _____    ______ ____
ROOT
ATOM      1  N   UNL     1       7.335  -5.861  26.888  0.00  0.00    +0.149 NA
ATOM      2  C   UNL     1       6.594  -5.599  25.846  0.00  0.00    +0.364 C 
ATOM      3  C   UNL     1       5.216  -6.280  25.725  0.00  0.00    +0.265 C 
ATOM      4  C   UNL     1       5.100  -6.865  24.310  0.00  0.00    +0.187 C 
ATOM      5  C   UNL     1       5.428  -5.816  23.233  0.00  0.00    +0.185 C 
ATOM      6  C   UNL     1       6.808  -5.189  23.455  0.00  0.00    +0.257 C 
ATOM      7  N   UNL     1       6.989  -4.758  24.827  0.00  0.00    -0.229 N 
ATOM      8  H   UNL     1       7.927  -4.412  25.024  0.00  0.00    +0.291 HD
ENDROOT
BRANCH   1   9
ATOM      9  O   UNL     1       8.562  -5.185  26.793  0.00  0.00    -0.311 OA
ATOM     10  H   UNL     1       8.761  -5.256  25.841  0.00  0.00    +0.361 HD
ENDBRANCH   1   9
BRANCH   3  11
ATOM     11  O   UNL     1       5.026  -7.301  26.701  0.00  0.00    -0.378 OA
ATOM     12  H   UNL     1       4.107  -7.609  26.603  0.00  0.00    +0.211 HD
ENDBRANCH   3  11
BRANCH   4  13
ATOM     13  O   UNL     1       3.767  -7.353  24.069  0.00  0.00    -0.386 OA
ATOM     14  H   UNL     1       3.508  -7.034  23.185  0.00  0.00    +0.210 HD
ENDBRANCH   4  13
BRANCH   5  15
ATOM     15  O   UNL     1       5.359  -6.443  21.941  0.00  0.00    -0.385 OA
ATOM     16  H   UNL     1       4.436  -6.409  21.633  0.00  0.00    +0.210 HD
ENDBRANCH   5  15
TORSDOF 4
ENDMDL
MODEL 6
REMARK VINA RESULT:      -4.4      1.759      2.609
REMARK  Name = 
REMARK  4 active torsions:
REMARK  status: ('A' for Active; 'I' for Inactive)
REMARK    1  A    between atoms: O_1  and  N_2
REMARK    2  A    between atoms: C_6  and  O_8
REMARK    3  A    between atoms: C_9  and  O_11
REMARK    4  A    between atoms: C_12  and  O_14
REMARK                            x       y       z     vdW  Elec       q    Type
REMARK                         _______ _______ _______ _____ _____    ______ ____
ROOT
ATOM      1  N   UNL     1       9.223  -1.054  25.851  0.00  0.00    +0.149 NA
ATOM      2  C   UNL     1       8.924  -0.413  24.755  0.00  0.00    +0.364 C 
ATOM      3  C   UNL     1       9.085  -1.135  23.403  0.00  0.00    +0.265 C 
ATOM      4  C   UNL     1       9.854  -0.204  22.456  0.00  0.00    +0.187 C 
ATOM      5  C   UNL     1       9.219   1.197  22.398  0.00  0.00    +0.185 C 
ATOM      6  C   UNL     1       9.089   1.819  23.793  0.00  0.00    +0.257 C 
ATOM      7  N   UNL     1       8.492   0.897  24.738  0.00  0.00    -0.229 N 
ATOM      8  H   UNL     1       8.469   1.254  25.693  0.00  0.00    +0.291 HD
ENDROOT
BRANCH   1   9
ATOM      9  O   UNL     1       9.056  -0.218  26.966  0.00  0.00    -0.311 OA
ATOM     10  H   UNL     1       8.229   0.252  26.746  0.00  0.00    +0.361 HD
ENDBRANCH   1   9
BRANCH   3  11
ATOM     11  O   UNL     1       9.762  -2.383  23.530  0.00  0.00    -0.378 OA
ATOM     12  H   UNL     1       9.147  -2.986  23.984  0.00  0.00    +0.211 HD
ENDBRANCH   3  11
BRANCH   4  13
ATOM     13  O   UNL     1       9.877  -0.741  21.121  0.00  0.00    -0.386 OA
ATOM     14  H   UNL     1       9.425  -1.604  21.158  0.00  0.00    +0.210 HD
ENDBRANCH   4  13
BRANCH   5  15
ATOM     15  O   UNL     1      10.020   2.032  21.545  0.00  0.00    -0.385 OA
ATOM     16  H   UNL     1      10.302   2.813  22.055  0.00  0.00    +0.210 HD
ENDBRANCH   5  15
TORSDOF 4
ENDMDL
MODEL 7
REMARK VINA RESULT:      -4.4      2.168      4.175
REMARK  Name = 
REMARK  4 active torsions:
REMARK  status: ('A' for Active; 'I' for Inactive)
REMARK    1  A    between atoms: O_1  and  N_2
REMARK    2  A    between atoms: C_6  and  O_8
REMARK    3  A    between atoms: C_9  and  O_11
REMARK    4  A    between atoms: C_12  and  O_14
REMARK                            x       y       z     vdW  Elec       q    Type
REMARK                         _______ _______ _______ _____ _____    ______ ____
ROOT
ATOM      1  N   UNL     1       8.937   1.717  22.137  0.00  0.00    +0.149 NA
ATOM      2  C   UNL     1       8.913   0.413  22.182  0.00  0.00    +0.364 C 
ATOM      3  C   UNL     1       7.774  -0.283  22.952  0.00  0.00    +0.265 C 
ATOM      4  C   UNL     1       8.401  -1.342  23.870  0.00  0.00    +0.187 C 
ATOM      5  C   UNL     1       9.356  -2.269  23.098  0.00  0.00    +0.185 C 
ATOM      6  C   UNL     1      10.438  -1.478  22.355  0.00  0.00    +0.257 C 
ATOM      7  N   UNL     1       9.873  -0.382  21.592  0.00  0.00    -0.229 N 
ATOM      8  H   UNL     1      10.577   0.212  21.154  0.00  0.00    +0.291 HD
ENDROOT
BRANCH   1   9
ATOM      9  O   UNL     1      10.068   2.159  21.433  0.00  0.00    -0.311 OA
ATOM     10  H   UNL     1      10.793   1.916  22.040  0.00  0.00    +0.361 HD
ENDBRANCH   1   9
BRANCH   3  11
ATOM     11  O   UNL     1       6.992   0.634  23.714  0.00  0.00    -0.378 OA
ATOM     12  H   UNL     1       6.074   0.310  23.677  0.00  0.00    +0.211 HD
ENDBRANCH   3  11
BRANCH   4  13
ATOM     13  O   UNL     1       7.383  -2.155  24.481  0.00  0.00    -0.386 OA
ATOM     14  H   UNL     1       7.792  -2.581  25.257  0.00  0.00    +0.210 HD
ENDBRANCH   4  13
BRANCH   5  15
ATOM     15  O   UNL     1       9.952  -3.194  24.024  0.00  0.00    -0.385 OA
ATOM     16  H   UNL     1      10.255  -3.974  23.526  0.00  0.00    +0.210 HD
ENDBRANCH   5  15
TORSDOF 4
ENDMDL
MODEL 8
REMARK VINA RESULT:      -4.2      2.492      2.927
REMARK  Name = 
REMARK  4 active torsions:
REMARK  status: ('A' for Active; 'I' for Inactive)
REMARK    1  A    between atoms: O_1  and  N_2
REMARK    2  A    between atoms: C_6  and  O_8
REMARK    3  A    between atoms: C_9  and  O_11
REMARK    4  A    between atoms: C_12  and  O_14
REMARK                            x       y       z     vdW  Elec       q    Type
REMARK                         _______ _______ _______ _____ _____    ______ ____
ROOT
ATOM      1  N   UNL     1       8.976  -1.551  22.147  0.00  0.00    +0.149 NA
ATOM      2  C   UNL     1       8.787  -0.338  22.590  0.00  0.00    +0.364 C 
ATOM      3  C   UNL     1       7.385   0.061  23.089  0.00  0.00    +0.265 C 
ATOM      4  C   UNL     1       7.015   1.402  22.438  0.00  0.00    +0.187 C 
ATOM      5  C   UNL     1       8.122   2.453  22.632  0.00  0.00    +0.185 C 
ATOM      6  C   UNL     1       9.476   1.950  22.121  0.00  0.00    +0.257 C 
ATOM      7  N   UNL     1       9.778   0.622  22.614  0.00  0.00    -0.229 N 
ATOM      8  H   UNL     1      10.634   0.229  22.224  0.00  0.00    +0.291 HD
ENDROOT
BRANCH   1   9
ATOM      9  O   UNL     1      10.297  -1.705  21.698  0.00  0.00    -0.311 OA
ATOM     10  H   UNL     1      10.679  -0.827  21.885  0.00  0.00    +0.361 HD
ENDBRANCH   1   9
BRANCH   3  11
ATOM     11  O   UNL     1       6.400  -0.924  22.790  0.00  0.00    -0.378 OA
ATOM     12  H   UNL     1       5.938  -1.115  23.626  0.00  0.00    +0.211 HD
ENDBRANCH   3  11
BRANCH   4  13
ATOM     13  O   UNL     1       5.797   1.923  23.003  0.00  0.00    -0.386 OA
ATOM     14  H   UNL     1       6.028   2.290  23.877  0.00  0.00    +0.210 HD
ENDBRANCH   4  13
BRANCH   5  15
ATOM     15  O   UNL     1       7.739   3.659  21.951  0.00  0.00    -0.385 OA
ATOM     16  H   UNL     1       7.001   3.450  21.349  0.00  0.00    +0.210 HD
ENDBRANCH   5  15
TORSDOF 4
ENDMDL
MODEL 9
REMARK VINA RESULT:      -4.2      5.878      7.461
REMARK  Name = 
REMARK  4 active torsions:
REMARK  status: ('A' for Active; 'I' for Inactive)
REMARK    1  A    between atoms: O_1  and  N_2
REMARK    2  A    between atoms: C_6  and  O_8
REMARK    3  A    between atoms: C_9  and  O_11
REMARK    4  A    between atoms: C_12  and  O_14
REMARK                            x       y       z     vdW  Elec       q    Type
REMARK                         _______ _______ _______ _____ _____    ______ ____
ROOT
ATOM      1  N   UNL     1       9.543  -5.280  25.912  0.00  0.00    +0.149 NA
ATOM      2  C   UNL     1       8.320  -4.981  25.569  0.00  0.00    +0.364 C 
ATOM      3  C   UNL     1       7.189  -5.181  26.597  0.00  0.00    +0.265 C 
ATOM      4  C   UNL     1       6.048  -5.939  25.905  0.00  0.00    +0.187 C 
ATOM      5  C   UNL     1       5.641  -5.267  24.581  0.00  0.00    +0.185 C 
ATOM      6  C   UNL     1       6.838  -5.099  23.640  0.00  0.00    +0.257 C 
ATOM      7  N   UNL     1       7.977  -4.512  24.318  0.00  0.00    -0.229 N 
ATOM      8  H   UNL     1       8.814  -4.465  23.738  0.00  0.00    +0.291 HD
ENDROOT
BRANCH   1   9
ATOM      9  O   UNL     1      10.415  -5.073  24.832  0.00  0.00    -0.311 OA
ATOM     10  H   UNL     1       9.804  -5.088  24.071  0.00  0.00    +0.361 HD
ENDBRANCH   1   9
BRANCH   3  11
ATOM     11  O   UNL     1       7.626  -5.891  27.754  0.00  0.00    -0.378 OA
ATOM     12  H   UNL     1       6.936  -5.766  28.430  0.00  0.00    +0.211 HD
ENDBRANCH   3  11
BRANCH   4  13
ATOM     13  O   UNL     1       4.886  -5.997  26.753  0.00  0.00    -0.386 OA
ATOM     14  H   UNL     1       5.006  -6.768  27.339  0.00  0.00    +0.210 HD
ENDBRANCH   4  13
BRANCH   5  15
ATOM     15  O   UNL     1       4.614  -6.057  23.958  0.00  0.00    -0.385 OA
ATOM     16  H   UNL     1       5.039  -6.802  23.494  0.00  0.00    +0.210 HD
ENDBRANCH   5  15
TORSDOF 4
ENDMDL
