MODEL 1
REMARK VINA RESULT:      -6.5      0.000      0.000
REMARK  Name = 
REMARK  13 active torsions:
REMARK  status: ('A' for Active; 'I' for Inactive)
REMARK    1  A    between atoms: O_1  and  C_2
REMARK    2  A    between atoms: C_2  and  C_3
REMARK    3  A    between atoms: C_3  and  O_5
REMARK    4  A    between atoms: C_3  and  C_6
REMARK    5  A    between atoms: C_6  and  O_8
REMARK    6  A    between atoms: C_6  and  C_9
REMARK    7  A    between atoms: C_9  and  O_11
REMARK    8  A    between atoms: C_9  and  C_12
REMARK    9  A    between atoms: C_12  and  N_13
REMARK   10  A    between atoms: C_16  and  C_17
REMARK   11  A    between atoms: C_17  and  C_18
REMARK   12  A    between atoms: C_18  and  C_19
REMARK   13  A    between atoms: C_19  and  O_20
REMARK                            x       y       z     vdW  Elec       q    Type
REMARK                         _______ _______ _______ _____ _____    ______ ____
ROOT
ATOM      1  N   UNL     1       8.025  -4.342  24.408  0.00  0.00    -0.289 N 
ATOM      2  C   UNL     1       7.018  -5.021  23.709  0.00  0.00    +0.149 A 
ATOM      3  N   UNL     1       7.005  -5.051  22.337  0.00  0.00    -0.292 N 
ATOM      4  H   UNL     1       7.751  -4.658  21.782  0.00  0.00    +0.172 HD
ATOM      5  C   UNL     1       6.011  -5.592  21.579  0.00  0.00    +0.328 A 
ATOM      6  N   UNL     1       4.990  -6.170  22.256  0.00  0.00    -0.273 N 
ATOM      7  H   UNL     1       4.243  -6.584  21.719  0.00  0.00    +0.173 HD
ATOM      8  C   UNL     1       4.907  -6.262  23.613  0.00  0.00    +0.282 A 
ATOM      9  O   UNL     1       3.968  -6.839  24.155  0.00  0.00    -0.265 OA
ATOM     10  O   UNL     1       6.048  -5.556  20.356  0.00  0.00    -0.247 OA
ATOM     11  C   UNL     1       6.017  -5.619  24.400  0.00  0.00    +0.169 A 
ATOM     12  N   UNL     1       5.935  -5.701  25.776  0.00  0.00    -0.238 NA
ATOM     13  C   UNL     1       6.854  -5.078  26.447  0.00  0.00    +0.107 A 
ATOM     14  C   UNL     1       7.907  -4.203  25.797  0.00  0.00    +0.274 A 
ATOM     15  O   UNL     1       8.509  -3.420  26.516  0.00  0.00    -0.266 OA
ENDROOT
BRANCH   1  16
ATOM     16  C   UNL     1       9.052  -3.516  23.756  0.00  0.00    +0.161 C 
BRANCH  16  17
ATOM     17  C   UNL     1       8.630  -2.062  23.418  0.00  0.00    +0.165 C 
BRANCH  17  18
ATOM     18  O   UNL     1       7.832  -2.028  22.224  0.00  0.00    -0.387 OA
ATOM     19  H   UNL     1       7.170  -2.739  22.296  0.00  0.00    +0.210 HD
ENDBRANCH  17  18
BRANCH  17  20
ATOM     20  C   UNL     1       9.867  -1.175  23.143  0.00  0.00    +0.175 C 
BRANCH  20  21
ATOM     21  O   UNL     1      10.397  -1.506  21.846  0.00  0.00    -0.387 OA
ATOM     22  H   UNL     1       9.698  -2.011  21.391  0.00  0.00    +0.210 HD
ENDBRANCH  20  21
BRANCH  20  23
ATOM     23  C   UNL     1       9.575   0.332  23.233  0.00  0.00    +0.171 C 
BRANCH  23  24
ATOM     24  O   UNL     1       8.197   0.562  23.559  0.00  0.00    -0.387 OA
ATOM     25  H   UNL     1       7.993   1.445  23.185  0.00  0.00    +0.210 HD
ENDBRANCH  23  24
BRANCH  23  26
ATOM     26  C   UNL     1       9.942   1.079  21.948  0.00  0.00    +0.189 C 
BRANCH  26  27
ATOM     27  O   UNL     1       8.941   0.777  20.972  0.00  0.00    -0.392 OA
ATOM     28  H   UNL     1       8.715  -0.165  21.084  0.00  0.00    +0.210 HD
ENDBRANCH  26  27
ENDBRANCH  23  26
ENDBRANCH  20  23
ENDBRANCH  17  20
ENDBRANCH  16  17
ENDBRANCH   1  16
BRANCH  13  29
ATOM     29  C   UNL     1       6.835  -5.187  27.951  0.00  0.00    +0.072 C 
BRANCH  29  30
ATOM     30  C   UNL     1       5.431  -5.390  28.491  0.00  0.00    +0.127 C 
BRANCH  30  31
ATOM     31  C   UNL     1       5.016  -6.769  28.957  0.00  0.00    +0.305 C 
ATOM     32  O   UNL     1       4.362  -6.914  29.985  0.00  0.00    -0.251 OA
BRANCH  31  33
ATOM     33  O   UNL     1       5.363  -7.829  28.211  0.00  0.00    -0.481 OA
ATOM     34  H   UNL     1       4.778  -8.618  28.176  0.00  0.00    +0.295 HD
ENDBRANCH  31  33
ENDBRANCH  30  31
ENDBRANCH  29  30
ENDBRANCH  13  29
TORSDOF 13
ENDMDL
MODEL 2
REMARK VINA RESULT:      -6.5      3.035      6.383
REMARK  Name = 
REMARK  13 active torsions:
REMARK  status: ('A' for Active; 'I' for Inactive)
REMARK    1  A    between atoms: O_1  and  C_2
REMARK    2  A    between atoms: C_2  and  C_3
REMARK    3  A    between atoms: C_3  and  O_5
REMARK    4  A    between atoms: C_3  and  C_6
REMARK    5  A    between atoms: C_6  and  O_8
REMARK    6  A    between atoms: C_6  and  C_9
REMARK    7  A    between atoms: C_9  and  O_11
REMARK    8  A    between atoms: C_9  and  C_12
REMARK    9  A    between atoms: C_12  and  N_13
REMARK   10  A    between atoms: C_16  and  C_17
REMARK   11  A    between atoms: C_17  and  C_18
REMARK   12  A    between atoms: C_18  and  C_19
REMARK   13  A    between atoms: C_19  and  O_20
REMARK                            x       y       z     vdW  Elec       q    Type
REMARK                         _______ _______ _______ _____ _____    ______ ____
ROOT
ATOM      1  N   UNL     1       8.393  -1.516  25.838  0.00  0.00    -0.289 N 
ATOM      2  C   UNL     1       8.313  -2.914  25.900  0.00  0.00    +0.149 A 
ATOM      3  N   UNL     1       7.598  -3.539  26.891  0.00  0.00    -0.292 N 
ATOM      4  H   UNL     1       7.043  -3.027  27.560  0.00  0.00    +0.172 HD
ATOM      5  C   UNL     1       7.555  -4.886  27.089  0.00  0.00    +0.328 A 
ATOM      6  N   UNL     1       8.249  -5.643  26.206  0.00  0.00    -0.273 N 
ATOM      7  H   UNL     1       8.230  -6.645  26.325  0.00  0.00    +0.173 HD
ATOM      8  C   UNL     1       8.952  -5.156  25.143  0.00  0.00    +0.282 A 
ATOM      9  O   UNL     1       9.523  -5.909  24.360  0.00  0.00    -0.265 OA
ATOM     10  O   UNL     1       6.921  -5.377  28.014  0.00  0.00    -0.247 OA
ATOM     11  C   UNL     1       8.990  -3.659  24.993  0.00  0.00    +0.169 A 
ATOM     12  N   UNL     1       9.707  -3.158  23.924  0.00  0.00    -0.238 NA
ATOM     13  C   UNL     1       9.799  -1.866  23.847  0.00  0.00    +0.107 A 
ATOM     14  C   UNL     1       9.263  -0.930  24.910  0.00  0.00    +0.274 A 
ATOM     15  O   UNL     1       9.676   0.219  24.907  0.00  0.00    -0.266 OA
ENDROOT
BRANCH   1  16
ATOM     16  C   UNL     1       7.846  -0.624  26.872  0.00  0.00    +0.161 C 
BRANCH  16  17
ATOM     17  C   UNL     1       6.481   0.032  26.539  0.00  0.00    +0.165 C 
BRANCH  17  18
ATOM     18  O   UNL     1       5.826  -0.667  25.469  0.00  0.00    -0.387 OA
ATOM     19  H   UNL     1       6.496  -1.220  25.029  0.00  0.00    +0.210 HD
ENDBRANCH  17  18
BRANCH  17  20
ATOM     20  C   UNL     1       6.669   1.490  26.057  0.00  0.00    +0.175 C 
BRANCH  20  21
ATOM     21  O   UNL     1       7.948   1.968  26.512  0.00  0.00    -0.387 OA
ATOM     22  H   UNL     1       8.188   1.411  27.275  0.00  0.00    +0.210 HD
ENDBRANCH  20  21
BRANCH  20  23
ATOM     23  C   UNL     1       6.546   1.656  24.534  0.00  0.00    +0.171 C 
BRANCH  23  24
ATOM     24  O   UNL     1       7.776   2.139  23.976  0.00  0.00    -0.387 OA
ATOM     25  H   UNL     1       7.513   2.876  23.386  0.00  0.00    +0.210 HD
ENDBRANCH  23  24
BRANCH  23  26
ATOM     26  C   UNL     1       5.391   2.578  24.134  0.00  0.00    +0.189 C 
BRANCH  26  27
ATOM     27  O   UNL     1       4.171   1.861  24.348  0.00  0.00    -0.392 OA
ATOM     28  H   UNL     1       4.414   0.926  24.476  0.00  0.00    +0.210 HD
ENDBRANCH  26  27
ENDBRANCH  23  26
ENDBRANCH  20  23
ENDBRANCH  17  20
ENDBRANCH  16  17
ENDBRANCH   1  16
BRANCH  13  29
ATOM     29  C   UNL     1      10.526  -1.275  22.665  0.00  0.00    +0.072 C 
BRANCH  29  30
ATOM     30  C   UNL     1       9.572  -0.659  21.657  0.00  0.00    +0.127 C 
BRANCH  30  31
ATOM     31  C   UNL     1       9.463   0.849  21.577  0.00  0.00    +0.305 C 
ATOM     32  O   UNL     1      10.319   1.568  22.081  0.00  0.00    -0.251 OA
BRANCH  31  33
ATOM     33  O   UNL     1       8.419   1.382  20.925  0.00  0.00    -0.481 OA
ATOM     34  H   UNL     1       7.504   1.100  21.147  0.00  0.00    +0.295 HD
ENDBRANCH  31  33
ENDBRANCH  30  31
ENDBRANCH  29  30
ENDBRANCH  13  29
TORSDOF 13
ENDMDL
MODEL 3
REMARK VINA RESULT:      -6.3      1.334      6.887
REMARK  Name = 
REMARK  13 active torsions:
REMARK  status: ('A' for Active; 'I' for Inactive)
REMARK    1  A    between atoms: O_1  and  C_2
REMARK    2  A    between atoms: C_2  and  C_3
REMARK    3  A    between atoms: C_3  and  O_5
REMARK    4  A    between atoms: C_3  and  C_6
REMARK    5  A    between atoms: C_6  and  O_8
REMARK    6  A    between atoms: C_6  and  C_9
REMARK    7  A    between atoms: C_9  and  O_11
REMARK    8  A    between atoms: C_9  and  C_12
REMARK    9  A    between atoms: C_12  and  N_13
REMARK   10  A    between atoms: C_16  and  C_17
REMARK   11  A    between atoms: C_17  and  C_18
REMARK   12  A    between atoms: C_18  and  C_19
REMARK   13  A    between atoms: C_19  and  O_20
REMARK                            x       y       z     vdW  Elec       q    Type
REMARK                         _______ _______ _______ _____ _____    ______ ____
ROOT
ATOM      1  N   UNL     1       6.684  -4.123  25.641  0.00  0.00    -0.289 N 
ATOM      2  C   UNL     1       6.180  -4.785  24.513  0.00  0.00    +0.149 A 
ATOM      3  N   UNL     1       4.982  -5.452  24.559  0.00  0.00    -0.292 N 
ATOM      4  H   UNL     1       4.384  -5.430  25.371  0.00  0.00    +0.172 HD
ATOM      5  C   UNL     1       4.471  -6.208  23.547  0.00  0.00    +0.328 A 
ATOM      6  N   UNL     1       5.205  -6.257  22.410  0.00  0.00    -0.273 N 
ATOM      7  H   UNL     1       4.847  -6.805  21.641  0.00  0.00    +0.173 HD
ATOM      8  C   UNL     1       6.380  -5.596  22.208  0.00  0.00    +0.282 A 
ATOM      9  O   UNL     1       6.968  -5.655  21.132  0.00  0.00    -0.265 OA
ATOM     10  O   UNL     1       3.410  -6.804  23.667  0.00  0.00    -0.247 OA
ATOM     11  C   UNL     1       6.911  -4.802  23.372  0.00  0.00    +0.169 A 
ATOM     12  N   UNL     1       8.106  -4.136  23.179  0.00  0.00    -0.238 NA
ATOM     13  C   UNL     1       8.595  -3.519  24.210  0.00  0.00    +0.107 A 
ATOM     14  C   UNL     1       7.980  -3.595  25.592  0.00  0.00    +0.274 A 
ATOM     15  O   UNL     1       8.677  -3.257  26.537  0.00  0.00    -0.266 OA
ENDROOT
BRANCH   1  16
ATOM     16  C   UNL     1       6.059  -4.193  26.971  0.00  0.00    +0.161 C 
BRANCH  16  17
ATOM     17  C   UNL     1       6.422  -5.439  27.819  0.00  0.00    +0.165 C 
BRANCH  17  18
ATOM     18  O   UNL     1       7.630  -6.049  27.338  0.00  0.00    -0.387 OA
ATOM     19  H   UNL     1       8.080  -6.449  28.104  0.00  0.00    +0.210 HD
ENDBRANCH  17  18
BRANCH  17  20
ATOM     20  C   UNL     1       5.318  -6.519  27.718  0.00  0.00    +0.175 C 
BRANCH  20  21
ATOM     21  O   UNL     1       5.669  -7.622  28.574  0.00  0.00    -0.387 OA
ATOM     22  H   UNL     1       5.687  -7.265  29.481  0.00  0.00    +0.210 HD
ENDBRANCH  20  21
BRANCH  20  23
ATOM     23  C   UNL     1       3.914  -5.998  28.065  0.00  0.00    +0.171 C 
BRANCH  23  24
ATOM     24  O   UNL     1       3.639  -6.174  29.462  0.00  0.00    -0.387 OA
ATOM     25  H   UNL     1       3.481  -5.270  29.805  0.00  0.00    +0.210 HD
ENDBRANCH  23  24
BRANCH  23  26
ATOM     26  C   UNL     1       2.818  -6.661  27.228  0.00  0.00    +0.189 C 
BRANCH  26  27
ATOM     27  O   UNL     1       3.436  -7.674  26.430  0.00  0.00    -0.392 OA
ATOM     28  H   UNL     1       4.385  -7.457  26.388  0.00  0.00    +0.210 HD
ENDBRANCH  26  27
ENDBRANCH  23  26
ENDBRANCH  20  23
ENDBRANCH  17  20
ENDBRANCH  16  17
ENDBRANCH   1  16
BRANCH  13  29
ATOM     29  C   UNL     1       9.869  -2.733  24.030  0.00  0.00    +0.072 C 
BRANCH  29  30
ATOM     30  C   UNL     1       9.600  -1.270  23.726  0.00  0.00    +0.127 C 
BRANCH  30  31
ATOM     31  C   UNL     1       9.956  -0.727  22.359  0.00  0.00    +0.305 C 
ATOM     32  O   UNL     1      10.192   0.467  22.199  0.00  0.00    -0.251 OA
BRANCH  31  33
ATOM     33  O   UNL     1      10.026  -1.582  21.328  0.00  0.00    -0.481 OA
ATOM     34  H   UNL     1       9.425  -1.475  20.558  0.00  0.00    +0.295 HD
ENDBRANCH  31  33
ENDBRANCH  30  31
ENDBRANCH  29  30
ENDBRANCH  13  29
TORSDOF 13
ENDMDL
MODEL 4
REMARK VINA RESULT:      -6.3      2.704      6.077
REMARK  Name = 
REMARK  13 active torsions:
REMARK  status: ('A' for Active; 'I' for Inactive)
REMARK    1  A    between atoms: O_1  and  C_2
REMARK    2  A    between atoms: C_2  and  C_3
REMARK    3  A    between atoms: C_3  and  O_5
REMARK    4  A    between atoms: C_3  and  C_6
REMARK    5  A    between atoms: C_6  and  O_8
REMARK    6  A    between atoms: C_6  and  C_9
REMARK    7  A    between atoms: C_9  and  O_11
REMARK    8  A    between atoms: C_9  and  C_12
REMARK    9  A    between atoms: C_12  and  N_13
REMARK   10  A    between atoms: C_16  and  C_17
REMARK   11  A    between atoms: C_17  and  C_18
REMARK   12  A    between atoms: C_18  and  C_19
REMARK   13  A    between atoms: C_19  and  O_20
REMARK                            x       y       z     vdW  Elec       q    Type
REMARK                         _______ _______ _______ _____ _____    ______ ____
ROOT
ATOM      1  N   UNL     1       7.747  -2.308  25.130  0.00  0.00    -0.289 N 
ATOM      2  C   UNL     1       7.169  -3.414  24.493  0.00  0.00    +0.149 A 
ATOM      3  N   UNL     1       6.223  -4.181  25.124  0.00  0.00    -0.292 N 
ATOM      4  H   UNL     1       5.852  -3.941  26.031  0.00  0.00    +0.172 HD
ATOM      5  C   UNL     1       5.691  -5.331  24.623  0.00  0.00    +0.328 A 
ATOM      6  N   UNL     1       6.117  -5.700  23.392  0.00  0.00    -0.273 N 
ATOM      7  H   UNL     1       5.734  -6.544  22.993  0.00  0.00    +0.173 HD
ATOM      8  C   UNL     1       7.006  -5.000  22.631  0.00  0.00    +0.282 A 
ATOM      9  O   UNL     1       7.314  -5.377  21.504  0.00  0.00    -0.265 OA
ATOM     10  O   UNL     1       4.872  -5.985  25.255  0.00  0.00    -0.247 OA
ATOM     11  C   UNL     1       7.585  -3.756  23.249  0.00  0.00    +0.169 A 
ATOM     12  N   UNL     1       8.493  -3.046  22.487  0.00  0.00    -0.238 NA
ATOM     13  C   UNL     1       9.045  -2.019  23.057  0.00  0.00    +0.107 A 
ATOM     14  C   UNL     1       8.820  -1.655  24.510  0.00  0.00    +0.274 A 
ATOM     15  O   UNL     1       9.616  -0.886  25.026  0.00  0.00    -0.266 OA
ENDROOT
BRANCH   1  16
ATOM     16  C   UNL     1       7.498  -1.959  26.537  0.00  0.00    +0.161 C 
BRANCH  16  17
ATOM     17  C   UNL     1       6.491  -0.804  26.774  0.00  0.00    +0.165 C 
BRANCH  17  18
ATOM     18  O   UNL     1       5.940  -0.344  25.531  0.00  0.00    -0.387 OA
ATOM     19  H   UNL     1       6.656  -0.361  24.871  0.00  0.00    +0.210 HD
ENDBRANCH  17  18
BRANCH  17  20
ATOM     20  C   UNL     1       7.188   0.416  27.422  0.00  0.00    +0.175 C 
BRANCH  20  21
ATOM     21  O   UNL     1       8.538   0.053  27.762  0.00  0.00    -0.387 OA
ATOM     22  H   UNL     1       8.483  -0.427  28.609  0.00  0.00    +0.210 HD
ENDBRANCH  20  21
BRANCH  20  23
ATOM     23  C   UNL     1       7.178   1.672  26.534  0.00  0.00    +0.171 C 
BRANCH  23  24
ATOM     24  O   UNL     1       8.355   1.723  25.716  0.00  0.00    -0.387 OA
ATOM     25  H   UNL     1       8.024   1.871  24.806  0.00  0.00    +0.210 HD
ENDBRANCH  23  24
BRANCH  23  26
ATOM     26  C   UNL     1       7.048   2.964  27.346  0.00  0.00    +0.189 C 
BRANCH  26  27
ATOM     27  O   UNL     1       7.510   2.690  28.672  0.00  0.00    -0.392 OA
ATOM     28  H   UNL     1       8.404   3.071  28.742  0.00  0.00    +0.210 HD
ENDBRANCH  26  27
ENDBRANCH  23  26
ENDBRANCH  20  23
ENDBRANCH  17  20
ENDBRANCH  16  17
ENDBRANCH   1  16
BRANCH  13  29
ATOM     29  C   UNL     1      10.001  -1.183  22.243  0.00  0.00    +0.072 C 
BRANCH  29  30
ATOM     30  C   UNL     1       9.286  -0.095  21.463  0.00  0.00    +0.127 C 
BRANCH  30  31
ATOM     31  C   UNL     1       9.282   1.317  22.008  0.00  0.00    +0.305 C 
ATOM     32  O   UNL     1       8.468   1.659  22.860  0.00  0.00    -0.251 OA
BRANCH  31  33
ATOM     33  O   UNL     1      10.200   2.183  21.553  0.00  0.00    -0.481 OA
ATOM     34  H   UNL     1       9.971   3.133  21.449  0.00  0.00    +0.295 HD
ENDBRANCH  31  33
ENDBRANCH  30  31
ENDBRANCH  29  30
ENDBRANCH  13  29
TORSDOF 13
ENDMDL
MODEL 5
REMARK VINA RESULT:      -6.1      3.010      4.729
REMARK  Name = 
REMARK  13 active torsions:
REMARK  status: ('A' for Active; 'I' for Inactive)
REMARK    1  A    between atoms: O_1  and  C_2
REMARK    2  A    between atoms: C_2  and  C_3
REMARK    3  A    between atoms: C_3  and  O_5
REMARK    4  A    between atoms: C_3  and  C_6
REMARK    5  A    between atoms: C_6  and  O_8
REMARK    6  A    between atoms: C_6  and  C_9
REMARK    7  A    between atoms: C_9  and  O_11
REMARK    8  A    between atoms: C_9  and  C_12
REMARK    9  A    between atoms: C_12  and  N_13
REMARK   10  A    between atoms: C_16  and  C_17
REMARK   11  A    between atoms: C_17  and  C_18
REMARK   12  A    between atoms: C_18  and  C_19
REMARK   13  A    between atoms: C_19  and  O_20
REMARK                            x       y       z     vdW  Elec       q    Type
REMARK                         _______ _______ _______ _____ _____    ______ ____
ROOT
ATOM      1  N   UNL     1       8.813  -0.935  23.200  0.00  0.00    -0.289 N 
ATOM      2  C   UNL     1       7.611  -0.351  23.624  0.00  0.00    +0.149 A 
ATOM      3  N   UNL     1       7.295   0.942  23.289  0.00  0.00    -0.292 N 
ATOM      4  H   UNL     1       7.869   1.494  22.670  0.00  0.00    +0.172 HD
ATOM      5  C   UNL     1       6.205   1.621  23.744  0.00  0.00    +0.328 A 
ATOM      6  N   UNL     1       5.368   0.931  24.556  0.00  0.00    -0.273 N 
ATOM      7  H   UNL     1       4.549   1.408  24.903  0.00  0.00    +0.173 HD
ATOM      8  C   UNL     1       5.530  -0.373  24.919  0.00  0.00    +0.282 A 
ATOM      9  O   UNL     1       4.705  -0.944  25.626  0.00  0.00    -0.265 OA
ATOM     10  O   UNL     1       6.000   2.786  23.431  0.00  0.00    -0.247 OA
ATOM     11  C   UNL     1       6.768  -1.062  24.412  0.00  0.00    +0.169 A 
ATOM     12  N   UNL     1       6.944  -2.381  24.783  0.00  0.00    -0.238 NA
ATOM     13  C   UNL     1       8.051  -2.943  24.407  0.00  0.00    +0.107 A 
ATOM     14  C   UNL     1       9.163  -2.196  23.699  0.00  0.00    +0.274 A 
ATOM     15  O   UNL     1      10.267  -2.718  23.679  0.00  0.00    -0.266 OA
ENDROOT
BRANCH   1  16
ATOM     16  C   UNL     1       9.871  -0.197  22.495  0.00  0.00    +0.161 C 
BRANCH  16  17
ATOM     17  C   UNL     1      10.662   0.826  23.352  0.00  0.00    +0.165 C 
BRANCH  17  18
ATOM     18  O   UNL     1      10.091   0.941  24.664  0.00  0.00    -0.387 OA
ATOM     19  H   UNL     1       9.987   0.039  25.017  0.00  0.00    +0.210 HD
ENDBRANCH  17  18
BRANCH  17  20
ATOM     20  C   UNL     1      10.603   2.239  22.724  0.00  0.00    +0.175 C 
BRANCH  20  21
ATOM     21  O   UNL     1       9.719   2.206  21.589  0.00  0.00    -0.387 OA
ATOM     22  H   UNL     1       9.071   1.500  21.772  0.00  0.00    +0.210 HD
ENDBRANCH  20  21
BRANCH  20  23
ATOM     23  C   UNL     1      10.167   3.333  23.712  0.00  0.00    +0.171 C 
BRANCH  23  24
ATOM     24  O   UNL     1       8.781   3.656  23.529  0.00  0.00    -0.387 OA
ATOM     25  H   UNL     1       8.759   4.242  22.744  0.00  0.00    +0.210 HD
ENDBRANCH  23  24
BRANCH  23  26
ATOM     26  C   UNL     1      11.019   4.600  23.600  0.00  0.00    +0.189 C 
BRANCH  26  27
ATOM     27  O   UNL     1      11.857   4.457  22.449  0.00  0.00    -0.392 OA
ATOM     28  H   UNL     1      12.358   3.630  22.568  0.00  0.00    +0.210 HD
ENDBRANCH  26  27
ENDBRANCH  23  26
ENDBRANCH  20  23
ENDBRANCH  17  20
ENDBRANCH  16  17
ENDBRANCH   1  16
BRANCH  13  29
ATOM     29  C   UNL     1       8.260  -4.398  24.742  0.00  0.00    +0.072 C 
BRANCH  29  30
ATOM     30  C   UNL     1       8.574  -4.606  26.213  0.00  0.00    +0.127 C 
BRANCH  30  31
ATOM     31  C   UNL     1       7.473  -5.077  27.139  0.00  0.00    +0.305 C 
ATOM     32  O   UNL     1       6.431  -4.439  27.252  0.00  0.00    -0.251 OA
BRANCH  31  33
ATOM     33  O   UNL     1       7.652  -6.219  27.819  0.00  0.00    -0.481 OA
ATOM     34  H   UNL     1       7.868  -7.049  27.340  0.00  0.00    +0.295 HD
ENDBRANCH  31  33
ENDBRANCH  30  31
ENDBRANCH  29  30
ENDBRANCH  13  29
TORSDOF 13
ENDMDL
MODEL 6
REMARK VINA RESULT:      -6.0      1.758      3.842
REMARK  Name = 
REMARK  13 active torsions:
REMARK  status: ('A' for Active; 'I' for Inactive)
REMARK    1  A    between atoms: O_1  and  C_2
REMARK    2  A    between atoms: C_2  and  C_3
REMARK    3  A    between atoms: C_3  and  O_5
REMARK    4  A    between atoms: C_3  and  C_6
REMARK    5  A    between atoms: C_6  and  O_8
REMARK    6  A    between atoms: C_6  and  C_9
REMARK    7  A    between atoms: C_9  and  O_11
REMARK    8  A    between atoms: C_9  and  C_12
REMARK    9  A    between atoms: C_12  and  N_13
REMARK   10  A    between atoms: C_16  and  C_17
REMARK   11  A    between atoms: C_17  and  C_18
REMARK   12  A    between atoms: C_18  and  C_19
REMARK   13  A    between atoms: C_19  and  O_20
REMARK                            x       y       z     vdW  Elec       q    Type
REMARK                         _______ _______ _______ _____ _____    ______ ____
ROOT
ATOM      1  N   UNL     1       6.671  -3.671  23.529  0.00  0.00    -0.289 N 
ATOM      2  C   UNL     1       7.061  -4.308  24.715  0.00  0.00    +0.149 A 
ATOM      3  N   UNL     1       8.332  -4.165  25.212  0.00  0.00    -0.292 N 
ATOM      4  H   UNL     1       9.007  -3.543  24.793  0.00  0.00    +0.172 HD
ATOM      5  C   UNL     1       8.825  -4.830  26.294  0.00  0.00    +0.328 A 
ATOM      6  N   UNL     1       7.963  -5.659  26.930  0.00  0.00    -0.273 N 
ATOM      7  H   UNL     1       8.301  -6.160  27.739  0.00  0.00    +0.173 HD
ATOM      8  C   UNL     1       6.660  -5.849  26.579  0.00  0.00    +0.282 A 
ATOM      9  O   UNL     1       5.926  -6.587  27.231  0.00  0.00    -0.265 OA
ATOM     10  O   UNL     1       9.982  -4.679  26.665  0.00  0.00    -0.247 OA
ATOM     11  C   UNL     1       6.179  -5.113  25.358  0.00  0.00    +0.169 A 
ATOM     12  N   UNL     1       4.861  -5.306  24.991  0.00  0.00    -0.238 NA
ATOM     13  C   UNL     1       4.478  -4.730  23.894  0.00  0.00    +0.107 A 
ATOM     14  C   UNL     1       5.420  -3.975  22.979  0.00  0.00    +0.274 A 
ATOM     15  O   UNL     1       5.040  -3.755  21.839  0.00  0.00    -0.266 OA
ENDROOT
BRANCH   1  16
ATOM     16  C   UNL     1       7.598  -2.924  22.666  0.00  0.00    +0.161 C 
BRANCH  16  17
ATOM     17  C   UNL     1       7.857  -1.450  23.074  0.00  0.00    +0.165 C 
BRANCH  17  18
ATOM     18  O   UNL     1       6.913  -0.572  22.442  0.00  0.00    -0.387 OA
ATOM     19  H   UNL     1       7.055  -0.635  21.480  0.00  0.00    +0.210 HD
ENDBRANCH  17  18
BRANCH  17  20
ATOM     20  C   UNL     1       9.260  -0.986  22.617  0.00  0.00    +0.175 C 
BRANCH  20  21
ATOM     21  O   UNL     1       9.337  -1.085  21.183  0.00  0.00    -0.387 OA
ATOM     22  H   UNL     1      10.054  -1.719  20.995  0.00  0.00    +0.210 HD
ENDBRANCH  20  21
BRANCH  20  23
ATOM     23  C   UNL     1       9.618   0.437  23.076  0.00  0.00    +0.171 C 
BRANCH  23  24
ATOM     24  O   UNL     1       8.577   0.978  23.902  0.00  0.00    -0.387 OA
ATOM     25  H   UNL     1       8.924   1.841  24.211  0.00  0.00    +0.210 HD
ENDBRANCH  23  24
BRANCH  23  26
ATOM     26  C   UNL     1       9.899   1.379  21.903  0.00  0.00    +0.189 C 
BRANCH  26  27
ATOM     27  O   UNL     1       8.667   1.580  21.205  0.00  0.00    -0.392 OA
ATOM     28  H   UNL     1       8.311   2.436  21.505  0.00  0.00    +0.210 HD
ENDBRANCH  26  27
ENDBRANCH  23  26
ENDBRANCH  20  23
ENDBRANCH  17  20
ENDBRANCH  16  17
ENDBRANCH   1  16
BRANCH  13  29
ATOM     29  C   UNL     1       3.033  -4.870  23.485  0.00  0.00    +0.072 C 
BRANCH  29  30
ATOM     30  C   UNL     1       2.685  -6.294  23.092  0.00  0.00    +0.127 C 
BRANCH  30  31
ATOM     31  C   UNL     1       2.350  -7.294  24.179  0.00  0.00    +0.305 C 
ATOM     32  O   UNL     1       2.329  -8.497  23.940  0.00  0.00    -0.251 OA
BRANCH  31  33
ATOM     33  O   UNL     1       2.095  -6.837  25.414  0.00  0.00    -0.481 OA
ATOM     34  H   UNL     1       2.359  -5.924  25.665  0.00  0.00    +0.295 HD
ENDBRANCH  31  33
ENDBRANCH  30  31
ENDBRANCH  29  30
ENDBRANCH  13  29
TORSDOF 13
ENDMDL
MODEL 7
REMARK VINA RESULT:      -6.0      2.327      7.136
REMARK  Name = 
REMARK  13 active torsions:
REMARK  status: ('A' for Active; 'I' for Inactive)
REMARK    1  A    between atoms: O_1  and  C_2
REMARK    2  A    between atoms: C_2  and  C_3
REMARK    3  A    between atoms: C_3  and  O_5
REMARK    4  A    between atoms: C_3  and  C_6
REMARK    5  A    between atoms: C_6  and  O_8
REMARK    6  A    between atoms: C_6  and  C_9
REMARK    7  A    between atoms: C_9  and  O_11
REMARK    8  A    between atoms: C_9  and  C_12
REMARK    9  A    between atoms: C_12  and  N_13
REMARK   10  A    between atoms: C_16  and  C_17
REMARK   11  A    between atoms: C_17  and  C_18
REMARK   12  A    between atoms: C_18  and  C_19
REMARK   13  A    between atoms: C_19  and  O_20
REMARK                            x       y       z     vdW  Elec       q    Type
REMARK                         _______ _______ _______ _____ _____    ______ ____
ROOT
ATOM      1  N   UNL     1       6.462  -2.635  24.831  0.00  0.00    -0.289 N 
ATOM      2  C   UNL     1       7.322  -3.624  25.328  0.00  0.00    +0.149 A 
ATOM      3  N   UNL     1       6.954  -4.418  26.384  0.00  0.00    -0.292 N 
ATOM      4  H   UNL     1       6.032  -4.378  26.793  0.00  0.00    +0.172 HD
ATOM      5  C   UNL     1       7.764  -5.326  26.997  0.00  0.00    +0.328 A 
ATOM      6  N   UNL     1       9.008  -5.460  26.479  0.00  0.00    -0.273 N 
ATOM      7  H   UNL     1       9.628  -6.131  26.910  0.00  0.00    +0.173 HD
ATOM      8  C   UNL     1       9.483  -4.780  25.398  0.00  0.00    +0.282 A 
ATOM      9  O   UNL     1      10.611  -4.986  24.960  0.00  0.00    -0.265 OA
ATOM     10  O   UNL     1       7.380  -5.980  27.957  0.00  0.00    -0.247 OA
ATOM     11  C   UNL     1       8.555  -3.767  24.782  0.00  0.00    +0.169 A 
ATOM     12  N   UNL     1       9.031  -3.067  23.691  0.00  0.00    -0.238 NA
ATOM     13  C   UNL     1       8.255  -2.142  23.216  0.00  0.00    +0.107 A 
ATOM     14  C   UNL     1       6.943  -1.746  23.862  0.00  0.00    +0.274 A 
ATOM     15  O   UNL     1       6.458  -0.674  23.536  0.00  0.00    -0.266 OA
ENDROOT
BRANCH   1  16
ATOM     16  C   UNL     1       5.182  -2.280  25.462  0.00  0.00    +0.161 C 
BRANCH  16  17
ATOM     17  C   UNL     1       3.922  -2.940  24.844  0.00  0.00    +0.165 C 
BRANCH  17  18
ATOM     18  O   UNL     1       2.750  -2.616  25.607  0.00  0.00    -0.387 OA
ATOM     19  H   UNL     1       2.394  -3.449  25.964  0.00  0.00    +0.210 HD
ENDBRANCH  17  18
BRANCH  17  20
ATOM     20  C   UNL     1       4.041  -4.483  24.860  0.00  0.00    +0.175 C 
BRANCH  20  21
ATOM     21  O   UNL     1       2.848  -5.034  25.447  0.00  0.00    -0.387 OA
ATOM     22  H   UNL     1       2.875  -5.992  25.263  0.00  0.00    +0.210 HD
ENDBRANCH  20  21
BRANCH  20  23
ATOM     23  C   UNL     1       4.286  -5.095  23.471  0.00  0.00    +0.171 C 
BRANCH  23  24
ATOM     24  O   UNL     1       3.042  -5.395  22.823  0.00  0.00    -0.387 OA
ATOM     25  H   UNL     1       2.523  -4.566  22.877  0.00  0.00    +0.210 HD
ENDBRANCH  23  24
BRANCH  23  26
ATOM     26  C   UNL     1       5.163  -6.349  23.529  0.00  0.00    +0.189 C 
BRANCH  26  27
ATOM     27  O   UNL     1       4.349  -7.424  24.008  0.00  0.00    -0.392 OA
ATOM     28  H   UNL     1       3.424  -7.182  23.817  0.00  0.00    +0.210 HD
ENDBRANCH  26  27
ENDBRANCH  23  26
ENDBRANCH  20  23
ENDBRANCH  17  20
ENDBRANCH  16  17
ENDBRANCH   1  16
BRANCH  13  29
ATOM     29  C   UNL     1       8.712  -1.391  21.991  0.00  0.00    +0.072 C 
BRANCH  29  30
ATOM     30  C   UNL     1       9.873  -0.460  22.292  0.00  0.00    +0.127 C 
BRANCH  30  31
ATOM     31  C   UNL     1       9.599   1.016  22.485  0.00  0.00    +0.305 C 
ATOM     32  O   UNL     1       9.177   1.441  23.556  0.00  0.00    -0.251 OA
BRANCH  31  33
ATOM     33  O   UNL     1       9.845   1.853  21.467  0.00  0.00    -0.481 OA
ATOM     34  H   UNL     1       9.408   2.732  21.436  0.00  0.00    +0.295 HD
ENDBRANCH  31  33
ENDBRANCH  30  31
ENDBRANCH  29  30
ENDBRANCH  13  29
TORSDOF 13
ENDMDL
MODEL 8
REMARK VINA RESULT:      -5.9      2.791      6.448
REMARK  Name = 
REMARK  13 active torsions:
REMARK  status: ('A' for Active; 'I' for Inactive)
REMARK    1  A    between atoms: O_1  and  C_2
REMARK    2  A    between atoms: C_2  and  C_3
REMARK    3  A    between atoms: C_3  and  O_5
REMARK    4  A    between atoms: C_3  and  C_6
REMARK    5  A    between atoms: C_6  and  O_8
REMARK    6  A    between atoms: C_6  and  C_9
REMARK    7  A    between atoms: C_9  and  O_11
REMARK    8  A    between atoms: C_9  and  C_12
REMARK    9  A    between atoms: C_12  and  N_13
REMARK   10  A    between atoms: C_16  and  C_17
REMARK   11  A    between atoms: C_17  and  C_18
REMARK   12  A    between atoms: C_18  and  C_19
REMARK   13  A    between atoms: C_19  and  O_20
REMARK                            x       y       z     vdW  Elec       q    Type
REMARK                         _______ _______ _______ _____ _____    ______ ____
ROOT
ATOM      1  N   UNL     1       6.542  -2.572  24.487  0.00  0.00    -0.289 N 
ATOM      2  C   UNL     1       7.290  -3.610  25.057  0.00  0.00    +0.149 A 
ATOM      3  N   UNL     1       6.769  -4.392  26.058  0.00  0.00    -0.292 N 
ATOM      4  H   UNL     1       5.813  -4.304  26.368  0.00  0.00    +0.172 HD
ATOM      5  C   UNL     1       7.460  -5.348  26.740  0.00  0.00    +0.328 A 
ATOM      6  N   UNL     1       8.744  -5.546  26.355  0.00  0.00    -0.273 N 
ATOM      7  H   UNL     1       9.277  -6.253  26.839  0.00  0.00    +0.173 HD
ATOM      8  C   UNL     1       9.366  -4.883  25.339  0.00  0.00    +0.282 A 
ATOM      9  O   UNL     1      10.522  -5.147  25.020  0.00  0.00    -0.265 OA
ATOM     10  O   UNL     1       6.943  -5.988  27.645  0.00  0.00    -0.247 OA
ATOM     11  C   UNL     1       8.564  -3.816  24.643  0.00  0.00    +0.169 A 
ATOM     12  N   UNL     1       9.190  -3.134  23.618  0.00  0.00    -0.238 NA
ATOM     13  C   UNL     1       8.519  -2.165  23.076  0.00  0.00    +0.107 A 
ATOM     14  C   UNL     1       7.170  -1.702  23.586  0.00  0.00    +0.274 A 
ATOM     15  O   UNL     1       6.780  -0.603  23.226  0.00  0.00    -0.266 OA
ENDROOT
BRANCH   1  16
ATOM     16  C   UNL     1       5.222  -2.152  24.984  0.00  0.00    +0.161 C 
BRANCH  16  17
ATOM     17  C   UNL     1       5.224  -1.400  26.340  0.00  0.00    +0.165 C 
BRANCH  17  18
ATOM     18  O   UNL     1       4.083  -1.771  27.130  0.00  0.00    -0.387 OA
ATOM     19  H   UNL     1       3.358  -1.163  26.900  0.00  0.00    +0.210 HD
ENDBRANCH  17  18
BRANCH  17  20
ATOM     20  C   UNL     1       5.128   0.129  26.126  0.00  0.00    +0.175 C 
BRANCH  20  21
ATOM     21  O   UNL     1       4.079   0.650  26.964  0.00  0.00    -0.387 OA
ATOM     22  H   UNL     1       3.252   0.246  26.642  0.00  0.00    +0.210 HD
ENDBRANCH  20  21
BRANCH  20  23
ATOM     23  C   UNL     1       6.447   0.872  26.395  0.00  0.00    +0.171 C 
BRANCH  23  24
ATOM     24  O   UNL     1       6.923   1.507  25.201  0.00  0.00    -0.387 OA
ATOM     25  H   UNL     1       6.161   2.025  24.869  0.00  0.00    +0.210 HD
ENDBRANCH  23  24
BRANCH  23  26
ATOM     26  C   UNL     1       7.530  -0.045  26.969  0.00  0.00    +0.189 C 
BRANCH  26  27
ATOM     27  O   UNL     1       8.722   0.163  26.205  0.00  0.00    -0.392 OA
ATOM     28  H   UNL     1       8.646   1.047  25.802  0.00  0.00    +0.210 HD
ENDBRANCH  26  27
ENDBRANCH  23  26
ENDBRANCH  20  23
ENDBRANCH  17  20
ENDBRANCH  16  17
ENDBRANCH   1  16
BRANCH  13  29
ATOM     29  C   UNL     1       9.143  -1.429  21.917  0.00  0.00    +0.072 C 
BRANCH  29  30
ATOM     30  C   UNL     1      10.197  -0.435  22.372  0.00  0.00    +0.127 C 
BRANCH  30  31
ATOM     31  C   UNL     1       9.807   1.016  22.554  0.00  0.00    +0.305 C 
ATOM     32  O   UNL     1       9.382   1.422  23.631  0.00  0.00    -0.251 OA
BRANCH  31  33
ATOM     33  O   UNL     1       9.952   1.854  21.517  0.00  0.00    -0.481 OA
ATOM     34  H   UNL     1       9.442   2.694  21.487  0.00  0.00    +0.295 HD
ENDBRANCH  31  33
ENDBRANCH  30  31
ENDBRANCH  29  30
ENDBRANCH  13  29
TORSDOF 13
ENDMDL
MODEL 9
REMARK VINA RESULT:      -5.9      2.673      7.153
REMARK  Name = 
REMARK  13 active torsions:
REMARK  status: ('A' for Active; 'I' for Inactive)
REMARK    1  A    between atoms: O_1  and  C_2
REMARK    2  A    between atoms: C_2  and  C_3
REMARK    3  A    between atoms: C_3  and  O_5
REMARK    4  A    between atoms: C_3  and  C_6
REMARK    5  A    between atoms: C_6  and  O_8
REMARK    6  A    between atoms: C_6  and  C_9
REMARK    7  A    between atoms: C_9  and  O_11
REMARK    8  A    between atoms: C_9  and  C_12
REMARK    9  A    between atoms: C_12  and  N_13
REMARK   10  A    between atoms: C_16  and  C_17
REMARK   11  A    between atoms: C_17  and  C_18
REMARK   12  A    between atoms: C_18  and  C_19
REMARK   13  A    between atoms: C_19  and  O_20
REMARK                            x       y       z     vdW  Elec       q    Type
REMARK                         _______ _______ _______ _____ _____    ______ ____
ROOT
ATOM      1  N   UNL     1       8.377  -2.281  23.965  0.00  0.00    -0.289 N 
ATOM      2  C   UNL     1       7.665  -1.977  25.134  0.00  0.00    +0.149 A 
ATOM      3  N   UNL     1       6.623  -2.764  25.555  0.00  0.00    -0.292 N 
ATOM      4  H   UNL     1       6.378  -3.626  25.091  0.00  0.00    +0.172 HD
ATOM      5  C   UNL     1       5.812  -2.484  26.613  0.00  0.00    +0.328 A 
ATOM      6  N   UNL     1       6.103  -1.358  27.307  0.00  0.00    -0.273 N 
ATOM      7  H   UNL     1       5.523  -1.129  28.100  0.00  0.00    +0.173 HD
ATOM      8  C   UNL     1       7.143  -0.519  27.034  0.00  0.00    +0.282 A 
ATOM      9  O   UNL     1       7.369   0.463  27.735  0.00  0.00    -0.265 OA
ATOM     10  O   UNL     1       4.879  -3.215  26.915  0.00  0.00    -0.247 OA
ATOM     11  C   UNL     1       7.985  -0.861  25.835  0.00  0.00    +0.169 A 
ATOM     12  N   UNL     1       9.035  -0.012  25.547  0.00  0.00    -0.238 NA
ATOM     13  C   UNL     1       9.707  -0.270  24.467  0.00  0.00    +0.107 A 
ATOM     14  C   UNL     1       9.322  -1.363  23.491  0.00  0.00    +0.274 A 
ATOM     15  O   UNL     1       9.811  -1.316  22.373  0.00  0.00    -0.266 OA
ENDROOT
BRANCH   1  16
ATOM     16  C   UNL     1       7.998  -3.362  23.042  0.00  0.00    +0.161 C 
BRANCH  16  17
ATOM     17  C   UNL     1       6.811  -3.051  22.095  0.00  0.00    +0.165 C 
BRANCH  17  18
ATOM     18  O   UNL     1       5.999  -1.991  22.625  0.00  0.00    -0.387 OA
ATOM     19  H   UNL     1       5.123  -2.367  22.824  0.00  0.00    +0.210 HD
ENDBRANCH  17  18
BRANCH  17  20
ATOM     20  C   UNL     1       5.883  -4.280  21.946  0.00  0.00    +0.175 C 
BRANCH  20  21
ATOM     21  O   UNL     1       5.875  -4.692  20.567  0.00  0.00    -0.387 OA
ATOM     22  H   UNL     1       6.011  -5.658  20.574  0.00  0.00    +0.210 HD
ENDBRANCH  20  21
BRANCH  20  23
ATOM     23  C   UNL     1       6.271  -5.457  22.855  0.00  0.00    +0.171 C 
BRANCH  23  24
ATOM     24  O   UNL     1       6.391  -6.667  22.094  0.00  0.00    -0.387 OA
ATOM     25  H   UNL     1       6.851  -6.403  21.270  0.00  0.00    +0.210 HD
ENDBRANCH  23  24
BRANCH  23  26
ATOM     26  C   UNL     1       5.285  -5.659  24.009  0.00  0.00    +0.189 C 
BRANCH  26  27
ATOM     27  O   UNL     1       6.037  -5.654  25.226  0.00  0.00    -0.392 OA
ATOM     28  H   UNL     1       5.534  -5.115  25.864  0.00  0.00    +0.210 HD
ENDBRANCH  26  27
ENDBRANCH  23  26
ENDBRANCH  20  23
ENDBRANCH  17  20
ENDBRANCH  16  17
ENDBRANCH   1  16
BRANCH  13  29
ATOM     29  C   UNL     1      10.896   0.599  24.144  0.00  0.00    +0.072 C 
BRANCH  29  30
ATOM     30  C   UNL     1      10.490   2.026  23.820  0.00  0.00    +0.127 C 
BRANCH  30  31
ATOM     31  C   UNL     1       9.529   2.273  22.677  0.00  0.00    +0.305 C 
ATOM     32  O   UNL     1       8.482   2.888  22.859  0.00  0.00    -0.251 OA
BRANCH  31  33
ATOM     33  O   UNL     1       9.853   1.821  21.457  0.00  0.00    -0.481 OA
ATOM     34  H   UNL     1       9.541   2.298  20.657  0.00  0.00    +0.295 HD
ENDBRANCH  31  33
ENDBRANCH  30  31
ENDBRANCH  29  30
ENDBRANCH  13  29
TORSDOF 13
ENDMDL
