MODEL 1
REMARK VINA RESULT:      -6.5      0.000      0.000
REMARK  Name = 
REMARK  5 active torsions:
REMARK  status: ('A' for Active; 'I' for Inactive)
REMARK    1  A    between atoms: C_4  and  O_5
REMARK    2  A    between atoms: O_5  and  C_6
REMARK    3  A    between atoms: C_6  and  C_7
REMARK    4  A    between atoms: C_7  and  O_8
REMARK    5  A    between atoms: O_8  and  C_9
REMARK                            x       y       z     vdW  Elec       q    Type
REMARK                         _______ _______ _______ _____ _____    ______ ____
ROOT
ATOM      1  N   UNL     1      10.229  -5.659  25.703  0.00  0.00    -0.327 N 
ATOM      2  H   UNL     1      10.264  -6.379  26.409  0.00  0.00    +0.145 HD
ATOM      3  H   UNL     1      10.852  -5.731  24.912  0.00  0.00    +0.145 HD
ATOM      4  C   UNL     1       8.935  -5.397  25.302  0.00  0.00    +0.220 A 
ATOM      5  N   UNL     1       7.957  -5.703  26.140  0.00  0.00    -0.181 NA
ATOM      6  C   UNL     1       6.739  -5.380  25.732  0.00  0.00    +0.220 A 
ATOM      7  N   UNL     1       5.702  -5.609  26.610  0.00  0.00    -0.327 N 
ATOM      8  H   UNL     1       5.941  -6.310  27.297  0.00  0.00    +0.145 HD
ATOM      9  H   UNL     1       4.810  -5.677  26.142  0.00  0.00    +0.145 HD
ATOM     10  N   UNL     1       6.443  -4.864  24.550  0.00  0.00    -0.161 NA
ATOM     11  C   UNL     1       7.503  -4.627  23.788  0.00  0.00    +0.324 A 
ATOM     12  N   UNL     1       8.768  -4.868  24.107  0.00  0.00    -0.161 NA
ENDROOT
BRANCH  11  13
ATOM     13  O   UNL     1       7.345  -3.987  22.580  0.00  0.00    -0.459 OA
BRANCH  13  14
ATOM     14  C   UNL     1       7.376  -2.564  22.666  0.00  0.00    +0.273 C 
BRANCH  14  15
ATOM     15  C   UNL     1       8.637  -2.099  21.937  0.00  0.00    +0.270 C 
BRANCH  15  16
ATOM     16  O   UNL     1       9.658  -1.773  22.878  0.00  0.00    -0.489 OA
BRANCH  16  17
ATOM     17  C   UNL     1       9.947  -0.441  23.026  0.00  0.00    +0.121 A 
ATOM     18  C   UNL     1       9.682   0.347  21.901  0.00  0.00    +0.045 A 
ATOM     19  C   UNL     1       9.925   1.723  21.921  0.00  0.00    +0.004 A 
ATOM     20  C   UNL     1      10.438   2.322  23.069  0.00  0.00    +0.000 A 
ATOM     21  C   UNL     1      10.709   1.543  24.192  0.00  0.00    +0.004 A 
ATOM     22  C   UNL     1      10.468   0.167  24.171  0.00  0.00    +0.045 A 
ENDBRANCH  16  17
ENDBRANCH  15  16
ENDBRANCH  14  15
ENDBRANCH  13  14
ENDBRANCH  11  13
TORSDOF 5
ENDMDL
MODEL 2
REMARK VINA RESULT:      -6.2      0.538      1.253
REMARK  Name = 
REMARK  5 active torsions:
REMARK  status: ('A' for Active; 'I' for Inactive)
REMARK    1  A    between atoms: C_4  and  O_5
REMARK    2  A    between atoms: O_5  and  C_6
REMARK    3  A    between atoms: C_6  and  C_7
REMARK    4  A    between atoms: C_7  and  O_8
REMARK    5  A    between atoms: O_8  and  C_9
REMARK                            x       y       z     vdW  Elec       q    Type
REMARK                         _______ _______ _______ _____ _____    ______ ____
ROOT
ATOM      1  N   UNL     1       9.668  -4.938  26.740  0.00  0.00    -0.327 N 
ATOM      2  H   UNL     1       9.709  -5.621  27.481  0.00  0.00    +0.145 HD
ATOM      3  H   UNL     1      10.488  -4.805  26.165  0.00  0.00    +0.145 HD
ATOM      4  C   UNL     1       8.532  -5.080  25.972  0.00  0.00    +0.220 A 
ATOM      5  N   UNL     1       7.489  -5.682  26.522  0.00  0.00    -0.181 NA
ATOM      6  C   UNL     1       6.404  -5.743  25.763  0.00  0.00    +0.220 A 
ATOM      7  N   UNL     1       5.273  -6.291  26.329  0.00  0.00    -0.327 N 
ATOM      8  H   UNL     1       5.498  -6.893  27.109  0.00  0.00    +0.145 HD
ATOM      9  H   UNL     1       4.619  -6.623  25.636  0.00  0.00    +0.145 HD
ATOM     10  N   UNL     1       6.327  -5.329  24.509  0.00  0.00    -0.161 NA
ATOM     11  C   UNL     1       7.443  -4.768  24.060  0.00  0.00    +0.324 A 
ATOM     12  N   UNL     1       8.571  -4.614  24.740  0.00  0.00    -0.161 NA
ENDROOT
BRANCH  11  13
ATOM     13  O   UNL     1       7.462  -4.193  22.810  0.00  0.00    -0.459 OA
BRANCH  13  14
ATOM     14  C   UNL     1       7.320  -2.774  22.820  0.00  0.00    +0.273 C 
BRANCH  14  15
ATOM     15  C   UNL     1       8.493  -2.203  22.023  0.00  0.00    +0.270 C 
BRANCH  15  16
ATOM     16  O   UNL     1       9.539  -1.801  22.906  0.00  0.00    -0.489 OA
BRANCH  16  17
ATOM     17  C   UNL     1       9.833  -0.461  22.932  0.00  0.00    +0.121 A 
ATOM     18  C   UNL     1      10.347   0.006  24.146  0.00  0.00    +0.045 A 
ATOM     19  C   UNL     1      10.694   1.350  24.303  0.00  0.00    +0.004 A 
ATOM     20  C   UNL     1      10.528   2.240  23.245  0.00  0.00    +0.000 A 
ATOM     21  C   UNL     1      10.013   1.783  22.034  0.00  0.00    +0.004 A 
ATOM     22  C   UNL     1       9.664   0.439  21.877  0.00  0.00    +0.045 A 
ENDBRANCH  16  17
ENDBRANCH  15  16
ENDBRANCH  14  15
ENDBRANCH  13  14
ENDBRANCH  11  13
TORSDOF 5
ENDMDL
MODEL 3
REMARK VINA RESULT:      -6.2      3.687      6.834
REMARK  Name = 
REMARK  5 active torsions:
REMARK  status: ('A' for Active; 'I' for Inactive)
REMARK    1  A    between atoms: C_4  and  O_5
REMARK    2  A    between atoms: O_5  and  C_6
REMARK    3  A    between atoms: C_6  and  C_7
REMARK    4  A    between atoms: C_7  and  O_8
REMARK    5  A    between atoms: O_8  and  C_9
REMARK                            x       y       z     vdW  Elec       q    Type
REMARK                         _______ _______ _______ _____ _____    ______ ____
ROOT
ATOM      1  N   UNL     1       5.988   1.130  23.305  0.00  0.00    -0.327 N 
ATOM      2  H   UNL     1       5.699   2.018  22.922  0.00  0.00    +0.145 HD
ATOM      3  H   UNL     1       5.330   0.364  23.290  0.00  0.00    +0.145 HD
ATOM      4  C   UNL     1       7.223   0.743  22.828  0.00  0.00    +0.220 A 
ATOM      5  N   UNL     1       8.033   1.689  22.379  0.00  0.00    -0.181 NA
ATOM      6  C   UNL     1       9.227   1.272  21.984  0.00  0.00    +0.220 A 
ATOM      7  N   UNL     1      10.128   2.236  21.586  0.00  0.00    -0.327 N 
ATOM      8  H   UNL     1       9.665   3.088  21.305  0.00  0.00    +0.145 HD
ATOM      9  H   UNL     1      10.852   1.862  20.991  0.00  0.00    +0.145 HD
ATOM     10  N   UNL     1       9.616   0.008  21.937  0.00  0.00    -0.161 NA
ATOM     11  C   UNL     1       8.709  -0.850  22.387  0.00  0.00    +0.324 A 
ATOM     12  N   UNL     1       7.501  -0.545  22.845  0.00  0.00    -0.161 NA
ENDROOT
BRANCH  11  13
ATOM     13  O   UNL     1       9.027  -2.183  22.498  0.00  0.00    -0.459 OA
BRANCH  13  14
ATOM     14  C   UNL     1       9.777  -2.508  23.667  0.00  0.00    +0.273 C 
BRANCH  14  15
ATOM     15  C   UNL     1       8.887  -3.395  24.537  0.00  0.00    +0.270 C 
BRANCH  15  16
ATOM     16  O   UNL     1       8.829  -4.715  23.997  0.00  0.00    -0.489 OA
BRANCH  16  17
ATOM     17  C   UNL     1       7.621  -5.106  23.477  0.00  0.00    +0.121 A 
ATOM     18  C   UNL     1       6.527  -4.919  24.326  0.00  0.00    +0.045 A 
ATOM     19  C   UNL     1       5.238  -5.270  23.916  0.00  0.00    +0.004 A 
ATOM     20  C   UNL     1       5.035  -5.814  22.650  0.00  0.00    +0.000 A 
ATOM     21  C   UNL     1       6.121  -6.007  21.799  0.00  0.00    +0.004 A 
ATOM     22  C   UNL     1       7.410  -5.658  22.211  0.00  0.00    +0.045 A 
ENDBRANCH  16  17
ENDBRANCH  15  16
ENDBRANCH  14  15
ENDBRANCH  13  14
ENDBRANCH  11  13
TORSDOF 5
ENDMDL
MODEL 4
REMARK VINA RESULT:      -6.2      0.766      2.042
REMARK  Name = 
REMARK  5 active torsions:
REMARK  status: ('A' for Active; 'I' for Inactive)
REMARK    1  A    between atoms: C_4  and  O_5
REMARK    2  A    between atoms: O_5  and  C_6
REMARK    3  A    between atoms: C_6  and  C_7
REMARK    4  A    between atoms: C_7  and  O_8
REMARK    5  A    between atoms: O_8  and  C_9
REMARK                            x       y       z     vdW  Elec       q    Type
REMARK                         _______ _______ _______ _____ _____    ______ ____
ROOT
ATOM      1  N   UNL     1       5.715  -5.647  26.383  0.00  0.00    -0.327 N 
ATOM      2  H   UNL     1       5.960  -5.745  27.357  0.00  0.00    +0.145 HD
ATOM      3  H   UNL     1       4.901  -5.099  26.146  0.00  0.00    +0.145 HD
ATOM      4  C   UNL     1       6.803  -5.290  25.614  0.00  0.00    +0.220 A 
ATOM      5  N   UNL     1       8.007  -5.581  26.080  0.00  0.00    -0.181 NA
ATOM      6  C   UNL     1       9.016  -5.269  25.279  0.00  0.00    +0.220 A 
ATOM      7  N   UNL     1      10.280  -5.629  25.693  0.00  0.00    -0.327 N 
ATOM      8  H   UNL     1      10.324  -5.759  26.694  0.00  0.00    +0.145 HD
ATOM      9  H   UNL     1      11.001  -5.082  25.245  0.00  0.00    +0.145 HD
ATOM     10  N   UNL     1       8.903  -4.637  24.123  0.00  0.00    -0.161 NA
ATOM     11  C   UNL     1       7.649  -4.374  23.775  0.00  0.00    +0.324 A 
ATOM     12  N   UNL     1       6.562  -4.676  24.473  0.00  0.00    -0.161 NA
ENDROOT
BRANCH  11  13
ATOM     13  O   UNL     1       7.385  -3.821  22.543  0.00  0.00    -0.459 OA
BRANCH  13  14
ATOM     14  C   UNL     1       6.328  -2.863  22.549  0.00  0.00    +0.273 C 
BRANCH  14  15
ATOM     15  C   UNL     1       6.953  -1.511  22.893  0.00  0.00    +0.270 C 
BRANCH  15  16
ATOM     16  O   UNL     1       8.240  -1.395  22.288  0.00  0.00    -0.489 OA
BRANCH  16  17
ATOM     17  C   UNL     1       9.025  -0.356  22.720  0.00  0.00    +0.121 A 
ATOM     18  C   UNL     1       9.223   0.661  21.782  0.00  0.00    +0.045 A 
ATOM     19  C   UNL     1       9.997   1.781  22.097  0.00  0.00    +0.004 A 
ATOM     20  C   UNL     1      10.581   1.891  23.357  0.00  0.00    +0.000 A 
ATOM     21  C   UNL     1      10.391   0.880  24.296  0.00  0.00    +0.004 A 
ATOM     22  C   UNL     1       9.619  -0.242  23.980  0.00  0.00    +0.045 A 
ENDBRANCH  16  17
ENDBRANCH  15  16
ENDBRANCH  14  15
ENDBRANCH  13  14
ENDBRANCH  11  13
TORSDOF 5
ENDMDL
MODEL 5
REMARK VINA RESULT:      -6.1      1.443      2.548
REMARK  Name = 
REMARK  5 active torsions:
REMARK  status: ('A' for Active; 'I' for Inactive)
REMARK    1  A    between atoms: C_4  and  O_5
REMARK    2  A    between atoms: O_5  and  C_6
REMARK    3  A    between atoms: C_6  and  C_7
REMARK    4  A    between atoms: C_7  and  O_8
REMARK    5  A    between atoms: O_8  and  C_9
REMARK                            x       y       z     vdW  Elec       q    Type
REMARK                         _______ _______ _______ _____ _____    ______ ____
ROOT
ATOM      1  N   UNL     1       4.280  -6.271  22.936  0.00  0.00    -0.327 N 
ATOM      2  H   UNL     1       3.372  -6.320  23.373  0.00  0.00    +0.145 HD
ATOM      3  H   UNL     1       4.375  -5.737  22.085  0.00  0.00    +0.145 HD
ATOM      4  C   UNL     1       5.269  -5.953  23.844  0.00  0.00    +0.220 A 
ATOM      5  N   UNL     1       5.041  -6.218  25.120  0.00  0.00    -0.181 NA
ATOM      6  C   UNL     1       6.044  -5.946  25.943  0.00  0.00    +0.220 A 
ATOM      7  N   UNL     1       5.876  -6.283  27.269  0.00  0.00    -0.327 N 
ATOM      8  H   UNL     1       4.899  -6.362  27.515  0.00  0.00    +0.145 HD
ATOM      9  H   UNL     1       6.485  -5.758  27.879  0.00  0.00    +0.145 HD
ATOM     10  N   UNL     1       7.183  -5.372  25.593  0.00  0.00    -0.161 NA
ATOM     11  C   UNL     1       7.284  -5.129  24.292  0.00  0.00    +0.324 A 
ATOM     12  N   UNL     1       6.367  -5.397  23.371  0.00  0.00    -0.161 NA
ENDROOT
BRANCH  11  13
ATOM     13  O   UNL     1       8.462  -4.639  23.779  0.00  0.00    -0.459 OA
BRANCH  13  14
ATOM     14  C   UNL     1       8.457  -3.232  23.548  0.00  0.00    +0.273 C 
BRANCH  14  15
ATOM     15  C   UNL     1       9.825  -2.703  23.979  0.00  0.00    +0.270 C 
BRANCH  15  16
ATOM     16  O   UNL     1      10.473  -2.063  22.881  0.00  0.00    -0.489 OA
BRANCH  16  17
ATOM     17  C   UNL     1      10.243  -0.718  22.737  0.00  0.00    +0.121 A 
ATOM     18  C   UNL     1      10.679   0.071  23.805  0.00  0.00    +0.045 A 
ATOM     19  C   UNL     1      10.511   1.458  23.782  0.00  0.00    +0.004 A 
ATOM     20  C   UNL     1       9.902   2.067  22.688  0.00  0.00    +0.000 A 
ATOM     21  C   UNL     1       9.461   1.287  21.621  0.00  0.00    +0.004 A 
ATOM     22  C   UNL     1       9.627  -0.101  21.645  0.00  0.00    +0.045 A 
ENDBRANCH  16  17
ENDBRANCH  15  16
ENDBRANCH  14  15
ENDBRANCH  13  14
ENDBRANCH  11  13
TORSDOF 5
ENDMDL
MODEL 6
REMARK VINA RESULT:      -6.0      3.441      4.392
REMARK  Name = 
REMARK  5 active torsions:
REMARK  status: ('A' for Active; 'I' for Inactive)
REMARK    1  A    between atoms: C_4  and  O_5
REMARK    2  A    between atoms: O_5  and  C_6
REMARK    3  A    between atoms: C_6  and  C_7
REMARK    4  A    between atoms: C_7  and  O_8
REMARK    5  A    between atoms: O_8  and  C_9
REMARK                            x       y       z     vdW  Elec       q    Type
REMARK                         _______ _______ _______ _____ _____    ______ ____
ROOT
ATOM      1  N   UNL     1       7.636   1.370  27.003  0.00  0.00    -0.327 N 
ATOM      2  H   UNL     1       7.109   2.227  27.076  0.00  0.00    +0.145 HD
ATOM      3  H   UNL     1       7.669   0.757  27.804  0.00  0.00    +0.145 HD
ATOM      4  C   UNL     1       7.328   0.676  25.851  0.00  0.00    +0.220 A 
ATOM      5  N   UNL     1       6.826   1.361  24.835  0.00  0.00    -0.181 NA
ATOM      6  C   UNL     1       6.600   0.659  23.734  0.00  0.00    +0.220 A 
ATOM      7  N   UNL     1       6.153   1.351  22.630  0.00  0.00    -0.327 N 
ATOM      8  H   UNL     1       5.716   2.225  22.887  0.00  0.00    +0.145 HD
ATOM      9  H   UNL     1       5.682   0.753  21.967  0.00  0.00    +0.145 HD
ATOM     10  N   UNL     1       6.765  -0.649  23.617  0.00  0.00    -0.161 NA
ATOM     11  C   UNL     1       7.248  -1.229  24.708  0.00  0.00    +0.324 A 
ATOM     12  N   UNL     1       7.550  -0.623  25.850  0.00  0.00    -0.161 NA
ENDROOT
BRANCH  11  13
ATOM     13  O   UNL     1       7.572  -2.565  24.684  0.00  0.00    -0.459 OA
BRANCH  13  14
ATOM     14  C   UNL     1       8.337  -2.959  23.546  0.00  0.00    +0.273 C 
BRANCH  14  15
ATOM     15  C   UNL     1       9.799  -2.641  23.858  0.00  0.00    +0.270 C 
BRANCH  15  16
ATOM     16  O   UNL     1      10.393  -1.938  22.767  0.00  0.00    -0.489 OA
BRANCH  16  17
ATOM     17  C   UNL     1      10.256  -0.573  22.776  0.00  0.00    +0.121 A 
ATOM     18  C   UNL     1      10.628   0.049  23.971  0.00  0.00    +0.045 A 
ATOM     19  C   UNL     1      10.543   1.437  24.110  0.00  0.00    +0.004 A 
ATOM     20  C   UNL     1      10.081   2.215  23.050  0.00  0.00    +0.000 A 
ATOM     21  C   UNL     1       9.705   1.602  21.857  0.00  0.00    +0.004 A 
ATOM     22  C   UNL     1       9.788   0.214  21.720  0.00  0.00    +0.045 A 
ENDBRANCH  16  17
ENDBRANCH  15  16
ENDBRANCH  14  15
ENDBRANCH  13  14
ENDBRANCH  11  13
TORSDOF 5
ENDMDL
MODEL 7
REMARK VINA RESULT:      -6.0      1.740      2.942
REMARK  Name = 
REMARK  5 active torsions:
REMARK  status: ('A' for Active; 'I' for Inactive)
REMARK    1  A    between atoms: C_4  and  O_5
REMARK    2  A    between atoms: O_5  and  C_6
REMARK    3  A    between atoms: C_6  and  C_7
REMARK    4  A    between atoms: C_7  and  O_8
REMARK    5  A    between atoms: O_8  and  C_9
REMARK                            x       y       z     vdW  Elec       q    Type
REMARK                         _______ _______ _______ _____ _____    ______ ____
ROOT
ATOM      1  N   UNL     1       6.424  -5.014  22.960  0.00  0.00    -0.327 N 
ATOM      2  H   UNL     1       6.021  -5.729  23.546  0.00  0.00    +0.145 HD
ATOM      3  H   UNL     1       5.821  -4.283  22.612  0.00  0.00    +0.145 HD
ATOM      4  C   UNL     1       7.580  -4.495  23.505  0.00  0.00    +0.220 A 
ATOM      5  N   UNL     1       8.244  -5.246  24.369  0.00  0.00    -0.181 NA
ATOM      6  C   UNL     1       9.376  -4.726  24.820  0.00  0.00    +0.220 A 
ATOM      7  N   UNL     1      10.136  -5.511  25.661  0.00  0.00    -0.327 N 
ATOM      8  H   UNL     1       9.581  -6.226  26.109  0.00  0.00    +0.145 HD
ATOM      9  H   UNL     1      10.769  -4.966  26.226  0.00  0.00    +0.145 HD
ATOM     10  N   UNL     1       9.826  -3.516  24.533  0.00  0.00    -0.161 NA
ATOM     11  C   UNL     1       9.062  -2.848  23.677  0.00  0.00    +0.324 A 
ATOM     12  N   UNL     1       7.935  -3.282  23.129  0.00  0.00    -0.161 NA
ENDROOT
BRANCH  11  13
ATOM     13  O   UNL     1       9.475  -1.623  23.207  0.00  0.00    -0.459 OA
BRANCH  13  14
ATOM     14  C   UNL     1       9.519  -1.530  21.785  0.00  0.00    +0.273 C 
BRANCH  14  15
ATOM     15  C   UNL     1       9.359  -0.051  21.428  0.00  0.00    +0.270 C 
BRANCH  15  16
ATOM     16  O   UNL     1      10.188   0.750  22.270  0.00  0.00    -0.489 OA
BRANCH  16  17
ATOM     17  C   UNL     1       9.670   1.958  22.661  0.00  0.00    +0.121 A 
ATOM     18  C   UNL     1       8.400   2.247  22.151  0.00  0.00    +0.045 A 
ATOM     19  C   UNL     1       7.756   3.444  22.478  0.00  0.00    +0.004 A 
ATOM     20  C   UNL     1       8.380   4.363  23.318  0.00  0.00    +0.000 A 
ATOM     21  C   UNL     1       9.647   4.084  23.826  0.00  0.00    +0.004 A 
ATOM     22  C   UNL     1      10.292   2.888  23.498  0.00  0.00    +0.045 A 
ENDBRANCH  16  17
ENDBRANCH  15  16
ENDBRANCH  14  15
ENDBRANCH  13  14
ENDBRANCH  11  13
TORSDOF 5
ENDMDL
MODEL 8
REMARK VINA RESULT:      -6.0      3.283      6.504
REMARK  Name = 
REMARK  5 active torsions:
REMARK  status: ('A' for Active; 'I' for Inactive)
REMARK    1  A    between atoms: C_4  and  O_5
REMARK    2  A    between atoms: O_5  and  C_6
REMARK    3  A    between atoms: C_6  and  C_7
REMARK    4  A    between atoms: C_7  and  O_8
REMARK    5  A    between atoms: O_8  and  C_9
REMARK                            x       y       z     vdW  Elec       q    Type
REMARK                         _______ _______ _______ _____ _____    ______ ____
ROOT
ATOM      1  N   UNL     1       9.973   2.236  21.493  0.00  0.00    -0.327 N 
ATOM      2  H   UNL     1      10.626   2.897  21.886  0.00  0.00    +0.145 HD
ATOM      3  H   UNL     1      10.075   1.980  20.522  0.00  0.00    +0.145 HD
ATOM      4  C   UNL     1       9.824   1.123  22.294  0.00  0.00    +0.220 A 
ATOM      5  N   UNL     1      10.115   1.247  23.580  0.00  0.00    -0.181 NA
ATOM      6  C   UNL     1       9.902   0.166  24.316  0.00  0.00    +0.220 A 
ATOM      7  N   UNL     1      10.117   0.278  25.672  0.00  0.00    -0.327 N 
ATOM      8  H   UNL     1      10.740   1.043  25.891  0.00  0.00    +0.145 HD
ATOM      9  H   UNL     1      10.278  -0.616  26.111  0.00  0.00    +0.145 HD
ATOM     10  N   UNL     1       9.509  -1.008  23.849  0.00  0.00    -0.161 NA
ATOM     11  C   UNL     1       9.275  -1.016  22.543  0.00  0.00    +0.324 A 
ATOM     12  N   UNL     1       9.412   0.013  21.716  0.00  0.00    -0.161 NA
ENDROOT
BRANCH  11  13
ATOM     13  O   UNL     1       8.753  -2.142  21.950  0.00  0.00    -0.459 OA
BRANCH  13  14
ATOM     14  C   UNL     1       7.484  -2.537  22.467  0.00  0.00    +0.273 C 
BRANCH  14  15
ATOM     15  C   UNL     1       7.542  -4.049  22.688  0.00  0.00    +0.270 C 
BRANCH  15  16
ATOM     16  O   UNL     1       8.287  -4.345  23.869  0.00  0.00    -0.489 OA
BRANCH  16  17
ATOM     17  C   UNL     1       7.571  -4.826  24.936  0.00  0.00    +0.121 A 
ATOM     18  C   UNL     1       6.293  -5.297  24.622  0.00  0.00    +0.045 A 
ATOM     19  C   UNL     1       5.462  -5.819  25.617  0.00  0.00    +0.004 A 
ATOM     20  C   UNL     1       5.905  -5.873  26.936  0.00  0.00    +0.000 A 
ATOM     21  C   UNL     1       7.176  -5.402  27.257  0.00  0.00    +0.004 A 
ATOM     22  C   UNL     1       8.006  -4.877  26.262  0.00  0.00    +0.045 A 
ENDBRANCH  16  17
ENDBRANCH  15  16
ENDBRANCH  14  15
ENDBRANCH  13  14
ENDBRANCH  11  13
TORSDOF 5
ENDMDL
MODEL 9
REMARK VINA RESULT:      -6.0      1.566      2.787
REMARK  Name = 
REMARK  5 active torsions:
REMARK  status: ('A' for Active; 'I' for Inactive)
REMARK    1  A    between atoms: C_4  and  O_5
REMARK    2  A    between atoms: O_5  and  C_6
REMARK    3  A    between atoms: C_6  and  C_7
REMARK    4  A    between atoms: C_7  and  O_8
REMARK    5  A    between atoms: O_8  and  C_9
REMARK                            x       y       z     vdW  Elec       q    Type
REMARK                         _______ _______ _______ _____ _____    ______ ____
ROOT
ATOM      1  N   UNL     1       5.278  -5.932  25.981  0.00  0.00    -0.327 N 
ATOM      2  H   UNL     1       4.610  -6.682  25.881  0.00  0.00    +0.145 HD
ATOM      3  H   UNL     1       5.870  -5.923  26.799  0.00  0.00    +0.145 HD
ATOM      4  C   UNL     1       6.009  -5.740  24.828  0.00  0.00    +0.220 A 
ATOM      5  N   UNL     1       5.479  -6.152  23.687  0.00  0.00    -0.181 NA
ATOM      6  C   UNL     1       6.196  -5.894  22.603  0.00  0.00    +0.220 A 
ATOM      7  N   UNL     1       5.641  -6.236  21.388  0.00  0.00    -0.327 N 
ATOM      8  H   UNL     1       4.935  -6.952  21.487  0.00  0.00    +0.145 HD
ATOM      9  H   UNL     1       6.336  -6.341  20.665  0.00  0.00    +0.145 HD
ATOM     10  N   UNL     1       7.398  -5.342  22.597  0.00  0.00    -0.161 NA
ATOM     11  C   UNL     1       7.835  -4.996  23.802  0.00  0.00    +0.324 A 
ATOM     12  N   UNL     1       7.190  -5.166  24.948  0.00  0.00    -0.161 NA
ENDROOT
BRANCH  11  13
ATOM     13  O   UNL     1       9.021  -4.311  23.926  0.00  0.00    -0.459 OA
BRANCH  13  14
ATOM     14  C   UNL     1       9.152  -3.589  25.149  0.00  0.00    +0.273 C 
BRANCH  14  15
ATOM     15  C   UNL     1       9.083  -2.102  24.800  0.00  0.00    +0.270 C 
BRANCH  15  16
ATOM     16  O   UNL     1       9.919  -1.820  23.679  0.00  0.00    -0.489 OA
BRANCH  16  17
ATOM     17  C   UNL     1      10.021  -0.502  23.312  0.00  0.00    +0.121 A 
ATOM     18  C   UNL     1      10.449   0.360  24.326  0.00  0.00    +0.045 A 
ATOM     19  C   UNL     1      10.602   1.727  24.082  0.00  0.00    +0.004 A 
ATOM     20  C   UNL     1      10.326   2.243  22.818  0.00  0.00    +0.000 A 
ATOM     21  C   UNL     1       9.895   1.391  21.804  0.00  0.00    +0.004 A 
ATOM     22  C   UNL     1       9.740   0.024  22.048  0.00  0.00    +0.045 A 
ENDBRANCH  16  17
ENDBRANCH  15  16
ENDBRANCH  14  15
ENDBRANCH  13  14
ENDBRANCH  11  13
TORSDOF 5
ENDMDL
