MODEL 1
REMARK VINA RESULT:      -6.6      0.000      0.000
REMARK  Name = 
REMARK  4 active torsions:
REMARK  status: ('A' for Active; 'I' for Inactive)
REMARK    1  A    between atoms: C_8  and  C_9
REMARK    2  A    between atoms: N_11  and  C_12
REMARK    3  A    between atoms: C_16  and  C_17
REMARK    4  A    between atoms: N_19  and  C_20
REMARK                            x       y       z     vdW  Elec       q    Type
REMARK                         _______ _______ _______ _____ _____    ______ ____
ROOT
ATOM      1  C   UNL     1       7.298  -4.751  23.011  0.00  0.00    +0.084 A 
ATOM      2  C   UNL     1       6.345  -5.415  23.853  0.00  0.00    +0.168 A 
ATOM      3  N   UNL     1       5.693  -6.392  23.180  0.00  0.00    -0.167 NA
ATOM      4  N   UNL     1       6.216  -6.332  21.945  0.00  0.00    -0.282 N 
ATOM      5  H   UNL     1       5.880  -6.986  21.240  0.00  0.00    +0.188 HD
ATOM      6  C   UNL     1       7.169  -5.375  21.792  0.00  0.00    +0.129 A 
ENDROOT
BRANCH   1   8
ATOM      7  C   UNL     1       7.795  -2.383  23.464  0.00  0.00    +0.251 C 
ATOM      8  N   UNL     1       8.174  -3.716  23.335  0.00  0.00    -0.278 N 
ATOM      9  H   UNL     1       9.163  -3.957  23.300  0.00  0.00    +0.155 HD
ATOM     10  O   UNL     1       6.649  -1.990  23.256  0.00  0.00    -0.270 OA
BRANCH   7  13
ATOM     11 CL   UNL     1       9.332  -0.803  21.110  0.00  0.00    -0.083 Cl
ATOM     12  C   UNL     1       9.508  -0.587  22.817  0.00  0.00    +0.054 A 
ATOM     13  C   UNL     1       8.844  -1.356  23.792  0.00  0.00    +0.074 A 
ATOM     14  C   UNL     1       9.117  -1.046  25.147  0.00  0.00    +0.054 A 
ATOM     15 CL   UNL     1       8.534  -1.968  26.498  0.00  0.00    -0.083 Cl
ATOM     16  C   UNL     1       9.954   0.028  25.496  0.00  0.00    +0.021 A 
ATOM     17  C   UNL     1      10.569   0.792  24.515  0.00  0.00    +0.003 A 
ATOM     18  C   UNL     1      10.366   0.467  23.181  0.00  0.00    +0.021 A 
ENDBRANCH   7  13
ENDBRANCH   1   8
BRANCH   2  19
ATOM     19  C   UNL     1       6.098  -5.191  25.289  0.00  0.00    +0.266 C 
ATOM     20  N   UNL     1       5.453  -3.999  25.579  0.00  0.00    -0.307 N 
ATOM     21  H   UNL     1       5.166  -3.474  24.753  0.00  0.00    +0.149 HD
ATOM     22  O   UNL     1       6.405  -6.017  26.144  0.00  0.00    -0.268 OA
BRANCH  20  23
ATOM     23  C   UNL     1       4.830  -3.728  26.874  0.00  0.00    +0.076 C 
ATOM     24  C   UNL     1       3.330  -4.035  26.854  0.00  0.00    +0.037 C 
ATOM     25  C   UNL     1       2.580  -3.017  25.997  0.00  0.00    +0.082 C 
ATOM     26  N   UNL     1       2.764  -1.663  26.518  0.00  0.00    -0.316 NA
ATOM     27  H   UNL     1       2.262  -1.003  25.921  0.00  0.00    +0.122 HD
ATOM     28  C   UNL     1       4.172  -1.276  26.585  0.00  0.00    +0.082 C 
ATOM     29  C   UNL     1       5.040  -2.283  27.341  0.00  0.00    +0.037 C 
ENDBRANCH  20  23
ENDBRANCH   2  19
TORSDOF 4
ENDMDL
MODEL 2
REMARK VINA RESULT:      -6.6      2.664      3.720
REMARK  Name = 
REMARK  4 active torsions:
REMARK  status: ('A' for Active; 'I' for Inactive)
REMARK    1  A    between atoms: C_8  and  C_9
REMARK    2  A    between atoms: N_11  and  C_12
REMARK    3  A    between atoms: C_16  and  C_17
REMARK    4  A    between atoms: N_19  and  C_20
REMARK                            x       y       z     vdW  Elec       q    Type
REMARK                         _______ _______ _______ _____ _____    ______ ____
ROOT
ATOM      1  C   UNL     1       8.187  -4.084  24.973  0.00  0.00    +0.084 A 
ATOM      2  C   UNL     1       7.073  -4.756  25.578  0.00  0.00    +0.168 A 
ATOM      3  N   UNL     1       7.488  -5.743  26.407  0.00  0.00    -0.167 NA
ATOM      4  N   UNL     1       8.826  -5.697  26.313  0.00  0.00    -0.282 N 
ATOM      5  H   UNL     1       9.377  -6.357  26.859  0.00  0.00    +0.188 HD
ATOM      6  C   UNL     1       9.291  -4.733  25.474  0.00  0.00    +0.129 A 
ENDROOT
BRANCH   1   8
ATOM      7  C   UNL     1       8.342  -1.680  24.470  0.00  0.00    +0.251 C 
ATOM      8  N   UNL     1       8.178  -3.008  24.087  0.00  0.00    -0.278 N 
ATOM      9  H   UNL     1       7.862  -3.224  23.143  0.00  0.00    +0.155 HD
ATOM     10  O   UNL     1       8.464  -1.331  25.641  0.00  0.00    -0.270 OA
BRANCH   7  13
ATOM     11 CL   UNL     1       5.840   0.352  24.336  0.00  0.00    -0.083 Cl
ATOM     12  C   UNL     1       7.254   0.351  23.340  0.00  0.00    +0.054 A 
ATOM     13  C   UNL     1       8.285  -0.606  23.417  0.00  0.00    +0.074 A 
ATOM     14  C   UNL     1       9.365  -0.457  22.514  0.00  0.00    +0.054 A 
ATOM     15 CL   UNL     1      10.653  -1.607  22.331  0.00  0.00    -0.083 Cl
ATOM     16  C   UNL     1       9.439   0.639  21.637  0.00  0.00    +0.021 A 
ATOM     17  C   UNL     1       8.426   1.587  21.605  0.00  0.00    +0.003 A 
ATOM     18  C   UNL     1       7.326   1.427  22.437  0.00  0.00    +0.021 A 
ENDBRANCH   7  13
ENDBRANCH   1   8
BRANCH   2  19
ATOM     19  C   UNL     1       5.641  -4.434  25.442  0.00  0.00    +0.266 C 
ATOM     20  N   UNL     1       4.836  -5.521  25.142  0.00  0.00    -0.307 N 
ATOM     21  H   UNL     1       5.333  -6.412  25.135  0.00  0.00    +0.149 HD
ATOM     22  O   UNL     1       5.205  -3.300  25.622  0.00  0.00    -0.268 OA
BRANCH  20  23
ATOM     23  C   UNL     1       3.380  -5.493  25.282  0.00  0.00    +0.076 C 
ATOM     24  C   UNL     1       2.839  -6.823  25.816  0.00  0.00    +0.037 C 
ATOM     25  C   UNL     1       2.969  -7.923  24.765  0.00  0.00    +0.082 C 
ATOM     26  N   UNL     1       2.223  -7.577  23.556  0.00  0.00    -0.316 NA
ATOM     27  H   UNL     1       2.336  -8.323  22.867  0.00  0.00    +0.122 HD
ATOM     28  C   UNL     1       2.663  -6.311  22.970  0.00  0.00    +0.082 C 
ATOM     29  C   UNL     1       2.666  -5.153  23.969  0.00  0.00    +0.037 C 
ENDBRANCH  20  23
ENDBRANCH   2  19
TORSDOF 4
ENDMDL
MODEL 3
REMARK VINA RESULT:      -6.5      1.705      2.477
REMARK  Name = 
REMARK  4 active torsions:
REMARK  status: ('A' for Active; 'I' for Inactive)
REMARK    1  A    between atoms: C_8  and  C_9
REMARK    2  A    between atoms: N_11  and  C_12
REMARK    3  A    between atoms: C_16  and  C_17
REMARK    4  A    between atoms: N_19  and  C_20
REMARK                            x       y       z     vdW  Elec       q    Type
REMARK                         _______ _______ _______ _____ _____    ______ ____
ROOT
ATOM      1  C   UNL     1       6.910  -4.603  22.770  0.00  0.00    +0.084 A 
ATOM      2  C   UNL     1       5.630  -4.966  23.307  0.00  0.00    +0.168 A 
ATOM      3  N   UNL     1       5.062  -5.963  22.589  0.00  0.00    -0.167 NA
ATOM      4  N   UNL     1       5.958  -6.210  21.621  0.00  0.00    -0.282 N 
ATOM      5  H   UNL     1       5.754  -6.938  20.939  0.00  0.00    +0.188 HD
ATOM      6  C   UNL     1       7.070  -5.429  21.681  0.00  0.00    +0.129 A 
ENDROOT
BRANCH   1   8
ATOM      7  C   UNL     1       7.617  -2.272  23.121  0.00  0.00    +0.251 C 
ATOM      8  N   UNL     1       7.810  -3.646  23.235  0.00  0.00    -0.278 N 
ATOM      9  H   UNL     1       8.722  -4.005  23.513  0.00  0.00    +0.155 HD
ATOM     10  O   UNL     1       6.647  -1.777  22.552  0.00  0.00    -0.270 OA
BRANCH   7  13
ATOM     11 CL   UNL     1       9.517  -0.650  21.080  0.00  0.00    -0.083 Cl
ATOM     12  C   UNL     1       9.500  -0.558  22.807  0.00  0.00    +0.054 A 
ATOM     13  C   UNL     1       8.680  -1.342  23.641  0.00  0.00    +0.074 A 
ATOM     14  C   UNL     1       8.807  -1.140  25.037  0.00  0.00    +0.054 A 
ATOM     15 CL   UNL     1       8.013  -2.106  26.242  0.00  0.00    -0.083 Cl
ATOM     16  C   UNL     1       9.658  -0.150  25.558  0.00  0.00    +0.021 A 
ATOM     17  C   UNL     1      10.432   0.632  24.712  0.00  0.00    +0.003 A 
ATOM     18  C   UNL     1      10.370   0.410  23.343  0.00  0.00    +0.021 A 
ENDBRANCH   7  13
ENDBRANCH   1   8
BRANCH   2  19
ATOM     19  C   UNL     1       4.978  -4.440  24.520  0.00  0.00    +0.266 C 
ATOM     20  N   UNL     1       4.916  -5.340  25.572  0.00  0.00    -0.307 N 
ATOM     21  H   UNL     1       5.401  -6.218  25.392  0.00  0.00    +0.149 HD
ATOM     22  O   UNL     1       4.564  -3.285  24.593  0.00  0.00    -0.268 OA
BRANCH  20  23
ATOM     23  C   UNL     1       4.614  -4.935  26.945  0.00  0.00    +0.076 C 
ATOM     24  C   UNL     1       5.862  -4.426  27.671  0.00  0.00    +0.037 C 
ATOM     25  C   UNL     1       6.830  -5.572  27.954  0.00  0.00    +0.082 C 
ATOM     26  N   UNL     1       6.198  -6.592  28.791  0.00  0.00    -0.316 NA
ATOM     27  H   UNL     1       6.862  -7.350  28.955  0.00  0.00    +0.122 HD
ATOM     28  C   UNL     1       4.985  -7.139  28.185  0.00  0.00    +0.082 C 
ATOM     29  C   UNL     1       3.980  -6.063  27.768  0.00  0.00    +0.037 C 
ENDBRANCH  20  23
ENDBRANCH   2  19
TORSDOF 4
ENDMDL
MODEL 4
REMARK VINA RESULT:      -6.5      1.828      3.151
REMARK  Name = 
REMARK  4 active torsions:
REMARK  status: ('A' for Active; 'I' for Inactive)
REMARK    1  A    between atoms: C_8  and  C_9
REMARK    2  A    between atoms: N_11  and  C_12
REMARK    3  A    between atoms: C_16  and  C_17
REMARK    4  A    between atoms: N_19  and  C_20
REMARK                            x       y       z     vdW  Elec       q    Type
REMARK                         _______ _______ _______ _____ _____    ______ ____
ROOT
ATOM      1  C   UNL     1       6.506  -4.221  22.557  0.00  0.00    +0.084 A 
ATOM      2  C   UNL     1       5.395  -4.845  23.218  0.00  0.00    +0.168 A 
ATOM      3  N   UNL     1       5.042  -5.997  22.602  0.00  0.00    -0.167 NA
ATOM      4  N   UNL     1       5.901  -6.086  21.575  0.00  0.00    -0.282 N 
ATOM      5  H   UNL     1       5.835  -6.888  20.951  0.00  0.00    +0.188 HD
ATOM      6  C   UNL     1       6.787  -5.058  21.501  0.00  0.00    +0.129 A 
ENDROOT
BRANCH   1   8
ATOM      7  C   UNL     1       8.406  -3.004  23.538  0.00  0.00    +0.251 C 
ATOM      8  N   UNL     1       7.172  -3.045  22.895  0.00  0.00    -0.278 N 
ATOM      9  H   UNL     1       6.622  -2.192  22.807  0.00  0.00    +0.155 HD
ATOM     10  O   UNL     1       9.002  -4.013  23.910  0.00  0.00    -0.270 OA
BRANCH   7  13
ATOM     11 CL   UNL     1       8.438  -1.937  26.582  0.00  0.00    -0.083 Cl
ATOM     12  C   UNL     1       9.111  -1.169  25.187  0.00  0.00    +0.054 A 
ATOM     13  C   UNL     1       9.009  -1.666  23.873  0.00  0.00    +0.074 A 
ATOM     14  C   UNL     1       9.613  -0.898  22.848  0.00  0.00    +0.054 A 
ATOM     15 CL   UNL     1       9.470  -1.243  21.152  0.00  0.00    -0.083 Cl
ATOM     16  C   UNL     1      10.344   0.266  23.142  0.00  0.00    +0.021 A 
ATOM     17  C   UNL     1      10.458   0.717  24.450  0.00  0.00    +0.003 A 
ATOM     18  C   UNL     1       9.821   0.014  25.463  0.00  0.00    +0.021 A 
ENDBRANCH   7  13
ENDBRANCH   1   8
BRANCH   2  19
ATOM     19  C   UNL     1       4.720  -4.408  24.454  0.00  0.00    +0.266 C 
ATOM     20  N   UNL     1       4.814  -5.307  25.504  0.00  0.00    -0.307 N 
ATOM     21  H   UNL     1       5.405  -6.114  25.305  0.00  0.00    +0.149 HD
ATOM     22  O   UNL     1       4.159  -3.319  24.545  0.00  0.00    -0.268 OA
BRANCH  20  23
ATOM     23  C   UNL     1       4.507  -4.946  26.888  0.00  0.00    +0.076 C 
ATOM     24  C   UNL     1       5.677  -4.216  27.553  0.00  0.00    +0.037 C 
ATOM     25  C   UNL     1       6.844  -5.171  27.797  0.00  0.00    +0.082 C 
ATOM     26  N   UNL     1       6.438  -6.275  28.666  0.00  0.00    -0.316 NA
ATOM     27  H   UNL     1       7.232  -6.903  28.803  0.00  0.00    +0.122 HD
ATOM     28  C   UNL     1       5.314  -7.034  28.119  0.00  0.00    +0.082 C 
ATOM     29  C   UNL     1       4.119  -6.156  27.745  0.00  0.00    +0.037 C 
ENDBRANCH  20  23
ENDBRANCH   2  19
TORSDOF 4
ENDMDL
MODEL 5
REMARK VINA RESULT:      -6.4      2.836      6.776
REMARK  Name = 
REMARK  4 active torsions:
REMARK  status: ('A' for Active; 'I' for Inactive)
REMARK    1  A    between atoms: C_8  and  C_9
REMARK    2  A    between atoms: N_11  and  C_12
REMARK    3  A    between atoms: C_16  and  C_17
REMARK    4  A    between atoms: N_19  and  C_20
REMARK                            x       y       z     vdW  Elec       q    Type
REMARK                         _______ _______ _______ _____ _____    ______ ____
ROOT
ATOM      1  C   UNL     1       6.073  -1.201  26.242  0.00  0.00    +0.084 A 
ATOM      2  C   UNL     1       7.118  -0.271  26.561  0.00  0.00    +0.168 A 
ATOM      3  N   UNL     1       6.778   0.506  27.616  0.00  0.00    -0.167 NA
ATOM      4  N   UNL     1       5.547   0.080  27.941  0.00  0.00    -0.282 N 
ATOM      5  H   UNL     1       5.068   0.521  28.725  0.00  0.00    +0.188 HD
ATOM      6  C   UNL     1       5.082  -0.928  27.156  0.00  0.00    +0.129 A 
ENDROOT
BRANCH   1   8
ATOM      7  C   UNL     1       6.687  -3.411  25.349  0.00  0.00    +0.251 C 
ATOM      8  N   UNL     1       6.050  -2.177  25.247  0.00  0.00    -0.278 N 
ATOM      9  H   UNL     1       5.684  -1.873  24.347  0.00  0.00    +0.155 HD
ATOM     10  O   UNL     1       7.372  -3.733  26.316  0.00  0.00    -0.270 OA
BRANCH   7  13
ATOM     11 CL   UNL     1       4.875  -6.072  25.544  0.00  0.00    -0.083 Cl
ATOM     12  C   UNL     1       5.789  -5.515  24.186  0.00  0.00    +0.054 A 
ATOM     13  C   UNL     1       6.608  -4.369  24.190  0.00  0.00    +0.074 A 
ATOM     14  C   UNL     1       7.294  -4.067  22.989  0.00  0.00    +0.054 A 
ATOM     15 CL   UNL     1       8.471  -2.801  22.825  0.00  0.00    -0.083 Cl
ATOM     16  C   UNL     1       7.104  -4.835  21.827  0.00  0.00    +0.021 A 
ATOM     17  C   UNL     1       6.265  -5.940  21.840  0.00  0.00    +0.003 A 
ATOM     18  C   UNL     1       5.631  -6.292  23.024  0.00  0.00    +0.021 A 
ENDBRANCH   7  13
ENDBRANCH   1   8
BRANCH   2  19
ATOM     19  C   UNL     1       8.448  -0.158  25.936  0.00  0.00    +0.266 C 
ATOM     20  N   UNL     1       8.520   0.768  24.908  0.00  0.00    -0.307 N 
ATOM     21  H   UNL     1       7.662   1.304  24.776  0.00  0.00    +0.149 HD
ATOM     22  O   UNL     1       9.415  -0.807  26.329  0.00  0.00    -0.268 OA
BRANCH  20  23
ATOM     23  C   UNL     1       9.788   1.269  24.378  0.00  0.00    +0.076 C 
ATOM     24  C   UNL     1       9.669   2.723  23.909  0.00  0.00    +0.037 C 
ATOM     25  C   UNL     1       8.815   2.818  22.647  0.00  0.00    +0.082 C 
ATOM     26  N   UNL     1       9.403   2.032  21.562  0.00  0.00    -0.316 NA
ATOM     27  H   UNL     1       8.806   2.105  20.736  0.00  0.00    +0.122 HD
ATOM     28  C   UNL     1       9.565   0.623  21.916  0.00  0.00    +0.082 C 
ATOM     29  C   UNL     1      10.327   0.414  23.226  0.00  0.00    +0.037 C 
ENDBRANCH  20  23
ENDBRANCH   2  19
TORSDOF 4
ENDMDL
MODEL 6
REMARK VINA RESULT:      -6.4      2.600      3.552
REMARK  Name = 
REMARK  4 active torsions:
REMARK  status: ('A' for Active; 'I' for Inactive)
REMARK    1  A    between atoms: C_8  and  C_9
REMARK    2  A    between atoms: N_11  and  C_12
REMARK    3  A    between atoms: C_16  and  C_17
REMARK    4  A    between atoms: N_19  and  C_20
REMARK                            x       y       z     vdW  Elec       q    Type
REMARK                         _______ _______ _______ _____ _____    ______ ____
ROOT
ATOM      1  C   UNL     1       8.050  -3.785  25.769  0.00  0.00    +0.084 A 
ATOM      2  C   UNL     1       6.879  -4.593  25.956  0.00  0.00    +0.168 A 
ATOM      3  N   UNL     1       7.174  -5.739  26.613  0.00  0.00    -0.167 NA
ATOM      4  N   UNL     1       8.497  -5.656  26.821  0.00  0.00    -0.282 N 
ATOM      5  H   UNL     1       8.964  -6.417  27.311  0.00  0.00    +0.188 HD
ATOM      6  C   UNL     1       9.065  -4.518  26.338  0.00  0.00    +0.129 A 
ENDROOT
BRANCH   1   8
ATOM      7  C   UNL     1       7.985  -2.307  23.802  0.00  0.00    +0.251 C 
ATOM      8  N   UNL     1       8.157  -2.533  25.165  0.00  0.00    -0.278 N 
ATOM      9  H   UNL     1       8.549  -1.799  25.751  0.00  0.00    +0.155 HD
ATOM     10  O   UNL     1       7.768  -3.208  22.995  0.00  0.00    -0.270 OA
BRANCH   7  13
ATOM     11 CL   UNL     1      10.637  -1.491  22.158  0.00  0.00    -0.083 Cl
ATOM     12  C   UNL     1       9.257  -0.504  22.491  0.00  0.00    +0.054 A 
ATOM     13  C   UNL     1       8.154  -0.909  23.269  0.00  0.00    +0.074 A 
ATOM     14  C   UNL     1       7.115   0.035  23.448  0.00  0.00    +0.054 A 
ATOM     15 CL   UNL     1       5.749  -0.199  24.495  0.00  0.00    -0.083 Cl
ATOM     16  C   UNL     1       7.150   1.290  22.815  0.00  0.00    +0.021 A 
ATOM     17  C   UNL     1       8.233   1.652  22.026  0.00  0.00    +0.003 A 
ATOM     18  C   UNL     1       9.293   0.766  21.887  0.00  0.00    +0.021 A 
ENDBRANCH   7  13
ENDBRANCH   1   8
BRANCH   2  19
ATOM     19  C   UNL     1       5.488  -4.266  25.591  0.00  0.00    +0.266 C 
ATOM     20  N   UNL     1       4.707  -5.366  25.272  0.00  0.00    -0.307 N 
ATOM     21  H   UNL     1       5.178  -6.259  25.410  0.00  0.00    +0.149 HD
ATOM     22  O   UNL     1       5.059  -3.115  25.611  0.00  0.00    -0.268 OA
BRANCH  20  23
ATOM     23  C   UNL     1       3.247  -5.308  25.200  0.00  0.00    +0.076 C 
ATOM     24  C   UNL     1       2.603  -6.567  25.789  0.00  0.00    +0.037 C 
ATOM     25  C   UNL     1       2.851  -7.775  24.888  0.00  0.00    +0.082 C 
ATOM     26  N   UNL     1       2.290  -7.552  23.555  0.00  0.00    -0.316 NA
ATOM     27  H   UNL     1       2.480  -8.369  22.972  0.00  0.00    +0.122 HD
ATOM     28  C   UNL     1       2.839  -6.362  22.908  0.00  0.00    +0.082 C 
ATOM     29  C   UNL     1       2.733  -5.103  23.771  0.00  0.00    +0.037 C 
ENDBRANCH  20  23
ENDBRANCH   2  19
TORSDOF 4
ENDMDL
MODEL 7
REMARK VINA RESULT:      -6.4      3.619      5.297
REMARK  Name = 
REMARK  4 active torsions:
REMARK  status: ('A' for Active; 'I' for Inactive)
REMARK    1  A    between atoms: C_8  and  C_9
REMARK    2  A    between atoms: N_11  and  C_12
REMARK    3  A    between atoms: C_16  and  C_17
REMARK    4  A    between atoms: N_19  and  C_20
REMARK                            x       y       z     vdW  Elec       q    Type
REMARK                         _______ _______ _______ _____ _____    ______ ____
ROOT
ATOM      1  C   UNL     1       9.000   0.294  22.518  0.00  0.00    +0.084 A 
ATOM      2  C   UNL     1       8.638  -0.931  23.171  0.00  0.00    +0.168 A 
ATOM      3  N   UNL     1       8.906  -2.003  22.388  0.00  0.00    -0.167 NA
ATOM      4  N   UNL     1       9.412  -1.461  21.269  0.00  0.00    -0.282 N 
ATOM      5  H   UNL     1       9.698  -2.080  20.513  0.00  0.00    +0.188 HD
ATOM      6  C   UNL     1       9.487  -0.103  21.294  0.00  0.00    +0.129 A 
ENDROOT
BRANCH   1   8
ATOM      7  C   UNL     1       9.859   2.205  23.809  0.00  0.00    +0.251 C 
ATOM      8  N   UNL     1       8.904   1.598  22.999  0.00  0.00    -0.278 N 
ATOM      9  H   UNL     1       7.996   2.043  22.872  0.00  0.00    +0.155 HD
ATOM     10  O   UNL     1      10.861   1.620  24.216  0.00  0.00    -0.270 OA
BRANCH   7  13
ATOM     11 CL   UNL     1      11.948   4.551  23.078  0.00  0.00    -0.083 Cl
ATOM     12  C   UNL     1      10.461   4.695  23.950  0.00  0.00    +0.054 A 
ATOM     13  C   UNL     1       9.623   3.613  24.284  0.00  0.00    +0.074 A 
ATOM     14  C   UNL     1       8.447   3.915  25.012  0.00  0.00    +0.054 A 
ATOM     15 CL   UNL     1       7.364   2.723  25.661  0.00  0.00    -0.083 Cl
ATOM     16  C   UNL     1       8.097   5.242  25.318  0.00  0.00    +0.021 A 
ATOM     17  C   UNL     1       8.924   6.293  24.947  0.00  0.00    +0.003 A 
ATOM     18  C   UNL     1      10.114   6.016  24.288  0.00  0.00    +0.021 A 
ENDBRANCH   7  13
ENDBRANCH   1   8
BRANCH   2  19
ATOM     19  C   UNL     1       8.116  -1.105  24.539  0.00  0.00    +0.266 C 
ATOM     20  N   UNL     1       7.622  -2.372  24.806  0.00  0.00    -0.307 N 
ATOM     21  H   UNL     1       7.759  -3.036  24.044  0.00  0.00    +0.149 HD
ATOM     22  O   UNL     1       8.159  -0.207  25.376  0.00  0.00    -0.268 OA
BRANCH  20  23
ATOM     23  C   UNL     1       7.363  -2.854  26.163  0.00  0.00    +0.076 C 
ATOM     24  C   UNL     1       8.642  -3.359  26.836  0.00  0.00    +0.037 C 
ATOM     25  C   UNL     1       9.114  -4.661  26.195  0.00  0.00    +0.082 C 
ATOM     26  N   UNL     1       8.092  -5.700  26.314  0.00  0.00    -0.316 NA
ATOM     27  H   UNL     1       8.429  -6.555  25.868  0.00  0.00    +0.122 HD
ATOM     28  C   UNL     1       6.822  -5.308  25.704  0.00  0.00    +0.082 C 
ATOM     29  C   UNL     1       6.302  -3.960  26.206  0.00  0.00    +0.037 C 
ENDBRANCH  20  23
ENDBRANCH   2  19
TORSDOF 4
ENDMDL
MODEL 8
REMARK VINA RESULT:      -6.3      2.944      5.106
REMARK  Name = 
REMARK  4 active torsions:
REMARK  status: ('A' for Active; 'I' for Inactive)
REMARK    1  A    between atoms: C_8  and  C_9
REMARK    2  A    between atoms: N_11  and  C_12
REMARK    3  A    between atoms: C_16  and  C_17
REMARK    4  A    between atoms: N_19  and  C_20
REMARK                            x       y       z     vdW  Elec       q    Type
REMARK                         _______ _______ _______ _____ _____    ______ ____
ROOT
ATOM      1  C   UNL     1       9.045  -0.259  23.287  0.00  0.00    +0.084 A 
ATOM      2  C   UNL     1       8.913  -1.621  22.856  0.00  0.00    +0.168 A 
ATOM      3  N   UNL     1       9.411  -1.792  21.609  0.00  0.00    -0.167 NA
ATOM      4  N   UNL     1       9.833  -0.565  21.264  0.00  0.00    -0.282 N 
ATOM      5  H   UNL     1      10.259  -0.434  20.348  0.00  0.00    +0.188 HD
ATOM      6  C   UNL     1       9.637   0.380  22.222  0.00  0.00    +0.129 A 
ENDROOT
BRANCH   1   8
ATOM      7  C   UNL     1       7.421   0.843  24.772  0.00  0.00    +0.251 C 
ATOM      8  N   UNL     1       8.678   0.308  24.506  0.00  0.00    -0.278 N 
ATOM      9  H   UNL     1       9.444   0.478  25.156  0.00  0.00    +0.155 HD
ATOM     10  O   UNL     1       6.528   0.905  23.930  0.00  0.00    -0.270 OA
BRANCH   7  13
ATOM     11 CL   UNL     1       8.055   3.958  25.316  0.00  0.00    -0.083 Cl
ATOM     12  C   UNL     1       7.354   2.817  26.409  0.00  0.00    +0.054 A 
ATOM     13  C   UNL     1       7.159   1.452  26.123  0.00  0.00    +0.074 A 
ATOM     14  C   UNL     1       6.579   0.660  27.143  0.00  0.00    +0.054 A 
ATOM     15 CL   UNL     1       6.398  -1.065  27.060  0.00  0.00    -0.083 Cl
ATOM     16  C   UNL     1       6.151   1.229  28.356  0.00  0.00    +0.021 A 
ATOM     17  C   UNL     1       6.325   2.584  28.600  0.00  0.00    +0.003 A 
ATOM     18  C   UNL     1       6.948   3.368  27.639  0.00  0.00    +0.021 A 
ENDBRANCH   7  13
ENDBRANCH   1   8
BRANCH   2  19
ATOM     19  C   UNL     1       8.396  -2.766  23.628  0.00  0.00    +0.266 C 
ATOM     20  N   UNL     1       7.671  -3.679  22.878  0.00  0.00    -0.307 N 
ATOM     21  H   UNL     1       7.661  -3.477  21.879  0.00  0.00    +0.149 HD
ATOM     22  O   UNL     1       8.628  -2.909  24.825  0.00  0.00    -0.268 OA
BRANCH  20  23
ATOM     23  C   UNL     1       7.350  -5.024  23.359  0.00  0.00    +0.076 C 
ATOM     24  C   UNL     1       7.342  -6.044  22.216  0.00  0.00    +0.037 C 
ATOM     25  C   UNL     1       6.146  -5.816  21.294  0.00  0.00    +0.082 C 
ATOM     26  N   UNL     1       4.889  -5.942  22.032  0.00  0.00    -0.316 NA
ATOM     27  H   UNL     1       4.109  -5.774  21.395  0.00  0.00    +0.122 HD
ATOM     28  C   UNL     1       4.803  -5.009  23.155  0.00  0.00    +0.082 C 
ATOM     29  C   UNL     1       6.008  -5.084  24.095  0.00  0.00    +0.037 C 
ENDBRANCH  20  23
ENDBRANCH   2  19
TORSDOF 4
ENDMDL
MODEL 9
REMARK VINA RESULT:      -6.3      2.651      5.519
REMARK  Name = 
REMARK  4 active torsions:
REMARK  status: ('A' for Active; 'I' for Inactive)
REMARK    1  A    between atoms: C_8  and  C_9
REMARK    2  A    between atoms: N_11  and  C_12
REMARK    3  A    between atoms: C_16  and  C_17
REMARK    4  A    between atoms: N_19  and  C_20
REMARK                            x       y       z     vdW  Elec       q    Type
REMARK                         _______ _______ _______ _____ _____    ______ ____
ROOT
ATOM      1  C   UNL     1       8.625  -1.699  22.837  0.00  0.00    +0.084 A 
ATOM      2  C   UNL     1       9.178  -0.611  23.592  0.00  0.00    +0.168 A 
ATOM      3  N   UNL     1       9.994   0.152  22.826  0.00  0.00    -0.167 NA
ATOM      4  N   UNL     1       9.960  -0.451  21.627  0.00  0.00    -0.282 N 
ATOM      5  H   UNL     1      10.506  -0.052  20.865  0.00  0.00    +0.188 HD
ATOM      6  C   UNL     1       9.166  -1.553  21.581  0.00  0.00    +0.129 A 
ENDROOT
BRANCH   1   8
ATOM      7  C   UNL     1       8.106  -3.854  23.906  0.00  0.00    +0.251 C 
ATOM      8  N   UNL     1       7.730  -2.682  23.256  0.00  0.00    -0.278 N 
ATOM      9  H   UNL     1       6.781  -2.587  22.900  0.00  0.00    +0.155 HD
ATOM     10  O   UNL     1       9.278  -4.150  24.130  0.00  0.00    -0.270 OA
BRANCH   7  13
ATOM     11 CL   UNL     1       7.406  -4.410  27.005  0.00  0.00    -0.083 Cl
ATOM     12  C   UNL     1       6.646  -5.096  25.612  0.00  0.00    +0.054 A 
ATOM     13  C   UNL     1       7.044  -4.851  24.283  0.00  0.00    +0.074 A 
ATOM     14  C   UNL     1       6.312  -5.508  23.264  0.00  0.00    +0.054 A 
ATOM     15 CL   UNL     1       6.732  -5.473  21.579  0.00  0.00    -0.083 Cl
ATOM     16  C   UNL     1       5.195  -6.306  23.566  0.00  0.00    +0.021 A 
ATOM     17  C   UNL     1       4.804  -6.505  24.882  0.00  0.00    +0.003 A 
ATOM     18  C   UNL     1       5.544  -5.921  25.901  0.00  0.00    +0.021 A 
ENDBRANCH   7  13
ENDBRANCH   1   8
BRANCH   2  19
ATOM     19  C   UNL     1       8.892  -0.244  24.990  0.00  0.00    +0.266 C 
ATOM     20  N   UNL     1       7.609   0.237  25.204  0.00  0.00    -0.307 N 
ATOM     21  H   UNL     1       7.012   0.197  24.379  0.00  0.00    +0.149 HD
ATOM     22  O   UNL     1       9.715  -0.395  25.889  0.00  0.00    -0.268 OA
BRANCH  20  23
ATOM     23  C   UNL     1       7.016   0.349  26.536  0.00  0.00    +0.076 C 
ATOM     24  C   UNL     1       6.284  -0.935  26.938  0.00  0.00    +0.037 C 
ATOM     25  C   UNL     1       5.013  -1.115  26.112  0.00  0.00    +0.082 C 
ATOM     26  N   UNL     1       4.102   0.013  26.306  0.00  0.00    -0.316 NA
ATOM     27  H   UNL     1       3.267  -0.129  25.735  0.00  0.00    +0.122 HD
ATOM     28  C   UNL     1       4.713   1.293  25.956  0.00  0.00    +0.082 C 
ATOM     29  C   UNL     1       6.052   1.535  26.656  0.00  0.00    +0.037 C 
ENDBRANCH  20  23
ENDBRANCH   2  19
TORSDOF 4
ENDMDL
