MODEL 1
REMARK VINA RESULT:      -6.1      0.000      0.000
REMARK  Name = 
REMARK  7 active torsions:
REMARK  status: ('A' for Active; 'I' for Inactive)
REMARK    1  A    between atoms: C_2  and  C_15
REMARK    2  A    between atoms: C_7  and  C_8
REMARK    3  A    between atoms: C_9  and  C_10
REMARK    4  A    between atoms: C_10  and  O_12
REMARK    5  A    between atoms: O_12  and  C_13
REMARK    6  A    between atoms: C_13  and  C_14
REMARK    7  A    between atoms: C_19  and  O_20
REMARK                            x       y       z     vdW  Elec       q    Type
REMARK                         _______ _______ _______ _____ _____    ______ ____
ROOT
ATOM      1  C   UNL     1       7.444  -1.295  23.932  0.00  0.00    +0.141 C 
ATOM      2  C   UNL     1       7.746  -2.572  24.675  0.00  0.00    +0.078 C 
ATOM      3  C   UNL     1       7.269  -2.790  25.919  0.00  0.00    +0.019 C 
ATOM      4  C   UNL     1       7.522  -3.997  26.782  0.00  0.00    +0.061 C 
ATOM      5  N   UNL     1       6.416  -1.854  26.472  0.00  0.00    -0.300 N 
ATOM      6  H   UNL     1       6.045  -2.005  27.405  0.00  0.00    +0.154 HD
ATOM      7  C   UNL     1       5.884  -0.799  25.797  0.00  0.00    +0.135 C 
ATOM      8  S   UNL     1       4.746   0.188  26.492  0.00  0.00    -0.019 S 
ATOM      9  N   UNL     1       6.296  -0.617  24.519  0.00  0.00    -0.315 N 
ATOM     10  H   UNL     1       5.931   0.195  24.036  0.00  0.00    +0.149 HD
ENDROOT
BRANCH   1  11
ATOM     11  C   UNL     1       8.633  -0.341  23.882  0.00  0.00    -0.019 A 
ATOM     12  C   UNL     1       8.843   0.464  22.753  0.00  0.00    +0.051 A 
ATOM     13  C   UNL     1       9.915   1.352  22.712  0.00  0.00    +0.117 A 
ATOM     14  C   UNL     1      10.808   1.447  23.773  0.00  0.00    +0.045 A 
ATOM     15  C   UNL     1      10.618   0.647  24.897  0.00  0.00    +0.004 A 
ATOM     16  C   UNL     1       9.537  -0.236  24.955  0.00  0.00    +0.006 A 
BRANCH  13  17
ATOM     17  O   UNL     1      10.055   2.128  21.599  0.00  0.00    -0.507 OA
ATOM     18  H   UNL     1       9.432   1.815  20.924  0.00  0.00    +0.292 HD
ENDBRANCH  13  17
ENDBRANCH   1  11
BRANCH   2  19
ATOM     19  C   UNL     1       8.520  -3.557  23.875  0.00  0.00    +0.339 C 
ATOM     20  O   UNL     1       9.687  -3.833  24.110  0.00  0.00    -0.245 OA
BRANCH  19  21
ATOM     21  O   UNL     1       7.794  -4.042  22.840  0.00  0.00    -0.462 OA
BRANCH  21  22
ATOM     22  C   UNL     1       7.298  -5.379  22.990  0.00  0.00    +0.229 C 
ATOM     23  C   UNL     1       6.897  -5.905  21.622  0.00  0.00    +0.048 C 
ENDBRANCH  21  22
ENDBRANCH  19  21
ENDBRANCH   2  19
TORSDOF 5
ENDMDL
MODEL 2
REMARK VINA RESULT:      -5.9      3.253      4.737
REMARK  Name = 
REMARK  7 active torsions:
REMARK  status: ('A' for Active; 'I' for Inactive)
REMARK    1  A    between atoms: C_2  and  C_15
REMARK    2  A    between atoms: C_7  and  C_8
REMARK    3  A    between atoms: C_9  and  C_10
REMARK    4  A    between atoms: C_10  and  O_12
REMARK    5  A    between atoms: O_12  and  C_13
REMARK    6  A    between atoms: C_13  and  C_14
REMARK    7  A    between atoms: C_19  and  O_20
REMARK                            x       y       z     vdW  Elec       q    Type
REMARK                         _______ _______ _______ _____ _____    ______ ____
ROOT
ATOM      1  C   UNL     1       7.621   2.452  23.385  0.00  0.00    +0.141 C 
ATOM      2  C   UNL     1       8.868   1.613  23.508  0.00  0.00    +0.078 C 
ATOM      3  C   UNL     1       9.247   1.087  24.692  0.00  0.00    +0.019 C 
ATOM      4  C   UNL     1      10.480   0.267  24.961  0.00  0.00    +0.061 C 
ATOM      5  N   UNL     1       8.418   1.258  25.785  0.00  0.00    -0.300 N 
ATOM      6  H   UNL     1       8.686   0.865  26.682  0.00  0.00    +0.154 HD
ATOM      7  C   UNL     1       7.161   1.777  25.728  0.00  0.00    +0.135 C 
ATOM      8  S   UNL     1       6.175   1.802  27.062  0.00  0.00    -0.019 S 
ATOM      9  N   UNL     1       6.739   2.235  24.525  0.00  0.00    -0.315 N 
ATOM     10  H   UNL     1       5.821   2.660  24.498  0.00  0.00    +0.149 HD
ENDROOT
BRANCH   1  11
ATOM     11  C   UNL     1       7.918   3.941  23.243  0.00  0.00    -0.019 A 
ATOM     12  C   UNL     1       7.260   4.700  22.264  0.00  0.00    +0.051 A 
ATOM     13  C   UNL     1       7.513   6.065  22.146  0.00  0.00    +0.117 A 
ATOM     14  C   UNL     1       8.432   6.699  22.974  0.00  0.00    +0.045 A 
ATOM     15  C   UNL     1       9.100   5.956  23.944  0.00  0.00    +0.004 A 
ATOM     16  C   UNL     1       8.843   4.590  24.082  0.00  0.00    +0.006 A 
BRANCH  13  17
ATOM     17  O   UNL     1       6.824   6.758  21.193  0.00  0.00    -0.507 OA
ATOM     18  H   UNL     1       7.261   7.614  21.059  0.00  0.00    +0.292 HD
ENDBRANCH  13  17
ENDBRANCH   1  11
BRANCH   2  19
ATOM     19  C   UNL     1       9.549   1.366  22.209  0.00  0.00    +0.339 C 
ATOM     20  O   UNL     1      10.514   2.015  21.833  0.00  0.00    -0.245 OA
BRANCH  19  21
ATOM     21  O   UNL     1       8.929   0.398  21.495  0.00  0.00    -0.462 OA
BRANCH  21  22
ATOM     22  C   UNL     1       9.535  -0.902  21.538  0.00  0.00    +0.229 C 
ATOM     23  C   UNL     1       8.580  -1.860  22.230  0.00  0.00    +0.048 C 
ENDBRANCH  21  22
ENDBRANCH  19  21
ENDBRANCH   2  19
TORSDOF 5
ENDMDL
MODEL 3
REMARK VINA RESULT:      -5.9      1.599      2.001
REMARK  Name = 
REMARK  7 active torsions:
REMARK  status: ('A' for Active; 'I' for Inactive)
REMARK    1  A    between atoms: C_2  and  C_15
REMARK    2  A    between atoms: C_7  and  C_8
REMARK    3  A    between atoms: C_9  and  C_10
REMARK    4  A    between atoms: C_10  and  O_12
REMARK    5  A    between atoms: O_12  and  C_13
REMARK    6  A    between atoms: C_13  and  C_14
REMARK    7  A    between atoms: C_19  and  O_20
REMARK                            x       y       z     vdW  Elec       q    Type
REMARK                         _______ _______ _______ _____ _____    ______ ____
ROOT
ATOM      1  C   UNL     1       6.922  -2.703  24.003  0.00  0.00    +0.141 C 
ATOM      2  C   UNL     1       7.229  -3.898  24.870  0.00  0.00    +0.078 C 
ATOM      3  C   UNL     1       6.902  -3.917  26.180  0.00  0.00    +0.019 C 
ATOM      4  C   UNL     1       7.181  -5.023  27.161  0.00  0.00    +0.061 C 
ATOM      5  N   UNL     1       6.193  -2.850  26.698  0.00  0.00    -0.300 N 
ATOM      6  H   UNL     1       5.935  -2.852  27.681  0.00  0.00    +0.154 HD
ATOM      7  C   UNL     1       5.652  -1.847  25.955  0.00  0.00    +0.135 C 
ATOM      8  S   UNL     1       4.683  -0.688  26.641  0.00  0.00    -0.019 S 
ATOM      9  N   UNL     1       5.908  -1.862  24.624  0.00  0.00    -0.315 N 
ATOM     10  H   UNL     1       5.540  -1.089  24.083  0.00  0.00    +0.149 HD
ENDROOT
BRANCH   1  11
ATOM     11  C   UNL     1       8.157  -1.867  23.684  0.00  0.00    -0.019 A 
ATOM     12  C   UNL     1       8.752  -1.080  24.682  0.00  0.00    +0.051 A 
ATOM     13  C   UNL     1       9.892  -0.332  24.401  0.00  0.00    +0.117 A 
ATOM     14  C   UNL     1      10.454  -0.331  23.129  0.00  0.00    +0.045 A 
ATOM     15  C   UNL     1       9.868  -1.100  22.125  0.00  0.00    +0.004 A 
ATOM     16  C   UNL     1       8.733  -1.865  22.401  0.00  0.00    +0.006 A 
BRANCH  13  17
ATOM     17  O   UNL     1      10.442   0.394  25.416  0.00  0.00    -0.507 OA
ATOM     18  H   UNL     1      10.027   1.271  25.428  0.00  0.00    +0.292 HD
ENDBRANCH  13  17
ENDBRANCH   1  11
BRANCH   2  19
ATOM     19  C   UNL     1       7.824  -5.038  24.124  0.00  0.00    +0.339 C 
ATOM     20  O   UNL     1       9.006  -5.338  24.204  0.00  0.00    -0.245 OA
BRANCH  19  21
ATOM     21  O   UNL     1       6.917  -5.637  23.317  0.00  0.00    -0.462 OA
BRANCH  21  22
ATOM     22  C   UNL     1       7.340  -5.887  21.970  0.00  0.00    +0.229 C 
ATOM     23  C   UNL     1       6.177  -5.597  21.034  0.00  0.00    +0.048 C 
ENDBRANCH  21  22
ENDBRANCH  19  21
ENDBRANCH   2  19
TORSDOF 5
ENDMDL
MODEL 4
REMARK VINA RESULT:      -5.8      2.512      5.536
REMARK  Name = 
REMARK  7 active torsions:
REMARK  status: ('A' for Active; 'I' for Inactive)
REMARK    1  A    between atoms: C_2  and  C_15
REMARK    2  A    between atoms: C_7  and  C_8
REMARK    3  A    between atoms: C_9  and  C_10
REMARK    4  A    between atoms: C_10  and  O_12
REMARK    5  A    between atoms: O_12  and  C_13
REMARK    6  A    between atoms: C_13  and  C_14
REMARK    7  A    between atoms: C_19  and  O_20
REMARK                            x       y       z     vdW  Elec       q    Type
REMARK                         _______ _______ _______ _____ _____    ______ ____
ROOT
ATOM      1  C   UNL     1       8.109  -4.917  24.893  0.00  0.00    +0.141 C 
ATOM      2  C   UNL     1       8.275  -3.438  25.132  0.00  0.00    +0.078 C 
ATOM      3  C   UNL     1       7.669  -2.821  26.169  0.00  0.00    +0.019 C 
ATOM      4  C   UNL     1       7.720  -1.355  26.500  0.00  0.00    +0.061 C 
ATOM      5  N   UNL     1       6.957  -3.592  27.069  0.00  0.00    -0.300 N 
ATOM      6  H   UNL     1       6.498  -3.144  27.857  0.00  0.00    +0.154 HD
ATOM      7  C   UNL     1       6.951  -4.953  27.087  0.00  0.00    +0.135 C 
ATOM      8  S   UNL     1       6.195  -5.798  28.298  0.00  0.00    -0.019 S 
ATOM      9  N   UNL     1       7.626  -5.583  26.095  0.00  0.00    -0.315 N 
ATOM     10  H   UNL     1       7.582  -6.594  26.088  0.00  0.00    +0.149 HD
ENDROOT
BRANCH   1  11
ATOM     11  C   UNL     1       7.179  -5.229  23.725  0.00  0.00    -0.019 A 
ATOM     12  C   UNL     1       5.804  -4.965  23.830  0.00  0.00    +0.051 A 
ATOM     13  C   UNL     1       4.955  -5.229  22.757  0.00  0.00    +0.117 A 
ATOM     14  C   UNL     1       5.441  -5.774  21.574  0.00  0.00    +0.045 A 
ATOM     15  C   UNL     1       6.802  -6.050  21.460  0.00  0.00    +0.004 A 
ATOM     16  C   UNL     1       7.665  -5.775  22.523  0.00  0.00    +0.006 A 
BRANCH  13  17
ATOM     17  O   UNL     1       3.633  -4.929  22.906  0.00  0.00    -0.507 OA
ATOM     18  H   UNL     1       3.541  -4.291  23.633  0.00  0.00    +0.292 HD
ENDBRANCH  13  17
ENDBRANCH   1  11
BRANCH   2  19
ATOM     19  C   UNL     1       9.220  -2.784  24.188  0.00  0.00    +0.339 C 
ATOM     20  O   UNL     1      10.363  -3.180  24.013  0.00  0.00    -0.245 OA
BRANCH  19  21
ATOM     21  O   UNL     1       8.676  -1.684  23.617  0.00  0.00    -0.462 OA
BRANCH  21  22
ATOM     22  C   UNL     1       9.600  -0.666  23.207  0.00  0.00    +0.229 C 
ATOM     23  C   UNL     1       9.528  -0.526  21.694  0.00  0.00    +0.048 C 
ENDBRANCH  21  22
ENDBRANCH  19  21
ENDBRANCH   2  19
TORSDOF 5
ENDMDL
MODEL 5
REMARK VINA RESULT:      -5.7      2.608      4.094
REMARK  Name = 
REMARK  7 active torsions:
REMARK  status: ('A' for Active; 'I' for Inactive)
REMARK    1  A    between atoms: C_2  and  C_15
REMARK    2  A    between atoms: C_7  and  C_8
REMARK    3  A    between atoms: C_9  and  C_10
REMARK    4  A    between atoms: C_10  and  O_12
REMARK    5  A    between atoms: O_12  and  C_13
REMARK    6  A    between atoms: C_13  and  C_14
REMARK    7  A    between atoms: C_19  and  O_20
REMARK                            x       y       z     vdW  Elec       q    Type
REMARK                         _______ _______ _______ _____ _____    ______ ____
ROOT
ATOM      1  C   UNL     1       7.526  -1.819  22.588  0.00  0.00    +0.141 C 
ATOM      2  C   UNL     1       8.628  -2.420  23.424  0.00  0.00    +0.078 C 
ATOM      3  C   UNL     1       8.429  -3.544  24.144  0.00  0.00    +0.019 C 
ATOM      4  C   UNL     1       9.425  -4.226  25.043  0.00  0.00    +0.061 C 
ATOM      5  N   UNL     1       7.214  -4.192  24.032  0.00  0.00    -0.300 N 
ATOM      6  H   UNL     1       7.050  -5.042  24.564  0.00  0.00    +0.154 HD
ATOM      7  C   UNL     1       6.250  -3.878  23.124  0.00  0.00    +0.135 C 
ATOM      8  S   UNL     1       4.885  -4.806  22.954  0.00  0.00    -0.019 S 
ATOM      9  N   UNL     1       6.475  -2.797  22.339  0.00  0.00    -0.315 N 
ATOM     10  H   UNL     1       5.736  -2.541  21.696  0.00  0.00    +0.149 HD
ENDROOT
BRANCH   1  11
ATOM     11  C   UNL     1       6.923  -0.566  23.214  0.00  0.00    -0.019 A 
ATOM     12  C   UNL     1       6.985   0.661  22.536  0.00  0.00    +0.051 A 
ATOM     13  C   UNL     1       6.416   1.803  23.094  0.00  0.00    +0.117 A 
ATOM     14  C   UNL     1       5.795   1.760  24.337  0.00  0.00    +0.045 A 
ATOM     15  C   UNL     1       5.734   0.552  25.028  0.00  0.00    +0.004 A 
ATOM     16  C   UNL     1       6.288  -0.603  24.470  0.00  0.00    +0.006 A 
BRANCH  13  17
ATOM     17  O   UNL     1       6.484   2.962  22.378  0.00  0.00    -0.507 OA
ATOM     18  H   UNL     1       7.414   3.139  22.165  0.00  0.00    +0.292 HD
ENDBRANCH  13  17
ENDBRANCH   1  11
BRANCH   2  19
ATOM     19  C   UNL     1       9.929  -1.712  23.292  0.00  0.00    +0.339 C 
ATOM     20  O   UNL     1      10.701  -1.909  22.365  0.00  0.00    -0.245 OA
BRANCH  19  21
ATOM     21  O   UNL     1      10.162  -0.892  24.345  0.00  0.00    -0.462 OA
BRANCH  21  22
ATOM     22  C   UNL     1      10.717   0.393  24.031  0.00  0.00    +0.229 C 
ATOM     23  C   UNL     1       9.812   1.467  24.612  0.00  0.00    +0.048 C 
ENDBRANCH  21  22
ENDBRANCH  19  21
ENDBRANCH   2  19
TORSDOF 5
ENDMDL
MODEL 6
REMARK VINA RESULT:      -5.7      1.744      5.150
REMARK  Name = 
REMARK  7 active torsions:
REMARK  status: ('A' for Active; 'I' for Inactive)
REMARK    1  A    between atoms: C_2  and  C_15
REMARK    2  A    between atoms: C_7  and  C_8
REMARK    3  A    between atoms: C_9  and  C_10
REMARK    4  A    between atoms: C_10  and  O_12
REMARK    5  A    between atoms: O_12  and  C_13
REMARK    6  A    between atoms: C_13  and  C_14
REMARK    7  A    between atoms: C_19  and  O_20
REMARK                            x       y       z     vdW  Elec       q    Type
REMARK                         _______ _______ _______ _____ _____    ______ ____
ROOT
ATOM      1  C   UNL     1       7.990  -1.504  24.259  0.00  0.00    +0.141 C 
ATOM      2  C   UNL     1       8.007  -0.358  23.281  0.00  0.00    +0.078 C 
ATOM      3  C   UNL     1       6.995   0.535  23.229  0.00  0.00    +0.019 C 
ATOM      4  C   UNL     1       6.869   1.699  22.283  0.00  0.00    +0.061 C 
ATOM      5  N   UNL     1       5.976   0.432  24.157  0.00  0.00    -0.300 N 
ATOM      6  H   UNL     1       5.210   1.099  24.134  0.00  0.00    +0.154 HD
ATOM      7  C   UNL     1       5.990  -0.404  25.230  0.00  0.00    +0.135 C 
ATOM      8  S   UNL     1       4.796  -0.353  26.381  0.00  0.00    -0.019 S 
ATOM      9  N   UNL     1       7.042  -1.251  25.336  0.00  0.00    -0.315 N 
ATOM     10  H   UNL     1       7.025  -1.901  26.112  0.00  0.00    +0.149 HD
ENDROOT
BRANCH   1  11
ATOM     11  C   UNL     1       7.671  -2.843  23.600  0.00  0.00    -0.019 A 
ATOM     12  C   UNL     1       6.798  -2.897  22.503  0.00  0.00    +0.051 A 
ATOM     13  C   UNL     1       6.522  -4.115  21.885  0.00  0.00    +0.117 A 
ATOM     14  C   UNL     1       7.083  -5.299  22.349  0.00  0.00    +0.045 A 
ATOM     15  C   UNL     1       7.944  -5.261  23.444  0.00  0.00    +0.004 A 
ATOM     16  C   UNL     1       8.240  -4.044  24.061  0.00  0.00    +0.006 A 
BRANCH  13  17
ATOM     17  O   UNL     1       5.686  -4.104  20.806  0.00  0.00    -0.507 OA
ATOM     18  H   UNL     1       5.275  -3.227  20.744  0.00  0.00    +0.292 HD
ENDBRANCH  13  17
ENDBRANCH   1  11
BRANCH   2  19
ATOM     19  C   UNL     1       9.257  -0.276  22.480  0.00  0.00    +0.339 C 
ATOM     20  O   UNL     1       9.290  -0.493  21.277  0.00  0.00    -0.245 OA
BRANCH  19  21
ATOM     21  O   UNL     1      10.332  -0.002  23.256  0.00  0.00    -0.462 OA
BRANCH  21  22
ATOM     22  C   UNL     1      10.322   1.270  23.918  0.00  0.00    +0.229 C 
ATOM     23  C   UNL     1      10.475   2.363  22.871  0.00  0.00    +0.048 C 
ENDBRANCH  21  22
ENDBRANCH  19  21
ENDBRANCH   2  19
TORSDOF 5
ENDMDL
MODEL 7
REMARK VINA RESULT:      -5.6      3.002      4.098
REMARK  Name = 
REMARK  7 active torsions:
REMARK  status: ('A' for Active; 'I' for Inactive)
REMARK    1  A    between atoms: C_2  and  C_15
REMARK    2  A    between atoms: C_7  and  C_8
REMARK    3  A    between atoms: C_9  and  C_10
REMARK    4  A    between atoms: C_10  and  O_12
REMARK    5  A    between atoms: O_12  and  C_13
REMARK    6  A    between atoms: C_13  and  C_14
REMARK    7  A    between atoms: C_19  and  O_20
REMARK                            x       y       z     vdW  Elec       q    Type
REMARK                         _______ _______ _______ _____ _____    ______ ____
ROOT
ATOM      1  C   UNL     1       8.320  -3.796  23.934  0.00  0.00    +0.141 C 
ATOM      2  C   UNL     1       7.352  -3.895  25.086  0.00  0.00    +0.078 C 
ATOM      3  C   UNL     1       6.100  -4.368  24.912  0.00  0.00    +0.019 C 
ATOM      4  C   UNL     1       5.028  -4.486  25.961  0.00  0.00    +0.061 C 
ATOM      5  N   UNL     1       5.743  -4.848  23.666  0.00  0.00    -0.300 N 
ATOM      6  H   UNL     1       4.806  -5.212  23.520  0.00  0.00    +0.154 HD
ATOM      7  C   UNL     1       6.609  -5.036  22.633  0.00  0.00    +0.135 C 
ATOM      8  S   UNL     1       6.127  -5.763  21.222  0.00  0.00    -0.019 S 
ATOM      9  N   UNL     1       7.890  -4.638  22.825  0.00  0.00    -0.315 N 
ATOM     10  H   UNL     1       8.519  -4.739  22.039  0.00  0.00    +0.149 HD
ENDROOT
BRANCH   1  11
ATOM     11  C   UNL     1       8.517  -2.365  23.445  0.00  0.00    -0.019 A 
ATOM     12  C   UNL     1       7.406  -1.536  23.227  0.00  0.00    +0.051 A 
ATOM     13  C   UNL     1       7.583  -0.222  22.801  0.00  0.00    +0.117 A 
ATOM     14  C   UNL     1       8.853   0.291  22.564  0.00  0.00    +0.045 A 
ATOM     15  C   UNL     1       9.965  -0.523  22.768  0.00  0.00    +0.004 A 
ATOM     16  C   UNL     1       9.800  -1.838  23.210  0.00  0.00    +0.006 A 
BRANCH  13  17
ATOM     17  O   UNL     1       6.468   0.546  22.629  0.00  0.00    -0.507 OA
ATOM     18  H   UNL     1       6.688   1.464  22.855  0.00  0.00    +0.292 HD
ENDBRANCH  13  17
ENDBRANCH   1  11
BRANCH   2  19
ATOM     19  C   UNL     1       7.945  -3.516  26.396  0.00  0.00    +0.339 C 
ATOM     20  O   UNL     1       8.639  -4.275  27.055  0.00  0.00    -0.245 OA
BRANCH  19  21
ATOM     21  O   UNL     1       7.565  -2.273  26.776  0.00  0.00    -0.462 OA
BRANCH  21  22
ATOM     22  C   UNL     1       8.576  -1.257  26.707  0.00  0.00    +0.229 C 
ATOM     23  C   UNL     1       7.897   0.091  26.527  0.00  0.00    +0.048 C 
ENDBRANCH  21  22
ENDBRANCH  19  21
ENDBRANCH   2  19
TORSDOF 5
ENDMDL
MODEL 8
REMARK VINA RESULT:      -5.6      1.934      5.010
REMARK  Name = 
REMARK  7 active torsions:
REMARK  status: ('A' for Active; 'I' for Inactive)
REMARK    1  A    between atoms: C_2  and  C_15
REMARK    2  A    between atoms: C_7  and  C_8
REMARK    3  A    between atoms: C_9  and  C_10
REMARK    4  A    between atoms: C_10  and  O_12
REMARK    5  A    between atoms: O_12  and  C_13
REMARK    6  A    between atoms: C_13  and  C_14
REMARK    7  A    between atoms: C_19  and  O_20
REMARK                            x       y       z     vdW  Elec       q    Type
REMARK                         _______ _______ _______ _____ _____    ______ ____
ROOT
ATOM      1  C   UNL     1       9.083  -0.580  25.723  0.00  0.00    +0.141 C 
ATOM      2  C   UNL     1       9.348   0.717  25.002  0.00  0.00    +0.078 C 
ATOM      3  C   UNL     1       8.595   1.814  25.232  0.00  0.00    +0.019 C 
ATOM      4  C   UNL     1       8.726   3.154  24.559  0.00  0.00    +0.061 C 
ATOM      5  N   UNL     1       7.624   1.754  26.213  0.00  0.00    -0.300 N 
ATOM      6  H   UNL     1       7.052   2.572  26.402  0.00  0.00    +0.154 HD
ATOM      7  C   UNL     1       7.471   0.722  27.088  0.00  0.00    +0.135 C 
ATOM      8  S   UNL     1       6.380   0.800  28.335  0.00  0.00    -0.019 S 
ATOM      9  N   UNL     1       8.278  -0.353  26.916  0.00  0.00    -0.315 N 
ATOM     10  H   UNL     1       8.130  -1.135  27.541  0.00  0.00    +0.149 HD
ENDROOT
BRANCH   1  11
ATOM     11  C   UNL     1       8.407  -1.624  24.840  0.00  0.00    -0.019 A 
ATOM     12  C   UNL     1       8.892  -2.940  24.806  0.00  0.00    +0.051 A 
ATOM     13  C   UNL     1       8.264  -3.900  24.017  0.00  0.00    +0.117 A 
ATOM     14  C   UNL     1       7.162  -3.577  23.234  0.00  0.00    +0.045 A 
ATOM     15  C   UNL     1       6.675  -2.272  23.249  0.00  0.00    +0.004 A 
ATOM     16  C   UNL     1       7.288  -1.304  24.049  0.00  0.00    +0.006 A 
BRANCH  13  17
ATOM     17  O   UNL     1       8.764  -5.170  24.044  0.00  0.00    -0.507 OA
ATOM     18  H   UNL     1       9.075  -5.360  24.944  0.00  0.00    +0.292 HD
ENDBRANCH  13  17
ENDBRANCH   1  11
BRANCH   2  19
ATOM     19  C   UNL     1      10.542   0.674  24.117  0.00  0.00    +0.339 C 
ATOM     20  O   UNL     1      11.650   1.038  24.480  0.00  0.00    -0.245 OA
BRANCH  19  21
ATOM     21  O   UNL     1      10.226   0.250  22.870  0.00  0.00    -0.462 OA
BRANCH  21  22
ATOM     22  C   UNL     1      10.005   1.276  21.894  0.00  0.00    +0.229 C 
ATOM     23  C   UNL     1       8.571   1.176  21.400  0.00  0.00    +0.048 C 
ENDBRANCH  21  22
ENDBRANCH  19  21
ENDBRANCH   2  19
TORSDOF 5
ENDMDL
MODEL 9
REMARK VINA RESULT:      -5.5      3.628      4.989
REMARK  Name = 
REMARK  7 active torsions:
REMARK  status: ('A' for Active; 'I' for Inactive)
REMARK    1  A    between atoms: C_2  and  C_15
REMARK    2  A    between atoms: C_7  and  C_8
REMARK    3  A    between atoms: C_9  and  C_10
REMARK    4  A    between atoms: C_10  and  O_12
REMARK    5  A    between atoms: O_12  and  C_13
REMARK    6  A    between atoms: C_13  and  C_14
REMARK    7  A    between atoms: C_19  and  O_20
REMARK                            x       y       z     vdW  Elec       q    Type
REMARK                         _______ _______ _______ _____ _____    ______ ____
ROOT
ATOM      1  C   UNL     1       5.272  -3.999  25.374  0.00  0.00    +0.141 C 
ATOM      2  C   UNL     1       4.620  -5.268  24.888  0.00  0.00    +0.078 C 
ATOM      3  C   UNL     1       4.232  -6.232  25.750  0.00  0.00    +0.019 C 
ATOM      4  C   UNL     1       3.607  -7.555  25.399  0.00  0.00    +0.061 C 
ATOM      5  N   UNL     1       4.363  -5.997  27.105  0.00  0.00    -0.300 N 
ATOM      6  H   UNL     1       4.073  -6.711  27.767  0.00  0.00    +0.154 HD
ATOM      7  C   UNL     1       4.703  -4.799  27.653  0.00  0.00    +0.135 C 
ATOM      8  S   UNL     1       4.686  -4.561  29.295  0.00  0.00    -0.019 S 
ATOM      9  N   UNL     1       5.017  -3.798  26.794  0.00  0.00    -0.315 N 
ATOM     10  H   UNL     1       5.311  -2.922  27.207  0.00  0.00    +0.149 HD
ENDROOT
BRANCH   1  11
ATOM     11  C   UNL     1       6.774  -3.965  25.114  0.00  0.00    -0.019 A 
ATOM     12  C   UNL     1       7.585  -5.031  25.531  0.00  0.00    +0.051 A 
ATOM     13  C   UNL     1       8.954  -5.014  25.276  0.00  0.00    +0.117 A 
ATOM     14  C   UNL     1       9.550  -3.940  24.624  0.00  0.00    +0.045 A 
ATOM     15  C   UNL     1       8.759  -2.870  24.213  0.00  0.00    +0.004 A 
ATOM     16  C   UNL     1       7.382  -2.884  24.450  0.00  0.00    +0.006 A 
BRANCH  13  17
ATOM     17  O   UNL     1       9.690  -6.090  25.682  0.00  0.00    -0.507 OA
ATOM     18  H   UNL     1       9.361  -6.379  26.548  0.00  0.00    +0.292 HD
ENDBRANCH  13  17
ENDBRANCH   1  11
BRANCH   2  19
ATOM     19  C   UNL     1       4.379  -5.290  23.421  0.00  0.00    +0.339 C 
ATOM     20  O   UNL     1       3.463  -4.679  22.890  0.00  0.00    -0.245 OA
BRANCH  19  21
ATOM     21  O   UNL     1       5.249  -6.108  22.783  0.00  0.00    -0.462 OA
BRANCH  21  22
ATOM     22  C   UNL     1       5.941  -5.541  21.662  0.00  0.00    +0.229 C 
ATOM     23  C   UNL     1       7.432  -5.772  21.845  0.00  0.00    +0.048 C 
ENDBRANCH  21  22
ENDBRANCH  19  21
ENDBRANCH   2  19
TORSDOF 5
ENDMDL
