MODEL 1
REMARK VINA RESULT:      -6.2      0.000      0.000
REMARK  Name = 
REMARK  11 active torsions:
REMARK  status: ('A' for Active; 'I' for Inactive)
REMARK    1  A    between atoms: C_1  and  C_2
REMARK    2  A    between atoms: C_2  and  C_3
REMARK    3  A    between atoms: C_3  and  C_4
REMARK    4  A    between atoms: C_3  and  O_6
REMARK    5  A    between atoms: C_4  and  C_5
REMARK    6  A    between atoms: O_6  and  C_7
REMARK    7  A    between atoms: C_10  and  C_21
REMARK    8  A    between atoms: C_12  and  N_14
REMARK    9  A    between atoms: C_15  and  N_17
REMARK   10  A    between atoms: C_18  and  C_19
REMARK   11  A    between atoms: C_21  and  O_22
REMARK                            x       y       z     vdW  Elec       q    Type
REMARK                         _______ _______ _______ _____ _____    ______ ____
ROOT
ATOM      1  C   UNL     1       7.762  -1.551  23.322  0.00  0.00    +0.164 C 
ATOM      2  C   UNL     1       8.811  -1.859  24.444  0.00  0.00    +0.122 C 
ATOM      3  C   UNL     1       9.881  -0.743  24.687  0.00  0.00    +0.078 C 
ATOM      4  C   UNL     1      10.055   0.293  23.560  0.00  0.00    +0.062 C 
ATOM      5  C   UNL     1       8.808   0.673  22.826  0.00  0.00    +0.036 C 
ATOM      6  C   UNL     1       7.750  -0.157  22.771  0.00  0.00    +0.016 C 
ENDROOT
BRANCH   2   7
ATOM      7  N   UNL     1       9.439  -3.185  24.353  0.00  0.00    -0.308 N 
ATOM      8  H   UNL     1       9.930  -3.430  23.505  0.00  0.00    +0.149 HD
ATOM      9  C   UNL     1       9.254  -4.274  25.147  0.00  0.00    +0.210 C 
ATOM     10  O   UNL     1       9.723  -5.354  24.779  0.00  0.00    -0.276 OA
ATOM     11  C   UNL     1       8.512  -4.159  26.449  0.00  0.00    +0.109 C 
ENDBRANCH   2   7
BRANCH   3  12
ATOM     12  N   UNL     1       9.640  -0.054  25.971  0.00  0.00    -0.325 NA
ATOM     13  H   UNL     1       9.036   0.757  25.830  0.00  0.00    +0.119 HD
ATOM     14  H   UNL     1       9.146  -0.667  26.622  0.00  0.00    +0.119 HD
ENDBRANCH   3  12
BRANCH   5  15
ATOM     15  C   UNL     1       8.772   1.838  21.897  0.00  0.00    +0.333 C 
ATOM     16  O   UNL     1       7.742   2.340  21.476  0.00  0.00    -0.245 OA
BRANCH  15  17
ATOM     17  O   UNL     1       9.986   2.250  21.478  0.00  0.00    -0.477 OA
ATOM     18  H   UNL     1      10.142   3.207  21.421  0.00  0.00    +0.295 HD
ENDBRANCH  15  17
ENDBRANCH   5  15
BRANCH   1  19
ATOM     19  O   UNL     1       7.655  -2.514  22.253  0.00  0.00    -0.367 OA
BRANCH  19  20
ATOM     20  C   UNL     1       6.500  -3.375  22.103  0.00  0.00    +0.119 C 
BRANCH  20  22
ATOM     21  C   UNL     1       6.361  -5.761  21.108  0.00  0.00    +0.006 C 
ATOM     22  C   UNL     1       7.077  -4.804  22.045  0.00  0.00    +0.028 C 
ENDBRANCH  20  22
BRANCH  20  23
ATOM     23  C   UNL     1       5.488  -3.153  23.235  0.00  0.00    +0.028 C 
ATOM     24  C   UNL     1       5.373  -4.155  24.362  0.00  0.00    +0.006 C 
ENDBRANCH  20  23
ENDBRANCH  19  20
ENDBRANCH   1  19
TORSDOF 8
ENDMDL
MODEL 2
REMARK VINA RESULT:      -5.7      1.565      5.002
REMARK  Name = 
REMARK  11 active torsions:
REMARK  status: ('A' for Active; 'I' for Inactive)
REMARK    1  A    between atoms: C_1  and  C_2
REMARK    2  A    between atoms: C_2  and  C_3
REMARK    3  A    between atoms: C_3  and  C_4
REMARK    4  A    between atoms: C_3  and  O_6
REMARK    5  A    between atoms: C_4  and  C_5
REMARK    6  A    between atoms: O_6  and  C_7
REMARK    7  A    between atoms: C_10  and  C_21
REMARK    8  A    between atoms: C_12  and  N_14
REMARK    9  A    between atoms: C_15  and  N_17
REMARK   10  A    between atoms: C_18  and  C_19
REMARK   11  A    between atoms: C_21  and  O_22
REMARK                            x       y       z     vdW  Elec       q    Type
REMARK                         _______ _______ _______ _____ _____    ______ ____
ROOT
ATOM      1  C   UNL     1       8.820  -2.278  23.317  0.00  0.00    +0.164 C 
ATOM      2  C   UNL     1       8.573  -0.858  23.929  0.00  0.00    +0.122 C 
ATOM      3  C   UNL     1       8.518  -0.802  25.492  0.00  0.00    +0.078 C 
ATOM      4  C   UNL     1       8.280  -2.142  26.216  0.00  0.00    +0.062 C 
ATOM      5  C   UNL     1       8.910  -3.343  25.584  0.00  0.00    +0.036 C 
ATOM      6  C   UNL     1       9.199  -3.371  24.270  0.00  0.00    +0.016 C 
ENDROOT
BRANCH   2   7
ATOM      7  N   UNL     1       7.455  -0.115  23.332  0.00  0.00    -0.308 N 
ATOM      8  H   UNL     1       6.613  -0.619  23.091  0.00  0.00    +0.149 HD
ATOM      9  C   UNL     1       7.450   1.136  22.797  0.00  0.00    +0.210 C 
ATOM     10  O   UNL     1       6.456   1.498  22.163  0.00  0.00    -0.276 OA
ATOM     11  C   UNL     1       8.619   2.060  22.991  0.00  0.00    +0.109 C 
ENDBRANCH   2   7
BRANCH   3  12
ATOM     12  N   UNL     1       9.720  -0.142  26.039  0.00  0.00    -0.325 NA
ATOM     13  H   UNL     1      10.203  -0.766  26.687  0.00  0.00    +0.119 HD
ATOM     14  H   UNL     1      10.388   0.067  25.294  0.00  0.00    +0.119 HD
ENDBRANCH   3  12
BRANCH   5  15
ATOM     15  C   UNL     1       8.987  -4.650  26.297  0.00  0.00    +0.333 C 
ATOM     16  O   UNL     1       8.210  -4.991  27.175  0.00  0.00    -0.245 OA
BRANCH  15  17
ATOM     17  O   UNL     1      10.049  -5.406  25.956  0.00  0.00    -0.477 OA
ATOM     18  H   UNL     1      10.910  -5.176  26.344  0.00  0.00    +0.295 HD
ENDBRANCH  15  17
ENDBRANCH   5  15
BRANCH   1  19
ATOM     19  O   UNL     1       7.840  -2.755  22.371  0.00  0.00    -0.367 OA
BRANCH  19  20
ATOM     20  C   UNL     1       6.947  -3.855  22.675  0.00  0.00    +0.119 C 
BRANCH  20  22
ATOM     21  C   UNL     1       5.146  -2.830  24.228  0.00  0.00    +0.006 C 
ATOM     22  C   UNL     1       5.555  -3.207  22.814  0.00  0.00    +0.028 C 
ENDBRANCH  20  22
BRANCH  20  23
ATOM     23  C   UNL     1       7.025  -4.950  21.602  0.00  0.00    +0.028 C 
ATOM     24  C   UNL     1       5.964  -6.025  21.532  0.00  0.00    +0.006 C 
ENDBRANCH  20  23
ENDBRANCH  19  20
ENDBRANCH   1  19
TORSDOF 8
ENDMDL
MODEL 3
REMARK VINA RESULT:      -5.6      1.973      2.828
REMARK  Name = 
REMARK  11 active torsions:
REMARK  status: ('A' for Active; 'I' for Inactive)
REMARK    1  A    between atoms: C_1  and  C_2
REMARK    2  A    between atoms: C_2  and  C_3
REMARK    3  A    between atoms: C_3  and  C_4
REMARK    4  A    between atoms: C_3  and  O_6
REMARK    5  A    between atoms: C_4  and  C_5
REMARK    6  A    between atoms: O_6  and  C_7
REMARK    7  A    between atoms: C_10  and  C_21
REMARK    8  A    between atoms: C_12  and  N_14
REMARK    9  A    between atoms: C_15  and  N_17
REMARK   10  A    between atoms: C_18  and  C_19
REMARK   11  A    between atoms: C_21  and  O_22
REMARK                            x       y       z     vdW  Elec       q    Type
REMARK                         _______ _______ _______ _____ _____    ______ ____
ROOT
ATOM      1  C   UNL     1       7.607  -3.236  24.099  0.00  0.00    +0.164 C 
ATOM      2  C   UNL     1       7.633  -2.858  25.619  0.00  0.00    +0.122 C 
ATOM      3  C   UNL     1       8.485  -1.597  25.982  0.00  0.00    +0.078 C 
ATOM      4  C   UNL     1       9.516  -1.143  24.930  0.00  0.00    +0.062 C 
ATOM      5  C   UNL     1       9.108  -1.319  23.501  0.00  0.00    +0.036 C 
ATOM      6  C   UNL     1       8.197  -2.243  23.143  0.00  0.00    +0.016 C 
ENDROOT
BRANCH   2   7
ATOM      7  N   UNL     1       7.925  -3.976  26.526  0.00  0.00    -0.308 N 
ATOM      8  H   UNL     1       8.845  -4.391  26.503  0.00  0.00    +0.149 HD
ATOM      9  C   UNL     1       7.059  -4.740  27.246  0.00  0.00    +0.210 C 
ATOM     10  O   UNL     1       7.491  -5.760  27.790  0.00  0.00    -0.276 OA
ATOM     11  C   UNL     1       5.618  -4.340  27.390  0.00  0.00    +0.109 C 
ENDBRANCH   2   7
BRANCH   3  12
ATOM     12  N   UNL     1       7.616  -0.463  26.356  0.00  0.00    -0.325 NA
ATOM     13  H   UNL     1       7.131  -0.663  27.232  0.00  0.00    +0.119 HD
ATOM     14  H   UNL     1       8.173   0.378  26.523  0.00  0.00    +0.119 HD
ENDBRANCH   3  12
BRANCH   5  15
ATOM     15  C   UNL     1       9.879  -0.697  22.386  0.00  0.00    +0.333 C 
ATOM     16  O   UNL     1      10.106   0.499  22.303  0.00  0.00    -0.245 OA
BRANCH  15  17
ATOM     17  O   UNL     1      10.238  -1.558  21.413  0.00  0.00    -0.477 OA
ATOM     18  H   UNL     1      10.134  -1.265  20.492  0.00  0.00    +0.295 HD
ENDBRANCH  15  17
ENDBRANCH   5  15
BRANCH   1  19
ATOM     19  O   UNL     1       8.030  -4.573  23.757  0.00  0.00    -0.367 OA
BRANCH  19  20
ATOM     20  C   UNL     1       7.125  -5.542  23.173  0.00  0.00    +0.119 C 
BRANCH  20  22
ATOM     21  C   UNL     1       4.859  -6.171  24.257  0.00  0.00    +0.006 C 
ATOM     22  C   UNL     1       5.720  -5.092  23.621  0.00  0.00    +0.028 C 
ENDBRANCH  20  22
BRANCH  20  23
ATOM     23  C   UNL     1       7.301  -5.624  21.650  0.00  0.00    +0.028 C 
ATOM     24  C   UNL     1       6.097  -5.802  20.753  0.00  0.00    +0.006 C 
ENDBRANCH  20  23
ENDBRANCH  19  20
ENDBRANCH   1  19
TORSDOF 8
ENDMDL
MODEL 4
REMARK VINA RESULT:      -5.5      1.905      5.280
REMARK  Name = 
REMARK  11 active torsions:
REMARK  status: ('A' for Active; 'I' for Inactive)
REMARK    1  A    between atoms: C_1  and  C_2
REMARK    2  A    between atoms: C_2  and  C_3
REMARK    3  A    between atoms: C_3  and  C_4
REMARK    4  A    between atoms: C_3  and  O_6
REMARK    5  A    between atoms: C_4  and  C_5
REMARK    6  A    between atoms: O_6  and  C_7
REMARK    7  A    between atoms: C_10  and  C_21
REMARK    8  A    between atoms: C_12  and  N_14
REMARK    9  A    between atoms: C_15  and  N_17
REMARK   10  A    between atoms: C_18  and  C_19
REMARK   11  A    between atoms: C_21  and  O_22
REMARK                            x       y       z     vdW  Elec       q    Type
REMARK                         _______ _______ _______ _____ _____    ______ ____
ROOT
ATOM      1  C   UNL     1       7.121  -2.871  22.809  0.00  0.00    +0.164 C 
ATOM      2  C   UNL     1       8.066  -1.628  22.687  0.00  0.00    +0.122 C 
ATOM      3  C   UNL     1       9.407  -1.724  23.487  0.00  0.00    +0.078 C 
ATOM      4  C   UNL     1       9.459  -2.781  24.607  0.00  0.00    +0.062 C 
ATOM      5  C   UNL     1       8.717  -4.052  24.338  0.00  0.00    +0.036 C 
ATOM      6  C   UNL     1       7.686  -4.089  23.475  0.00  0.00    +0.016 C 
ENDROOT
BRANCH   2   7
ATOM      7  N   UNL     1       7.409  -0.332  22.904  0.00  0.00    -0.308 N 
ATOM      8  H   UNL     1       6.541  -0.309  23.420  0.00  0.00    +0.149 HD
ATOM      9  C   UNL     1       7.649   0.861  22.294  0.00  0.00    +0.210 C 
ATOM     10  O   UNL     1       6.850   1.783  22.475  0.00  0.00    -0.276 OA
ATOM     11  C   UNL     1       8.868   1.054  21.437  0.00  0.00    +0.109 C 
ENDBRANCH   2   7
BRANCH   3  12
ATOM     12  N   UNL     1      10.554  -1.901  22.575  0.00  0.00    -0.325 NA
ATOM     13  H   UNL     1      11.415  -2.028  23.109  0.00  0.00    +0.119 HD
ATOM     14  H   UNL     1      10.440  -2.747  22.012  0.00  0.00    +0.119 HD
ENDBRANCH   3  12
BRANCH   5  15
ATOM     15  C   UNL     1       8.888  -5.254  25.203  0.00  0.00    +0.333 C 
ATOM     16  O   UNL     1       7.997  -5.729  25.889  0.00  0.00    -0.245 OA
BRANCH  15  17
ATOM     17  O   UNL     1      10.147  -5.736  25.241  0.00  0.00    -0.477 OA
ATOM     18  H   UNL     1      10.561  -5.982  24.397  0.00  0.00    +0.295 HD
ENDBRANCH  15  17
ENDBRANCH   5  15
BRANCH   1  19
ATOM     19  O   UNL     1       5.779  -2.621  23.276  0.00  0.00    -0.367 OA
BRANCH  19  20
ATOM     20  C   UNL     1       5.317  -3.073  24.573  0.00  0.00    +0.119 C 
BRANCH  20  22
ATOM     21  C   UNL     1       6.442  -1.541  26.330  0.00  0.00    +0.006 C 
ATOM     22  C   UNL     1       5.243  -1.796  25.433  0.00  0.00    +0.028 C 
ENDBRANCH  20  22
BRANCH  20  23
ATOM     23  C   UNL     1       3.986  -3.830  24.459  0.00  0.00    +0.028 C 
ATOM     24  C   UNL     1       3.788  -4.863  23.372  0.00  0.00    +0.006 C 
ENDBRANCH  20  23
ENDBRANCH  19  20
ENDBRANCH   1  19
TORSDOF 8
ENDMDL
MODEL 5
REMARK VINA RESULT:      -5.3      2.433      3.591
REMARK  Name = 
REMARK  11 active torsions:
REMARK  status: ('A' for Active; 'I' for Inactive)
REMARK    1  A    between atoms: C_1  and  C_2
REMARK    2  A    between atoms: C_2  and  C_3
REMARK    3  A    between atoms: C_3  and  C_4
REMARK    4  A    between atoms: C_3  and  O_6
REMARK    5  A    between atoms: C_4  and  C_5
REMARK    6  A    between atoms: O_6  and  C_7
REMARK    7  A    between atoms: C_10  and  C_21
REMARK    8  A    between atoms: C_12  and  N_14
REMARK    9  A    between atoms: C_15  and  N_17
REMARK   10  A    between atoms: C_18  and  C_19
REMARK   11  A    between atoms: C_21  and  O_22
REMARK                            x       y       z     vdW  Elec       q    Type
REMARK                         _______ _______ _______ _____ _____    ______ ____
ROOT
ATOM      1  C   UNL     1       7.653  -2.721  24.306  0.00  0.00    +0.164 C 
ATOM      2  C   UNL     1       7.992  -2.862  22.783  0.00  0.00    +0.122 C 
ATOM      3  C   UNL     1       8.609  -1.588  22.113  0.00  0.00    +0.078 C 
ATOM      4  C   UNL     1       8.417  -0.259  22.868  0.00  0.00    +0.062 C 
ATOM      5  C   UNL     1       8.455  -0.347  24.361  0.00  0.00    +0.036 C 
ATOM      6  C   UNL     1       8.155  -1.492  25.001  0.00  0.00    +0.016 C 
ENDROOT
BRANCH   2   7
ATOM      7  N   UNL     1       6.912  -3.424  21.961  0.00  0.00    -0.308 N 
ATOM      8  H   UNL     1       6.178  -2.808  21.638  0.00  0.00    +0.149 HD
ATOM      9  C   UNL     1       6.583  -4.728  21.758  0.00  0.00    +0.210 C 
ATOM     10  O   UNL     1       5.516  -4.983  21.195  0.00  0.00    -0.276 OA
ATOM     11  C   UNL     1       7.508  -5.830  22.193  0.00  0.00    +0.109 C 
ENDBRANCH   2   7
BRANCH   3  12
ATOM     12  N   UNL     1      10.039  -1.792  21.809  0.00  0.00    -0.325 NA
ATOM     13  H   UNL     1      10.534  -0.900  21.820  0.00  0.00    +0.119 HD
ATOM     14  H   UNL     1      10.480  -2.372  22.526  0.00  0.00    +0.119 HD
ENDBRANCH   3  12
BRANCH   5  15
ATOM     15  C   UNL     1       8.544   0.873  25.214  0.00  0.00    +0.333 C 
ATOM     16  O   UNL     1       7.678   1.214  26.004  0.00  0.00    -0.245 OA
BRANCH  15  17
ATOM     17  O   UNL     1       9.631   1.635  24.979  0.00  0.00    -0.477 OA
ATOM     18  H   UNL     1       9.500   2.474  24.507  0.00  0.00    +0.295 HD
ENDBRANCH  15  17
ENDBRANCH   5  15
BRANCH   1  19
ATOM     19  O   UNL     1       6.292  -2.996  24.694  0.00  0.00    -0.367 OA
BRANCH  19  20
ATOM     20  C   UNL     1       5.947  -4.097  25.571  0.00  0.00    +0.119 C 
BRANCH  20  22
ATOM     21  C   UNL     1       4.740  -6.220  24.709  0.00  0.00    +0.006 C 
ATOM     22  C   UNL     1       4.683  -4.721  24.944  0.00  0.00    +0.028 C 
ENDBRANCH  20  22
BRANCH  20  23
ATOM     23  C   UNL     1       7.119  -5.077  25.725  0.00  0.00    +0.028 C 
ATOM     24  C   UNL     1       7.684  -5.378  27.095  0.00  0.00    +0.006 C 
ENDBRANCH  20  23
ENDBRANCH  19  20
ENDBRANCH   1  19
TORSDOF 8
ENDMDL
MODEL 6
REMARK VINA RESULT:      -5.2      3.101      6.257
REMARK  Name = 
REMARK  11 active torsions:
REMARK  status: ('A' for Active; 'I' for Inactive)
REMARK    1  A    between atoms: C_1  and  C_2
REMARK    2  A    between atoms: C_2  and  C_3
REMARK    3  A    between atoms: C_3  and  C_4
REMARK    4  A    between atoms: C_3  and  O_6
REMARK    5  A    between atoms: C_4  and  C_5
REMARK    6  A    between atoms: O_6  and  C_7
REMARK    7  A    between atoms: C_10  and  C_21
REMARK    8  A    between atoms: C_12  and  N_14
REMARK    9  A    between atoms: C_15  and  N_17
REMARK   10  A    between atoms: C_18  and  C_19
REMARK   11  A    between atoms: C_21  and  O_22
REMARK                            x       y       z     vdW  Elec       q    Type
REMARK                         _______ _______ _______ _____ _____    ______ ____
ROOT
ATOM      1  C   UNL     1       5.824  -3.726  24.254  0.00  0.00    +0.164 C 
ATOM      2  C   UNL     1       6.727  -3.598  22.981  0.00  0.00    +0.122 C 
ATOM      3  C   UNL     1       6.356  -4.552  21.797  0.00  0.00    +0.078 C 
ATOM      4  C   UNL     1       5.472  -5.764  22.148  0.00  0.00    +0.062 C 
ATOM      5  C   UNL     1       4.438  -5.532  23.204  0.00  0.00    +0.036 C 
ATOM      6  C   UNL     1       4.587  -4.563  24.126  0.00  0.00    +0.016 C 
ENDROOT
BRANCH   2   7
ATOM      7  N   UNL     1       8.172  -3.617  23.246  0.00  0.00    -0.308 N 
ATOM      8  H   UNL     1       8.575  -4.439  23.673  0.00  0.00    +0.149 HD
ATOM      9  C   UNL     1       9.054  -2.582  23.244  0.00  0.00    +0.210 C 
ATOM     10  O   UNL     1      10.187  -2.776  23.692  0.00  0.00    -0.276 OA
ATOM     11  C   UNL     1       8.664  -1.240  22.691  0.00  0.00    +0.109 C 
ENDBRANCH   2   7
BRANCH   3  12
ATOM     12  N   UNL     1       5.754  -3.798  20.680  0.00  0.00    -0.325 NA
ATOM     13  H   UNL     1       4.769  -4.045  20.576  0.00  0.00    +0.119 HD
ATOM     14  H   UNL     1       5.778  -2.794  20.869  0.00  0.00    +0.119 HD
ENDBRANCH   3  12
BRANCH   5  15
ATOM     15  C   UNL     1       3.351  -6.519  23.464  0.00  0.00    +0.333 C 
ATOM     16  O   UNL     1       2.164  -6.279  23.308  0.00  0.00    -0.245 OA
BRANCH  15  17
ATOM     17  O   UNL     1       3.777  -7.689  23.979  0.00  0.00    -0.477 OA
ATOM     18  H   UNL     1       3.633  -8.493  23.452  0.00  0.00    +0.295 HD
ENDBRANCH  15  17
ENDBRANCH   5  15
BRANCH   1  19
ATOM     19  O   UNL     1       6.495  -4.011  25.499  0.00  0.00    -0.367 OA
BRANCH  19  20
ATOM     20  C   UNL     1       6.722  -5.365  25.961  0.00  0.00    +0.119 C 
BRANCH  20  22
ATOM     21  C   UNL     1       8.933  -4.196  26.628  0.00  0.00    +0.006 C 
ATOM     22  C   UNL     1       8.248  -5.467  26.157  0.00  0.00    +0.028 C 
ENDBRANCH  20  22
BRANCH  20  23
ATOM     23  C   UNL     1       5.905  -5.668  27.225  0.00  0.00    +0.028 C 
ATOM     24  C   UNL     1       4.839  -6.740  27.204  0.00  0.00    +0.006 C 
ENDBRANCH  20  23
ENDBRANCH  19  20
ENDBRANCH   1  19
TORSDOF 8
ENDMDL
MODEL 7
REMARK VINA RESULT:      -5.1      2.589      5.669
REMARK  Name = 
REMARK  11 active torsions:
REMARK  status: ('A' for Active; 'I' for Inactive)
REMARK    1  A    between atoms: C_1  and  C_2
REMARK    2  A    between atoms: C_2  and  C_3
REMARK    3  A    between atoms: C_3  and  C_4
REMARK    4  A    between atoms: C_3  and  O_6
REMARK    5  A    between atoms: C_4  and  C_5
REMARK    6  A    between atoms: O_6  and  C_7
REMARK    7  A    between atoms: C_10  and  C_21
REMARK    8  A    between atoms: C_12  and  N_14
REMARK    9  A    between atoms: C_15  and  N_17
REMARK   10  A    between atoms: C_18  and  C_19
REMARK   11  A    between atoms: C_21  and  O_22
REMARK                            x       y       z     vdW  Elec       q    Type
REMARK                         _______ _______ _______ _____ _____    ______ ____
ROOT
ATOM      1  C   UNL     1       8.401  -3.592  24.452  0.00  0.00    +0.164 C 
ATOM      2  C   UNL     1       7.719  -3.739  25.854  0.00  0.00    +0.122 C 
ATOM      3  C   UNL     1       6.421  -4.613  25.880  0.00  0.00    +0.078 C 
ATOM      4  C   UNL     1       5.736  -4.859  24.522  0.00  0.00    +0.062 C 
ATOM      5  C   UNL     1       6.652  -5.009  23.348  0.00  0.00    +0.036 C 
ATOM      6  C   UNL     1       7.885  -4.470  23.352  0.00  0.00    +0.016 C 
ENDROOT
BRANCH   2   7
ATOM      7  N   UNL     1       7.523  -2.476  26.579  0.00  0.00    -0.308 N 
ATOM      8  H   UNL     1       8.034  -2.327  27.438  0.00  0.00    +0.149 HD
ATOM      9  C   UNL     1       6.549  -1.540  26.417  0.00  0.00    +0.210 C 
ATOM     10  O   UNL     1       6.445  -0.649  27.264  0.00  0.00    -0.276 OA
ATOM     11  C   UNL     1       5.633  -1.582  25.226  0.00  0.00    +0.109 C 
ENDBRANCH   2   7
BRANCH   3  12
ATOM     12  N   UNL     1       6.665  -5.900  26.560  0.00  0.00    -0.325 NA
ATOM     13  H   UNL     1       5.781  -6.321  26.850  0.00  0.00    +0.119 HD
ATOM     14  H   UNL     1       7.103  -6.567  25.922  0.00  0.00    +0.119 HD
ENDBRANCH   3  12
BRANCH   5  15
ATOM     15  C   UNL     1       6.160  -5.502  22.031  0.00  0.00    +0.333 C 
ATOM     16  O   UNL     1       5.766  -4.772  21.136  0.00  0.00    -0.245 OA
BRANCH  15  17
ATOM     17  O   UNL     1       6.097  -6.845  21.930  0.00  0.00    -0.477 OA
ATOM     18  H   UNL     1       6.868  -7.356  22.229  0.00  0.00    +0.295 HD
ENDBRANCH  15  17
ENDBRANCH   5  15
BRANCH   1  19
ATOM     19  O   UNL     1       8.604  -2.249  23.968  0.00  0.00    -0.367 OA
BRANCH  19  20
ATOM     20  C   UNL     1       9.903  -1.606  23.995  0.00  0.00    +0.119 C 
BRANCH  20  22
ATOM     21  C   UNL     1       9.277  -0.836  21.603  0.00  0.00    +0.006 C 
ATOM     22  C   UNL     1      10.311  -1.477  22.513  0.00  0.00    +0.028 C 
ENDBRANCH  20  22
BRANCH  20  23
ATOM     23  C   UNL     1       9.850  -0.272  24.750  0.00  0.00    +0.028 C 
ATOM     24  C   UNL     1      10.944   0.755  24.561  0.00  0.00    +0.006 C 
ENDBRANCH  20  23
ENDBRANCH  19  20
ENDBRANCH   1  19
TORSDOF 8
ENDMDL
MODEL 8
REMARK VINA RESULT:      -5.1      2.182      5.474
REMARK  Name = 
REMARK  11 active torsions:
REMARK  status: ('A' for Active; 'I' for Inactive)
REMARK    1  A    between atoms: C_1  and  C_2
REMARK    2  A    between atoms: C_2  and  C_3
REMARK    3  A    between atoms: C_3  and  C_4
REMARK    4  A    between atoms: C_3  and  O_6
REMARK    5  A    between atoms: C_4  and  C_5
REMARK    6  A    between atoms: O_6  and  C_7
REMARK    7  A    between atoms: C_10  and  C_21
REMARK    8  A    between atoms: C_12  and  N_14
REMARK    9  A    between atoms: C_15  and  N_17
REMARK   10  A    between atoms: C_18  and  C_19
REMARK   11  A    between atoms: C_21  and  O_22
REMARK                            x       y       z     vdW  Elec       q    Type
REMARK                         _______ _______ _______ _____ _____    ______ ____
ROOT
ATOM      1  C   UNL     1       7.198  -1.304  23.353  0.00  0.00    +0.164 C 
ATOM      2  C   UNL     1       8.490  -0.500  22.981  0.00  0.00    +0.122 C 
ATOM      3  C   UNL     1       9.828  -1.308  23.059  0.00  0.00    +0.078 C 
ATOM      4  C   UNL     1       9.791  -2.613  23.878  0.00  0.00    +0.062 C 
ATOM      5  C   UNL     1       8.513  -3.388  23.810  0.00  0.00    +0.036 C 
ATOM      6  C   UNL     1       7.346  -2.786  23.517  0.00  0.00    +0.016 C 
ENDROOT
BRANCH   2   7
ATOM      7  N   UNL     1       8.617   0.804  23.646  0.00  0.00    -0.308 N 
ATOM      8  H   UNL     1       8.829   0.825  24.633  0.00  0.00    +0.149 HD
ATOM      9  C   UNL     1       8.240   2.032  23.198  0.00  0.00    +0.210 C 
ATOM     10  O   UNL     1       8.248   2.974  23.994  0.00  0.00    -0.276 OA
ATOM     11  C   UNL     1       7.840   2.237  21.764  0.00  0.00    +0.109 C 
ENDBRANCH   2   7
BRANCH   3  12
ATOM     12  N   UNL     1      10.362  -1.577  21.709  0.00  0.00    -0.325 NA
ATOM     13  H   UNL     1       9.835  -1.053  21.009  0.00  0.00    +0.119 HD
ATOM     14  H   UNL     1      11.330  -1.259  21.634  0.00  0.00    +0.119 HD
ENDBRANCH   3  12
BRANCH   5  15
ATOM     15  C   UNL     1       8.416  -4.782  24.331  0.00  0.00    +0.333 C 
ATOM     16  O   UNL     1       9.379  -5.514  24.495  0.00  0.00    -0.245 OA
BRANCH  15  17
ATOM     17  O   UNL     1       7.154  -5.213  24.528  0.00  0.00    -0.477 OA
ATOM     18  H   UNL     1       6.858  -5.335  25.446  0.00  0.00    +0.295 HD
ENDBRANCH  15  17
ENDBRANCH   5  15
BRANCH   1  19
ATOM     19  O   UNL     1       6.380  -0.761  24.410  0.00  0.00    -0.367 OA
BRANCH  19  20
ATOM     20  C   UNL     1       6.240  -1.420  25.693  0.00  0.00    +0.119 C 
BRANCH  20  22
ATOM     21  C   UNL     1       8.460  -0.829  26.888  0.00  0.00    +0.006 C 
ATOM     22  C   UNL     1       6.988  -0.511  26.688  0.00  0.00    +0.028 C 
ENDBRANCH  20  22
BRANCH  20  23
ATOM     23  C   UNL     1       4.764  -1.654  26.043  0.00  0.00    +0.028 C 
ATOM     24  C   UNL     1       4.064  -2.915  25.588  0.00  0.00    +0.006 C 
ENDBRANCH  20  23
ENDBRANCH  19  20
ENDBRANCH   1  19
TORSDOF 8
ENDMDL
MODEL 9
REMARK VINA RESULT:      -5.0      2.394      5.427
REMARK  Name = 
REMARK  11 active torsions:
REMARK  status: ('A' for Active; 'I' for Inactive)
REMARK    1  A    between atoms: C_1  and  C_2
REMARK    2  A    between atoms: C_2  and  C_3
REMARK    3  A    between atoms: C_3  and  C_4
REMARK    4  A    between atoms: C_3  and  O_6
REMARK    5  A    between atoms: C_4  and  C_5
REMARK    6  A    between atoms: O_6  and  C_7
REMARK    7  A    between atoms: C_10  and  C_21
REMARK    8  A    between atoms: C_12  and  N_14
REMARK    9  A    between atoms: C_15  and  N_17
REMARK   10  A    between atoms: C_18  and  C_19
REMARK   11  A    between atoms: C_21  and  O_22
REMARK                            x       y       z     vdW  Elec       q    Type
REMARK                         _______ _______ _______ _____ _____    ______ ____
ROOT
ATOM      1  C   UNL     1       7.041  -4.697  24.270  0.00  0.00    +0.164 C 
ATOM      2  C   UNL     1       8.545  -4.282  24.126  0.00  0.00    +0.122 C 
ATOM      3  C   UNL     1       9.394  -4.373  25.437  0.00  0.00    +0.078 C 
ATOM      4  C   UNL     1       8.605  -4.431  26.760  0.00  0.00    +0.062 C 
ATOM      5  C   UNL     1       7.313  -5.184  26.714  0.00  0.00    +0.036 C 
ATOM      6  C   UNL     1       6.637  -5.342  25.561  0.00  0.00    +0.016 C 
ENDROOT
BRANCH   2   7
ATOM      7  N   UNL     1       8.767  -3.003  23.437  0.00  0.00    -0.308 N 
ATOM      8  H   UNL     1       9.203  -3.014  22.526  0.00  0.00    +0.149 HD
ATOM      9  C   UNL     1       8.711  -1.741  23.940  0.00  0.00    +0.210 C 
ATOM     10  O   UNL     1       9.130  -0.813  23.244  0.00  0.00    -0.276 OA
ATOM     11  C   UNL     1       8.135  -1.482  25.304  0.00  0.00    +0.109 C 
ENDBRANCH   2   7
BRANCH   3  12
ATOM     12  N   UNL     1      10.347  -5.498  25.371  0.00  0.00    -0.325 NA
ATOM     13  H   UNL     1      10.668  -5.747  26.308  0.00  0.00    +0.119 HD
ATOM     14  H   UNL     1       9.894  -6.333  24.994  0.00  0.00    +0.119 HD
ENDBRANCH   3  12
BRANCH   5  15
ATOM     15  C   UNL     1       6.575  -5.544  27.958  0.00  0.00    +0.333 C 
ATOM     16  O   UNL     1       6.891  -6.467  28.693  0.00  0.00    -0.245 OA
BRANCH  15  17
ATOM     17  O   UNL     1       5.458  -4.819  28.170  0.00  0.00    -0.477 OA
ATOM     18  H   UNL     1       4.659  -5.067  27.675  0.00  0.00    +0.295 HD
ENDBRANCH  15  17
ENDBRANCH   5  15
BRANCH   1  19
ATOM     19  O   UNL     1       6.058  -3.720  23.869  0.00  0.00    -0.367 OA
BRANCH  19  20
ATOM     20  C   UNL     1       5.162  -3.941  22.752  0.00  0.00    +0.119 C 
BRANCH  20  22
ATOM     21  C   UNL     1       6.086  -5.738  21.133  0.00  0.00    +0.006 C 
ATOM     22  C   UNL     1       6.086  -4.281  21.565  0.00  0.00    +0.028 C 
ENDBRANCH  20  22
BRANCH  20  23
ATOM     23  C   UNL     1       4.126  -5.027  23.073  0.00  0.00    +0.028 C 
ATOM     24  C   UNL     1       3.061  -4.778  24.117  0.00  0.00    +0.006 C 
ENDBRANCH  20  23
ENDBRANCH  19  20
ENDBRANCH   1  19
TORSDOF 8
ENDMDL
