MODEL 1
REMARK VINA RESULT:      -6.4      0.000      0.000
REMARK  Name = 
REMARK  5 active torsions:
REMARK  status: ('A' for Active; 'I' for Inactive)
REMARK    1  A    between atoms: C_1  and  O_2
REMARK    2  A    between atoms: O_2  and  C_3
REMARK    3  A    between atoms: N_9  and  S_10
REMARK    4  A    between atoms: S_10  and  C_13
REMARK    5  A    between atoms: C_16  and  N_17
REMARK                            x       y       z     vdW  Elec       q    Type
REMARK                         _______ _______ _______ _____ _____    ______ ____
ROOT
ATOM      1  S   UNL     1       9.071  -2.195  23.299  0.00  0.00    +0.074 S 
ATOM      2  O   UNL     1       8.506  -2.522  22.008  0.00  0.00    -0.150 OA
ATOM      3  O   UNL     1      10.193  -2.941  23.829  0.00  0.00    -0.150 OA
ENDROOT
BRANCH   1   6
ATOM      4  C   UNL     1       7.019  -4.572  24.680  0.00  0.00    +0.257 A 
ATOM      5  C   UNL     1       6.880  -3.224  24.316  0.00  0.00    +0.201 A 
ATOM      6  N   UNL     1       7.875  -2.232  24.483  0.00  0.00    -0.195 N 
ATOM      7  H   UNL     1       7.455  -1.315  24.597  0.00  0.00    +0.175 HD
ATOM      8  N   UNL     1       5.766  -2.733  23.730  0.00  0.00    -0.233 NA
ATOM      9  C   UNL     1       4.785  -3.642  23.523  0.00  0.00    +0.133 A 
ATOM     10  C   UNL     1       4.909  -4.976  23.884  0.00  0.00    +0.134 A 
ATOM     11  N   UNL     1       6.024  -5.471  24.469  0.00  0.00    -0.217 NA
BRANCH   4  13
ATOM     12  C   UNL     1       7.911  -5.144  26.767  0.00  0.00    +0.279 C 
ATOM     13  O   UNL     1       8.145  -4.958  25.375  0.00  0.00    -0.477 OA
ENDBRANCH   4  13
ENDBRANCH   1   6
BRANCH   1  14
ATOM     14  C   UNL     1       9.577  -0.482  23.243  0.00  0.00    +0.109 A 
ATOM     15  C   UNL     1       9.475   0.228  22.046  0.00  0.00    +0.030 A 
ATOM     16  C   UNL     1       9.896   1.561  21.994  0.00  0.00    +0.024 A 
ATOM     17  C   UNL     1      10.396   2.201  23.133  0.00  0.00    +0.025 A 
ATOM     18  C   UNL     1      10.588   1.446  24.294  0.00  0.00    +0.024 A 
ATOM     19  C   UNL     1      10.167   0.112  24.363  0.00  0.00    +0.030 A 
BRANCH  17  20
ATOM     20  N   UNL     1      10.912   3.498  23.038  0.00  0.00    -0.358 N 
ATOM     21  H   UNL     1      11.031   3.826  22.085  0.00  0.00    +0.142 HD
ATOM     22  H   UNL     1      10.430   4.177  23.620  0.00  0.00    +0.142 HD
ENDBRANCH  17  20
ENDBRANCH   1  14
TORSDOF 4
ENDMDL
MODEL 2
REMARK VINA RESULT:      -6.4      2.226      3.011
REMARK  Name = 
REMARK  5 active torsions:
REMARK  status: ('A' for Active; 'I' for Inactive)
REMARK    1  A    between atoms: C_1  and  O_2
REMARK    2  A    between atoms: O_2  and  C_3
REMARK    3  A    between atoms: N_9  and  S_10
REMARK    4  A    between atoms: S_10  and  C_13
REMARK    5  A    between atoms: C_16  and  N_17
REMARK                            x       y       z     vdW  Elec       q    Type
REMARK                         _______ _______ _______ _____ _____    ______ ____
ROOT
ATOM      1  S   UNL     1       6.563  -2.360  23.157  0.00  0.00    +0.074 S 
ATOM      2  O   UNL     1       6.028  -2.017  24.457  0.00  0.00    -0.150 OA
ATOM      3  O   UNL     1       5.682  -2.661  22.048  0.00  0.00    -0.150 OA
ENDROOT
BRANCH   1   6
ATOM      4  C   UNL     1       6.727  -5.243  25.010  0.00  0.00    +0.257 A 
ATOM      5  C   UNL     1       7.657  -4.294  24.557  0.00  0.00    +0.201 A 
ATOM      6  N   UNL     1       7.620  -3.663  23.292  0.00  0.00    -0.195 N 
ATOM      7  H   UNL     1       8.554  -3.399  22.993  0.00  0.00    +0.175 HD
ATOM      8  N   UNL     1       8.686  -3.856  25.314  0.00  0.00    -0.233 NA
ATOM      9  C   UNL     1       8.760  -4.408  26.548  0.00  0.00    +0.133 A 
ATOM     10  C   UNL     1       7.850  -5.352  27.004  0.00  0.00    +0.134 A 
ATOM     11  N   UNL     1       6.817  -5.791  26.248  0.00  0.00    -0.217 NA
BRANCH   4  13
ATOM     12  C   UNL     1       4.763  -6.492  24.756  0.00  0.00    +0.279 C 
ATOM     13  O   UNL     1       5.778  -5.714  24.129  0.00  0.00    -0.477 OA
ENDBRANCH   4  13
ENDBRANCH   1   6
BRANCH   1  14
ATOM     14  C   UNL     1       7.603  -1.006  22.632  0.00  0.00    +0.109 A 
ATOM     15  C   UNL     1       8.864  -1.272  22.095  0.00  0.00    +0.030 A 
ATOM     16  C   UNL     1       9.690  -0.212  21.710  0.00  0.00    +0.024 A 
ATOM     17  C   UNL     1       9.260   1.114  21.832  0.00  0.00    +0.025 A 
ATOM     18  C   UNL     1       8.040   1.366  22.466  0.00  0.00    +0.024 A 
ATOM     19  C   UNL     1       7.200   0.314  22.853  0.00  0.00    +0.030 A 
BRANCH  17  20
ATOM     20  N   UNL     1      10.138   2.164  21.543  0.00  0.00    -0.358 N 
ATOM     21  H   UNL     1       9.919   3.030  22.026  0.00  0.00    +0.142 HD
ATOM     22  H   UNL     1      11.120   1.916  21.626  0.00  0.00    +0.142 HD
ENDBRANCH  17  20
ENDBRANCH   1  14
TORSDOF 4
ENDMDL
MODEL 3
REMARK VINA RESULT:      -6.3      1.667      2.051
REMARK  Name = 
REMARK  5 active torsions:
REMARK  status: ('A' for Active; 'I' for Inactive)
REMARK    1  A    between atoms: C_1  and  O_2
REMARK    2  A    between atoms: O_2  and  C_3
REMARK    3  A    between atoms: N_9  and  S_10
REMARK    4  A    between atoms: S_10  and  C_13
REMARK    5  A    between atoms: C_16  and  N_17
REMARK                            x       y       z     vdW  Elec       q    Type
REMARK                         _______ _______ _______ _____ _____    ______ ____
ROOT
ATOM      1  S   UNL     1       8.647  -1.743  22.766  0.00  0.00    +0.074 S 
ATOM      2  O   UNL     1       7.219  -1.622  22.967  0.00  0.00    -0.150 OA
ATOM      3  O   UNL     1       9.179  -2.294  21.537  0.00  0.00    -0.150 OA
ENDROOT
BRANCH   1   6
ATOM      4  C   UNL     1       7.882  -4.601  24.502  0.00  0.00    +0.257 A 
ATOM      5  C   UNL     1       8.430  -3.351  24.831  0.00  0.00    +0.201 A 
ATOM      6  N   UNL     1       9.337  -2.627  24.022  0.00  0.00    -0.195 N 
ATOM      7  H   UNL     1       9.934  -2.035  24.590  0.00  0.00    +0.175 HD
ATOM      8  N   UNL     1       8.117  -2.687  25.964  0.00  0.00    -0.233 NA
ATOM      9  C   UNL     1       7.233  -3.322  26.770  0.00  0.00    +0.133 A 
ATOM     10  C   UNL     1       6.689  -4.560  26.458  0.00  0.00    +0.134 A 
ATOM     11  N   UNL     1       7.000  -5.227  25.323  0.00  0.00    -0.217 NA
BRANCH   4  13
ATOM     12  C   UNL     1       7.313  -5.610  22.468  0.00  0.00    +0.279 C 
ATOM     13  O   UNL     1       8.346  -5.255  23.382  0.00  0.00    -0.477 OA
ENDBRANCH   4  13
ENDBRANCH   1   6
BRANCH   1  14
ATOM     14  C   UNL     1       9.352  -0.110  22.942  0.00  0.00    +0.109 A 
ATOM     15  C   UNL     1       9.451   0.722  21.826  0.00  0.00    +0.030 A 
ATOM     16  C   UNL     1      10.028   1.989  21.957  0.00  0.00    +0.024 A 
ATOM     17  C   UNL     1      10.485   2.445  23.198  0.00  0.00    +0.025 A 
ATOM     18  C   UNL     1      10.472   1.562  24.281  0.00  0.00    +0.024 A 
ATOM     19  C   UNL     1       9.894   0.291  24.166  0.00  0.00    +0.030 A 
BRANCH  17  20
ATOM     20  N   UNL     1      11.155   3.670  23.291  0.00  0.00    -0.358 N 
ATOM     21  H   UNL     1      11.109   4.096  24.211  0.00  0.00    +0.142 HD
ATOM     22  H   UNL     1      12.103   3.649  22.925  0.00  0.00    +0.142 HD
ENDBRANCH  17  20
ENDBRANCH   1  14
TORSDOF 4
ENDMDL
MODEL 4
REMARK VINA RESULT:      -6.3      1.443      1.896
REMARK  Name = 
REMARK  5 active torsions:
REMARK  status: ('A' for Active; 'I' for Inactive)
REMARK    1  A    between atoms: C_1  and  O_2
REMARK    2  A    between atoms: O_2  and  C_3
REMARK    3  A    between atoms: N_9  and  S_10
REMARK    4  A    between atoms: S_10  and  C_13
REMARK    5  A    between atoms: C_16  and  N_17
REMARK                            x       y       z     vdW  Elec       q    Type
REMARK                         _______ _______ _______ _____ _____    ______ ____
ROOT
ATOM      1  S   UNL     1       8.640  -2.418  24.531  0.00  0.00    +0.074 S 
ATOM      2  O   UNL     1       9.357  -3.554  23.993  0.00  0.00    -0.150 OA
ATOM      3  O   UNL     1       8.659  -2.134  25.950  0.00  0.00    -0.150 OA
ENDROOT
BRANCH   1   6
ATOM      4  C   UNL     1       6.248  -4.860  24.249  0.00  0.00    +0.257 A 
ATOM      5  C   UNL     1       6.595  -3.715  23.516  0.00  0.00    +0.201 A 
ATOM      6  N   UNL     1       7.020  -2.490  24.081  0.00  0.00    -0.195 N 
ATOM      7  H   UNL     1       6.782  -1.711  23.475  0.00  0.00    +0.175 HD
ATOM      8  N   UNL     1       6.585  -3.676  22.167  0.00  0.00    -0.233 NA
ATOM      9  C   UNL     1       6.208  -4.830  21.567  0.00  0.00    +0.133 A 
ATOM     10  C   UNL     1       5.857  -5.967  22.282  0.00  0.00    +0.134 A 
ATOM     11  N   UNL     1       5.867  -6.009  23.634  0.00  0.00    -0.217 NA
BRANCH   4  13
ATOM     12  C   UNL     1       7.227  -5.468  26.287  0.00  0.00    +0.279 C 
ATOM     13  O   UNL     1       6.177  -4.773  25.623  0.00  0.00    -0.477 OA
ENDBRANCH   4  13
ENDBRANCH   1   6
BRANCH   1  14
ATOM     14  C   UNL     1       9.258  -0.957  23.708  0.00  0.00    +0.109 A 
ATOM     15  C   UNL     1       9.893   0.037  24.454  0.00  0.00    +0.030 A 
ATOM     16  C   UNL     1      10.352   1.194  23.815  0.00  0.00    +0.024 A 
ATOM     17  C   UNL     1      10.206   1.357  22.434  0.00  0.00    +0.025 A 
ATOM     18  C   UNL     1       9.477   0.401  21.720  0.00  0.00    +0.024 A 
ATOM     19  C   UNL     1       9.015  -0.764  22.345  0.00  0.00    +0.030 A 
BRANCH  17  20
ATOM     20  N   UNL     1      10.573   2.564  21.828  0.00  0.00    -0.358 N 
ATOM     21  H   UNL     1      10.263   3.389  22.332  0.00  0.00    +0.142 HD
ATOM     22  H   UNL     1      11.556   2.616  21.576  0.00  0.00    +0.142 HD
ENDBRANCH  17  20
ENDBRANCH   1  14
TORSDOF 4
ENDMDL
MODEL 5
REMARK VINA RESULT:      -6.3      1.174      1.311
REMARK  Name = 
REMARK  5 active torsions:
REMARK  status: ('A' for Active; 'I' for Inactive)
REMARK    1  A    between atoms: C_1  and  O_2
REMARK    2  A    between atoms: O_2  and  C_3
REMARK    3  A    between atoms: N_9  and  S_10
REMARK    4  A    between atoms: S_10  and  C_13
REMARK    5  A    between atoms: C_16  and  N_17
REMARK                            x       y       z     vdW  Elec       q    Type
REMARK                         _______ _______ _______ _____ _____    ______ ____
ROOT
ATOM      1  S   UNL     1       8.763  -3.322  23.753  0.00  0.00    +0.074 S 
ATOM      2  O   UNL     1       8.269  -4.072  22.619  0.00  0.00    -0.150 OA
ATOM      3  O   UNL     1       9.905  -3.789  24.511  0.00  0.00    -0.150 OA
ENDROOT
BRANCH   1   6
ATOM      4  C   UNL     1       6.375  -5.247  25.288  0.00  0.00    +0.257 A 
ATOM      5  C   UNL     1       6.420  -3.947  24.761  0.00  0.00    +0.201 A 
ATOM      6  N   UNL     1       7.525  -3.069  24.865  0.00  0.00    -0.195 N 
ATOM      7  H   UNL     1       7.220  -2.101  24.847  0.00  0.00    +0.175 HD
ATOM      8  N   UNL     1       5.402  -3.402  24.061  0.00  0.00    -0.233 NA
ATOM      9  C   UNL     1       4.323  -4.206  23.908  0.00  0.00    +0.133 A 
ATOM     10  C   UNL     1       4.264  -5.490  24.430  0.00  0.00    +0.134 A 
ATOM     11  N   UNL     1       5.284  -6.039  25.130  0.00  0.00    -0.217 NA
BRANCH   4  13
ATOM     12  C   UNL     1       7.143  -5.554  27.478  0.00  0.00    +0.279 C 
ATOM     13  O   UNL     1       7.414  -5.677  26.085  0.00  0.00    -0.477 OA
ENDBRANCH   4  13
ENDBRANCH   1   6
BRANCH   1  14
ATOM     14  C   UNL     1       9.171  -1.682  23.172  0.00  0.00    +0.109 A 
ATOM     15  C   UNL     1       9.035  -1.376  21.817  0.00  0.00    +0.030 A 
ATOM     16  C   UNL     1       9.379  -0.102  21.357  0.00  0.00    +0.024 A 
ATOM     17  C   UNL     1       9.836   0.881  22.242  0.00  0.00    +0.025 A 
ATOM     18  C   UNL     1      10.064   0.528  23.575  0.00  0.00    +0.024 A 
ATOM     19  C   UNL     1       9.720  -0.743  24.051  0.00  0.00    +0.030 A 
BRANCH  17  20
ATOM     20  N   UNL     1      10.278   2.115  21.750  0.00  0.00    -0.358 N 
ATOM     21  H   UNL     1      10.136   2.236  20.753  0.00  0.00    +0.142 HD
ATOM     22  H   UNL     1       9.947   2.913  22.284  0.00  0.00    +0.142 HD
ENDBRANCH  17  20
ENDBRANCH   1  14
TORSDOF 4
ENDMDL
MODEL 6
REMARK VINA RESULT:      -6.2      2.000      2.813
REMARK  Name = 
REMARK  5 active torsions:
REMARK  status: ('A' for Active; 'I' for Inactive)
REMARK    1  A    between atoms: C_1  and  O_2
REMARK    2  A    between atoms: O_2  and  C_3
REMARK    3  A    between atoms: N_9  and  S_10
REMARK    4  A    between atoms: S_10  and  C_13
REMARK    5  A    between atoms: C_16  and  N_17
REMARK                            x       y       z     vdW  Elec       q    Type
REMARK                         _______ _______ _______ _____ _____    ______ ____
ROOT
ATOM      1  S   UNL     1       6.806  -2.891  22.776  0.00  0.00    +0.074 S 
ATOM      2  O   UNL     1       5.688  -2.941  21.858  0.00  0.00    -0.150 OA
ATOM      3  O   UNL     1       7.775  -3.965  22.824  0.00  0.00    -0.150 OA
ENDROOT
BRANCH   1   6
ATOM      4  C   UNL     1       8.070  -3.342  25.932  0.00  0.00    +0.257 A 
ATOM      5  C   UNL     1       6.822  -3.536  25.321  0.00  0.00    +0.201 A 
ATOM      6  N   UNL     1       6.253  -2.677  24.351  0.00  0.00    -0.195 N 
ATOM      7  H   UNL     1       5.239  -2.718  24.384  0.00  0.00    +0.175 HD
ATOM      8  N   UNL     1       6.035  -4.601  25.583  0.00  0.00    -0.233 NA
ATOM      9  C   UNL     1       6.538  -5.472  26.489  0.00  0.00    +0.133 A 
ATOM     10  C   UNL     1       7.768  -5.288  27.103  0.00  0.00    +0.134 A 
ATOM     11  N   UNL     1       8.560  -4.222  26.842  0.00  0.00    -0.217 NA
BRANCH   4  13
ATOM     12  C   UNL     1       8.674  -1.239  26.765  0.00  0.00    +0.279 C 
ATOM     13  O   UNL     1       8.753  -2.169  25.690  0.00  0.00    -0.477 OA
ENDBRANCH   4  13
ENDBRANCH   1   6
BRANCH   1  14
ATOM     14  C   UNL     1       7.718  -1.394  22.427  0.00  0.00    +0.109 A 
ATOM     15  C   UNL     1       8.961  -1.475  21.798  0.00  0.00    +0.030 A 
ATOM     16  C   UNL     1       9.688  -0.307  21.549  0.00  0.00    +0.024 A 
ATOM     17  C   UNL     1       9.175   0.946  21.899  0.00  0.00    +0.025 A 
ATOM     18  C   UNL     1       7.978   1.002  22.620  0.00  0.00    +0.024 A 
ATOM     19  C   UNL     1       7.237  -0.160  22.872  0.00  0.00    +0.030 A 
BRANCH  17  20
ATOM     20  N   UNL     1       9.960   2.094  21.742  0.00  0.00    -0.358 N 
ATOM     21  H   UNL     1      10.846   1.926  21.276  0.00  0.00    +0.142 HD
ATOM     22  H   UNL     1       9.461   2.883  21.343  0.00  0.00    +0.142 HD
ENDBRANCH  17  20
ENDBRANCH   1  14
TORSDOF 4
ENDMDL
MODEL 7
REMARK VINA RESULT:      -6.1      2.131      6.073
REMARK  Name = 
REMARK  5 active torsions:
REMARK  status: ('A' for Active; 'I' for Inactive)
REMARK    1  A    between atoms: C_1  and  O_2
REMARK    2  A    between atoms: O_2  and  C_3
REMARK    3  A    between atoms: N_9  and  S_10
REMARK    4  A    between atoms: S_10  and  C_13
REMARK    5  A    between atoms: C_16  and  N_17
REMARK                            x       y       z     vdW  Elec       q    Type
REMARK                         _______ _______ _______ _____ _____    ______ ____
ROOT
ATOM      1  S   UNL     1       7.452  -2.433  22.780  0.00  0.00    +0.074 S 
ATOM      2  O   UNL     1       6.925  -3.229  21.692  0.00  0.00    -0.150 OA
ATOM      3  O   UNL     1       6.801  -1.204  23.182  0.00  0.00    -0.150 OA
ENDROOT
BRANCH   1   6
ATOM      4  C   UNL     1       9.709  -0.142  23.973  0.00  0.00    +0.257 A 
ATOM      5  C   UNL     1       9.418  -0.694  22.716  0.00  0.00    +0.201 A 
ATOM      6  N   UNL     1       9.063  -2.044  22.487  0.00  0.00    -0.195 N 
ATOM      7  H   UNL     1       9.338  -2.336  21.554  0.00  0.00    +0.175 HD
ATOM      8  N   UNL     1       9.420   0.032  21.578  0.00  0.00    -0.233 NA
ATOM      9  C   UNL     1       9.732   1.340  21.738  0.00  0.00    +0.133 A 
ATOM     10  C   UNL     1      10.026   1.895  22.975  0.00  0.00    +0.134 A 
ATOM     11  N   UNL     1      10.023   1.171  24.117  0.00  0.00    -0.217 NA
BRANCH   4  13
ATOM     12  C   UNL     1       8.921  -0.615  26.127  0.00  0.00    +0.279 C 
ATOM     13  O   UNL     1       9.794  -0.982  25.063  0.00  0.00    -0.477 OA
ENDBRANCH   4  13
ENDBRANCH   1   6
BRANCH   1  14
ATOM     14  C   UNL     1       7.511  -3.478  24.228  0.00  0.00    +0.109 A 
ATOM     15  C   UNL     1       8.565  -4.379  24.385  0.00  0.00    +0.030 A 
ATOM     16  C   UNL     1       8.598  -5.217  25.504  0.00  0.00    +0.024 A 
ATOM     17  C   UNL     1       7.600  -5.147  26.483  0.00  0.00    +0.025 A 
ATOM     18  C   UNL     1       6.500  -4.315  26.258  0.00  0.00    +0.024 A 
ATOM     19  C   UNL     1       6.455  -3.467  25.144  0.00  0.00    +0.030 A 
BRANCH  17  20
ATOM     20  N   UNL     1       7.590  -6.065  27.539  0.00  0.00    -0.358 N 
ATOM     21  H   UNL     1       8.122  -6.910  27.357  0.00  0.00    +0.142 HD
ATOM     22  H   UNL     1       7.817  -5.657  28.441  0.00  0.00    +0.142 HD
ENDBRANCH  17  20
ENDBRANCH   1  14
TORSDOF 4
ENDMDL
MODEL 8
REMARK VINA RESULT:      -5.9      2.096      2.395
REMARK  Name = 
REMARK  5 active torsions:
REMARK  status: ('A' for Active; 'I' for Inactive)
REMARK    1  A    between atoms: C_1  and  O_2
REMARK    2  A    between atoms: O_2  and  C_3
REMARK    3  A    between atoms: N_9  and  S_10
REMARK    4  A    between atoms: S_10  and  C_13
REMARK    5  A    between atoms: C_16  and  N_17
REMARK                            x       y       z     vdW  Elec       q    Type
REMARK                         _______ _______ _______ _____ _____    ______ ____
ROOT
ATOM      1  S   UNL     1       8.890  -2.860  24.379  0.00  0.00    +0.074 S 
ATOM      2  O   UNL     1       7.614  -3.310  23.867  0.00  0.00    -0.150 OA
ATOM      3  O   UNL     1      10.072  -3.688  24.258  0.00  0.00    -0.150 OA
ENDROOT
BRANCH   1   6
ATOM      4  C   UNL     1       6.627  -3.435  26.892  0.00  0.00    +0.257 A 
ATOM      5  C   UNL     1       7.432  -2.353  26.504  0.00  0.00    +0.201 A 
ATOM      6  N   UNL     1       8.753  -2.464  26.009  0.00  0.00    -0.195 N 
ATOM      7  H   UNL     1       9.288  -1.628  26.221  0.00  0.00    +0.175 HD
ATOM      8  N   UNL     1       7.007  -1.073  26.537  0.00  0.00    -0.233 NA
ATOM      9  C   UNL     1       5.739  -0.905  26.980  0.00  0.00    +0.133 A 
ATOM     10  C   UNL     1       4.935  -1.967  27.373  0.00  0.00    +0.134 A 
ATOM     11  N   UNL     1       5.358  -3.251  27.339  0.00  0.00    -0.217 NA
BRANCH   4  13
ATOM     12  C   UNL     1       6.411  -5.675  26.246  0.00  0.00    +0.279 C 
ATOM     13  O   UNL     1       7.183  -4.696  26.934  0.00  0.00    -0.477 OA
ENDBRANCH   4  13
ENDBRANCH   1   6
BRANCH   1  14
ATOM     14  C   UNL     1       9.269  -1.307  23.582  0.00  0.00    +0.109 A 
ATOM     15  C   UNL     1       9.089  -1.177  22.204  0.00  0.00    +0.030 A 
ATOM     16  C   UNL     1       9.411   0.029  21.575  0.00  0.00    +0.024 A 
ATOM     17  C   UNL     1       9.889   1.118  22.312  0.00  0.00    +0.025 A 
ATOM     18  C   UNL     1      10.162   0.938  23.671  0.00  0.00    +0.024 A 
ATOM     19  C   UNL     1       9.840  -0.263  24.316  0.00  0.00    +0.030 A 
BRANCH  17  20
ATOM     20  N   UNL     1      10.308   2.279  21.653  0.00  0.00    -0.358 N 
ATOM     21  H   UNL     1       9.961   3.137  22.070  0.00  0.00    +0.142 HD
ATOM     22  H   UNL     1      11.308   2.316  21.478  0.00  0.00    +0.142 HD
ENDBRANCH  17  20
ENDBRANCH   1  14
TORSDOF 4
ENDMDL
MODEL 9
REMARK VINA RESULT:      -5.9      2.149      3.026
REMARK  Name = 
REMARK  5 active torsions:
REMARK  status: ('A' for Active; 'I' for Inactive)
REMARK    1  A    between atoms: C_1  and  O_2
REMARK    2  A    between atoms: O_2  and  C_3
REMARK    3  A    between atoms: N_9  and  S_10
REMARK    4  A    between atoms: S_10  and  C_13
REMARK    5  A    between atoms: C_16  and  N_17
REMARK                            x       y       z     vdW  Elec       q    Type
REMARK                         _______ _______ _______ _____ _____    ______ ____
ROOT
ATOM      1  S   UNL     1       8.318  -1.304  26.135  0.00  0.00    +0.074 S 
ATOM      2  O   UNL     1       9.016  -0.843  27.316  0.00  0.00    -0.150 OA
ATOM      3  O   UNL     1       6.871  -1.307  26.083  0.00  0.00    -0.150 OA
ENDROOT
BRANCH   1   6
ATOM      4  C   UNL     1       6.827  -4.149  24.931  0.00  0.00    +0.257 A 
ATOM      5  C   UNL     1       7.825  -3.871  25.877  0.00  0.00    +0.201 A 
ATOM      6  N   UNL     1       8.811  -2.865  25.742  0.00  0.00    -0.195 N 
ATOM      7  H   UNL     1       9.652  -3.113  26.253  0.00  0.00    +0.175 HD
ATOM      8  N   UNL     1       7.929  -4.530  27.050  0.00  0.00    -0.233 NA
ATOM      9  C   UNL     1       6.996  -5.492  27.247  0.00  0.00    +0.133 A 
ATOM     10  C   UNL     1       6.008  -5.780  26.316  0.00  0.00    +0.134 A 
ATOM     11  N   UNL     1       5.901  -5.119  25.140  0.00  0.00    -0.217 NA
BRANCH   4  13
ATOM     12  C   UNL     1       7.360  -4.322  22.658  0.00  0.00    +0.279 C 
ATOM     13  O   UNL     1       6.867  -3.504  23.714  0.00  0.00    -0.477 OA
ENDBRANCH   4  13
ENDBRANCH   1   6
BRANCH   1  14
ATOM     14  C   UNL     1       8.877  -0.310  24.760  0.00  0.00    +0.109 A 
ATOM     15  C   UNL     1      10.074   0.400  24.864  0.00  0.00    +0.030 A 
ATOM     16  C   UNL     1      10.499   1.200  23.800  0.00  0.00    +0.024 A 
ATOM     17  C   UNL     1       9.753   1.280  22.619  0.00  0.00    +0.025 A 
ATOM     18  C   UNL     1       8.507   0.647  22.571  0.00  0.00    +0.024 A 
ATOM     19  C   UNL     1       8.071  -0.162  23.628  0.00  0.00    +0.030 A 
BRANCH  17  20
ATOM     20  N   UNL     1      10.135   2.167  21.607  0.00  0.00    -0.358 N 
ATOM     21  H   UNL     1       9.404   2.813  21.327  0.00  0.00    +0.142 HD
ATOM     22  H   UNL     1      11.017   2.640  21.784  0.00  0.00    +0.142 HD
ENDBRANCH  17  20
ENDBRANCH   1  14
TORSDOF 4
ENDMDL
