MODEL 1
REMARK VINA RESULT:      -4.5      0.000      0.000
REMARK  Name = 
REMARK  54 active torsions:
REMARK  status: ('A' for Active; 'I' for Inactive)
REMARK    1  A    between atoms: C_1  and  C_2
REMARK    2  A    between atoms: C_2  and  C_3
REMARK    3  A    between atoms: C_2  and  C_4
REMARK    4  A    between atoms: C_4  and  C_5
REMARK    5  A    between atoms: C_5  and  C_6
REMARK    6  A    between atoms: C_6  and  C_7
REMARK    7  A    between atoms: C_7  and  C_9
REMARK    8  A    between atoms: C_7  and  C_10
REMARK    9  A    between atoms: C_10  and  C_11
REMARK   10  A    between atoms: C_11  and  C_12
REMARK   11  A    between atoms: C_12  and  C_13
REMARK   12  A    between atoms: C_13  and  C_15
REMARK   13  A    between atoms: C_13  and  C_16
REMARK   14  A    between atoms: C_16  and  C_17
REMARK   15  A    between atoms: C_17  and  C_18
REMARK   16  A    between atoms: C_18  and  C_19
REMARK   17  A    between atoms: C_19  and  C_21
REMARK   18  A    between atoms: C_19  and  C_22
REMARK   19  A    between atoms: C_22  and  C_23
REMARK   20  A    between atoms: C_23  and  O_24
REMARK   21  A    between atoms: O_24  and  C_25
REMARK   22  A    between atoms: C_25  and  C_26
REMARK   23  A    between atoms: C_26  and  C_28
REMARK   24  A    between atoms: C_26  and  O_44
REMARK   25  A    between atoms: C_28  and  O_29
REMARK   26  A    between atoms: O_29  and  P_30
REMARK   27  A    between atoms: P_30  and  O_33
REMARK   28  A    between atoms: O_33  and  C_34
REMARK   29  A    between atoms: C_34  and  C_35
REMARK   30  A    between atoms: C_35  and  O_37
REMARK   31  A    between atoms: C_35  and  C_38
REMARK   32  A    between atoms: C_38  and  O_39
REMARK   33  A    between atoms: O_39  and  P_40
REMARK   34  A    between atoms: P_40  and  O_41
REMARK   35  A    between atoms: O_44  and  C_45
REMARK   36  A    between atoms: C_45  and  C_46
REMARK   37  A    between atoms: C_46  and  C_47
REMARK   38  A    between atoms: C_47  and  C_49
REMARK   39  A    between atoms: C_47  and  C_50
REMARK   40  A    between atoms: C_50  and  C_51
REMARK   41  A    between atoms: C_51  and  C_52
REMARK   42  A    between atoms: C_52  and  C_53
REMARK   43  A    between atoms: C_53  and  C_55
REMARK   44  A    between atoms: C_53  and  C_56
REMARK   45  A    between atoms: C_56  and  C_57
REMARK   46  A    between atoms: C_57  and  C_58
REMARK   47  A    between atoms: C_58  and  C_59
REMARK   48  A    between atoms: C_59  and  C_61
REMARK   49  A    between atoms: C_59  and  C_62
REMARK   50  A    between atoms: C_62  and  C_63
REMARK   51  A    between atoms: C_63  and  C_64
REMARK   52  A    between atoms: C_64  and  C_65
REMARK   53  A    between atoms: C_65  and  C_66
REMARK   54  A    between atoms: C_65  and  C_67
REMARK                            x       y       z     vdW  Elec       q    Type
REMARK                         _______ _______ _______ _____ _____    ______ ____
ROOT
ATOM      1  C   UNL     1       6.040  -5.200  22.950  0.00  0.00    +0.170 C 
ENDROOT
BRANCH   1   2
ATOM      2  C   UNL     1       5.090  -6.345  23.367  0.00  0.00    +0.201 C 
BRANCH   2   3
ATOM      3  O   UNL     1       4.318  -6.074  24.520  0.00  0.00    -0.325 OA
BRANCH   3   4
ATOM      4  P   UNL     1       3.042  -5.087  24.353  0.00  0.00    +0.213 P 
ATOM      5  O   UNL     1       2.477  -5.245  22.964  0.00  0.00    -0.437 OA
ATOM      6  O   UNL     1       3.390  -3.735  24.920  0.00  0.00    -0.517 OA
BRANCH   4   7
ATOM      7  O   UNL     1       2.048  -5.747  25.423  0.00  0.00    -0.325 OA
BRANCH   7   8
ATOM      8  C   UNL     1       2.123  -5.359  26.778  0.00  0.00    +0.201 C 
BRANCH   8   9
ATOM      9  C   UNL     1       2.322  -6.696  27.489  0.00  0.00    +0.166 C 
BRANCH   9  10
ATOM     10  O   UNL     1       2.706  -7.697  26.529  0.00  0.00    -0.387 OA
ATOM     11  H   UNL     1       3.150  -8.374  27.084  0.00  0.00    +0.210 HD
ENDBRANCH   9  10
BRANCH   9  12
ATOM     12  C   UNL     1       3.353  -6.601  28.579  0.00  0.00    +0.201 C 
BRANCH  12  13
ATOM     13  O   UNL     1       4.281  -5.596  28.233  0.00  0.00    -0.325 OA
BRANCH  13  14
ATOM     14  P   UNL     1       5.829  -6.070  28.436  0.00  0.00    +0.210 P 
ATOM     15  O   UNL     1       5.988  -5.446  29.845  0.00  0.00    -0.517 OA
ATOM     16  O   UNL     1       5.806  -7.560  28.820  0.00  0.00    -0.437 OA
BRANCH  14  17
ATOM     17  O   UNL     1       5.650  -6.767  26.863  0.00  0.00    -0.344 OA
ATOM     18  H   UNL     1       5.678  -7.686  27.218  0.00  0.00    +0.218 HD
ENDBRANCH  14  17
ENDBRANCH  13  14
ENDBRANCH  12  13
ENDBRANCH   9  12
ENDBRANCH   8   9
ENDBRANCH   7   8
ENDBRANCH   4   7
ENDBRANCH   3   4
ENDBRANCH   2   3
ENDBRANCH   1   2
BRANCH   1  19
ATOM     19  C   UNL     1       7.473  -5.685  22.677  0.00  0.00    +0.193 C 
BRANCH  19  20
ATOM     20  O   UNL     1       8.416  -5.262  23.664  0.00  0.00    -0.377 OA
BRANCH  20  21
ATOM     21  C   UNL     1       7.838  -4.746  24.844  0.00  0.00    +0.160 C 
BRANCH  21  22
ATOM     22  C   UNL     1       8.817  -3.718  25.388  0.00  0.00    +0.031 C 
BRANCH  22  23
ATOM     23  C   UNL     1       8.241  -2.826  26.516  0.00  0.00    -0.012 C 
ATOM     24  C   UNL     1       8.643  -1.356  26.350  0.00  0.00    +0.007 C 
BRANCH  23  25
ATOM     25  C   UNL     1       6.708  -2.928  26.573  0.00  0.00    +0.003 C 
BRANCH  25  26
ATOM     26  C   UNL     1       5.953  -1.636  26.259  0.00  0.00    +0.001 C 
BRANCH  26  27
ATOM     27  C   UNL     1       5.357  -0.924  27.480  0.00  0.00    +0.003 C 
BRANCH  27  28
ATOM     28  C   UNL     1       5.420   0.612  27.346  0.00  0.00    -0.014 C 
ATOM     29  C   UNL     1       5.401   1.056  25.877  0.00  0.00    +0.007 C 
BRANCH  28  30
ATOM     30  C   UNL     1       6.658   1.169  28.083  0.00  0.00    +0.003 C 
BRANCH  30  31
ATOM     31  C   UNL     1       7.026   2.561  27.563  0.00  0.00    +0.001 C 
BRANCH  31  32
ATOM     32  C   UNL     1       6.669   3.679  28.535  0.00  0.00    +0.003 C 
BRANCH  32  33
ATOM     33  C   UNL     1       6.154   4.935  27.794  0.00  0.00    -0.014 C 
ATOM     34  C   UNL     1       7.283   5.931  27.522  0.00  0.00    +0.007 C 
BRANCH  33  35
ATOM     35  C   UNL     1       5.449   4.587  26.469  0.00  0.00    +0.003 C 
BRANCH  35  36
ATOM     36  C   UNL     1       3.999   5.067  26.446  0.00  0.00    +0.001 C 
BRANCH  36  37
ATOM     37  C   UNL     1       3.229   4.689  27.707  0.00  0.00    +0.003 C 
BRANCH  37  39
ATOM     38  C   UNL     1       2.573   2.801  29.225  0.00  0.00    +0.007 C 
ATOM     39  C   UNL     1       2.992   3.170  27.803  0.00  0.00    -0.017 C 
ATOM     40  C   UNL     1       1.946   2.656  26.807  0.00  0.00    +0.007 C 
ENDBRANCH  37  39
ENDBRANCH  36  37
ENDBRANCH  35  36
ENDBRANCH  33  35
ENDBRANCH  32  33
ENDBRANCH  31  32
ENDBRANCH  30  31
ENDBRANCH  28  30
ENDBRANCH  27  28
ENDBRANCH  26  27
ENDBRANCH  25  26
ENDBRANCH  23  25
ENDBRANCH  22  23
ENDBRANCH  21  22
ENDBRANCH  20  21
ENDBRANCH  19  20
ENDBRANCH   1  19
BRANCH   1  41
ATOM     41  O   UNL     1       5.572  -4.433  21.818  0.00  0.00    -0.372 OA
BRANCH  41  42
ATOM     42  C   UNL     1       6.288  -3.224  21.662  0.00  0.00    +0.160 C 
BRANCH  42  43
ATOM     43  C   UNL     1       6.051  -2.285  22.837  0.00  0.00    +0.031 C 
BRANCH  43  44
ATOM     44  C   UNL     1       7.248  -1.333  22.998  0.00  0.00    -0.012 C 
ATOM     45  C   UNL     1       6.886   0.107  22.592  0.00  0.00    +0.007 C 
BRANCH  44  46
ATOM     46  C   UNL     1       8.464  -1.853  22.216  0.00  0.00    +0.003 C 
BRANCH  46  47
ATOM     47  C   UNL     1       9.444  -0.708  21.961  0.00  0.00    +0.001 C 
BRANCH  47  48
ATOM     48  C   UNL     1      10.349  -0.422  23.142  0.00  0.00    +0.003 C 
BRANCH  48  49
ATOM     49  C   UNL     1      10.505   1.098  23.353  0.00  0.00    -0.014 C 
ATOM     50  C   UNL     1      10.075   1.903  22.121  0.00  0.00    +0.007 C 
BRANCH  49  51
ATOM     51  C   UNL     1       9.719   1.569  24.584  0.00  0.00    +0.003 C 
BRANCH  51  52
ATOM     52  C   UNL     1       8.611   2.582  24.284  0.00  0.00    +0.001 C 
BRANCH  52  53
ATOM     53  C   UNL     1       8.946   4.006  24.748  0.00  0.00    +0.003 C 
BRANCH  53  54
ATOM     54  C   UNL     1       8.815   5.051  23.627  0.00  0.00    -0.014 C 
ATOM     55  C   UNL     1       9.923   6.105  23.720  0.00  0.00    +0.007 C 
BRANCH  54  56
ATOM     56  C   UNL     1       7.405   5.685  23.668  0.00  0.00    +0.003 C 
BRANCH  56  57
ATOM     57  C   UNL     1       6.531   5.191  22.515  0.00  0.00    +0.001 C 
BRANCH  57  58
ATOM     58  C   UNL     1       5.709   3.951  22.861  0.00  0.00    +0.003 C 
BRANCH  58  59
ATOM     59  C   UNL     1       4.218   4.148  22.519  0.00  0.00    -0.017 C 
ATOM     60  C   UNL     1       3.806   5.603  22.747  0.00  0.00    +0.007 C 
ATOM     61  C   UNL     1       3.308   3.218  23.327  0.00  0.00    +0.007 C 
ENDBRANCH  58  59
ENDBRANCH  57  58
ENDBRANCH  56  57
ENDBRANCH  54  56
ENDBRANCH  53  54
ENDBRANCH  52  53
ENDBRANCH  51  52
ENDBRANCH  49  51
ENDBRANCH  48  49
ENDBRANCH  47  48
ENDBRANCH  46  47
ENDBRANCH  44  46
ENDBRANCH  43  44
ENDBRANCH  42  43
ENDBRANCH  41  42
ENDBRANCH   1  41
TORSDOF 44
ENDMDL
MODEL 2
REMARK VINA RESULT:      -4.4      1.830      5.557
REMARK  Name = 
REMARK  54 active torsions:
REMARK  status: ('A' for Active; 'I' for Inactive)
REMARK    1  A    between atoms: C_1  and  C_2
REMARK    2  A    between atoms: C_2  and  C_3
REMARK    3  A    between atoms: C_2  and  C_4
REMARK    4  A    between atoms: C_4  and  C_5
REMARK    5  A    between atoms: C_5  and  C_6
REMARK    6  A    between atoms: C_6  and  C_7
REMARK    7  A    between atoms: C_7  and  C_9
REMARK    8  A    between atoms: C_7  and  C_10
REMARK    9  A    between atoms: C_10  and  C_11
REMARK   10  A    between atoms: C_11  and  C_12
REMARK   11  A    between atoms: C_12  and  C_13
REMARK   12  A    between atoms: C_13  and  C_15
REMARK   13  A    between atoms: C_13  and  C_16
REMARK   14  A    between atoms: C_16  and  C_17
REMARK   15  A    between atoms: C_17  and  C_18
REMARK   16  A    between atoms: C_18  and  C_19
REMARK   17  A    between atoms: C_19  and  C_21
REMARK   18  A    between atoms: C_19  and  C_22
REMARK   19  A    between atoms: C_22  and  C_23
REMARK   20  A    between atoms: C_23  and  O_24
REMARK   21  A    between atoms: O_24  and  C_25
REMARK   22  A    between atoms: C_25  and  C_26
REMARK   23  A    between atoms: C_26  and  C_28
REMARK   24  A    between atoms: C_26  and  O_44
REMARK   25  A    between atoms: C_28  and  O_29
REMARK   26  A    between atoms: O_29  and  P_30
REMARK   27  A    between atoms: P_30  and  O_33
REMARK   28  A    between atoms: O_33  and  C_34
REMARK   29  A    between atoms: C_34  and  C_35
REMARK   30  A    between atoms: C_35  and  O_37
REMARK   31  A    between atoms: C_35  and  C_38
REMARK   32  A    between atoms: C_38  and  O_39
REMARK   33  A    between atoms: O_39  and  P_40
REMARK   34  A    between atoms: P_40  and  O_41
REMARK   35  A    between atoms: O_44  and  C_45
REMARK   36  A    between atoms: C_45  and  C_46
REMARK   37  A    between atoms: C_46  and  C_47
REMARK   38  A    between atoms: C_47  and  C_49
REMARK   39  A    between atoms: C_47  and  C_50
REMARK   40  A    between atoms: C_50  and  C_51
REMARK   41  A    between atoms: C_51  and  C_52
REMARK   42  A    between atoms: C_52  and  C_53
REMARK   43  A    between atoms: C_53  and  C_55
REMARK   44  A    between atoms: C_53  and  C_56
REMARK   45  A    between atoms: C_56  and  C_57
REMARK   46  A    between atoms: C_57  and  C_58
REMARK   47  A    between atoms: C_58  and  C_59
REMARK   48  A    between atoms: C_59  and  C_61
REMARK   49  A    between atoms: C_59  and  C_62
REMARK   50  A    between atoms: C_62  and  C_63
REMARK   51  A    between atoms: C_63  and  C_64
REMARK   52  A    between atoms: C_64  and  C_65
REMARK   53  A    between atoms: C_65  and  C_66
REMARK   54  A    between atoms: C_65  and  C_67
REMARK                            x       y       z     vdW  Elec       q    Type
REMARK                         _______ _______ _______ _____ _____    ______ ____
ROOT
ATOM      1  C   UNL     1       9.072  -2.928  24.010  0.00  0.00    +0.170 C 
ENDROOT
BRANCH   1   2
ATOM      2  C   UNL     1       7.789  -3.224  23.200  0.00  0.00    +0.201 C 
BRANCH   2   3
ATOM      3  O   UNL     1       7.417  -4.588  23.171  0.00  0.00    -0.325 OA
BRANCH   3   4
ATOM      4  P   UNL     1       6.383  -5.058  22.014  0.00  0.00    +0.213 P 
ATOM      5  O   UNL     1       7.111  -5.941  21.033  0.00  0.00    -0.437 OA
ATOM      6  O   UNL     1       5.575  -3.869  21.565  0.00  0.00    -0.517 OA
BRANCH   4   7
ATOM      7  O   UNL     1       5.375  -5.940  22.896  0.00  0.00    -0.325 OA
BRANCH   7   8
ATOM      8  C   UNL     1       4.113  -5.416  23.248  0.00  0.00    +0.201 C 
BRANCH   8   9
ATOM      9  C   UNL     1       3.654  -6.379  24.340  0.00  0.00    +0.166 C 
BRANCH   9  10
ATOM     10  O   UNL     1       4.223  -7.679  24.103  0.00  0.00    -0.387 OA
ATOM     11  H   UNL     1       4.716  -7.858  24.933  0.00  0.00    +0.210 HD
ENDBRANCH   9  10
BRANCH   9  12
ATOM     12  C   UNL     1       4.033  -5.890  25.711  0.00  0.00    +0.201 C 
BRANCH  12  13
ATOM     13  O   UNL     1       5.198  -6.570  26.124  0.00  0.00    -0.325 OA
BRANCH  13  14
ATOM     14  P   UNL     1       6.127  -5.678  27.126  0.00  0.00    +0.210 P 
ATOM     15  O   UNL     1       6.128  -6.712  28.280  0.00  0.00    -0.517 OA
ATOM     16  O   UNL     1       7.584  -5.824  26.653  0.00  0.00    -0.437 OA
BRANCH  14  17
ATOM     17  O   UNL     1       6.124  -4.524  25.837  0.00  0.00    -0.344 OA
ATOM     18  H   UNL     1       5.936  -3.775  26.449  0.00  0.00    +0.218 HD
ENDBRANCH  14  17
ENDBRANCH  13  14
ENDBRANCH  12  13
ENDBRANCH   9  12
ENDBRANCH   8   9
ENDBRANCH   7   8
ENDBRANCH   4   7
ENDBRANCH   3   4
ENDBRANCH   2   3
ENDBRANCH   1   2
BRANCH   1  19
ATOM     19  C   UNL     1      10.093  -2.092  23.223  0.00  0.00    +0.193 C 
BRANCH  19  20
ATOM     20  O   UNL     1       9.731  -1.886  21.856  0.00  0.00    -0.377 OA
BRANCH  20  21
ATOM     21  C   UNL     1       9.502  -0.538  21.507  0.00  0.00    +0.160 C 
BRANCH  21  22
ATOM     22  C   UNL     1      10.161   0.304  22.589  0.00  0.00    +0.031 C 
BRANCH  22  23
ATOM     23  C   UNL     1      10.076   1.831  22.346  0.00  0.00    -0.012 C 
ATOM     24  C   UNL     1       8.670   2.268  21.919  0.00  0.00    +0.007 C 
BRANCH  23  25
ATOM     25  C   UNL     1      10.490   2.615  23.603  0.00  0.00    +0.003 C 
BRANCH  25  26
ATOM     26  C   UNL     1       9.901   4.021  23.721  0.00  0.00    +0.001 C 
BRANCH  26  27
ATOM     27  C   UNL     1      10.909   5.161  23.526  0.00  0.00    +0.003 C 
BRANCH  27  28
ATOM     28  C   UNL     1      10.530   6.417  24.337  0.00  0.00    -0.014 C 
ATOM     29  C   UNL     1      11.633   6.808  25.330  0.00  0.00    +0.007 C 
BRANCH  28  30
ATOM     30  C   UNL     1       9.179   6.210  25.056  0.00  0.00    +0.003 C 
BRANCH  30  31
ATOM     31  C   UNL     1       8.094   7.108  24.456  0.00  0.00    +0.001 C 
BRANCH  31  32
ATOM     32  C   UNL     1       6.720   6.449  24.420  0.00  0.00    +0.003 C 
BRANCH  32  33
ATOM     33  C   UNL     1       6.357   5.967  22.995  0.00  0.00    -0.014 C 
ATOM     34  C   UNL     1       7.422   6.371  21.974  0.00  0.00    +0.007 C 
BRANCH  33  35
ATOM     35  C   UNL     1       6.137   4.443  22.930  0.00  0.00    +0.003 C 
BRANCH  35  36
ATOM     36  C   UNL     1       4.717   4.050  23.332  0.00  0.00    +0.001 C 
BRANCH  36  37
ATOM     37  C   UNL     1       3.659   4.992  22.769  0.00  0.00    +0.003 C 
BRANCH  37  39
ATOM     38  C   UNL     1       1.209   5.447  22.466  0.00  0.00    +0.007 C 
ATOM     39  C   UNL     1       2.241   4.401  22.885  0.00  0.00    -0.017 C 
ATOM     40  C   UNL     1       2.048   3.125  22.057  0.00  0.00    +0.007 C 
ENDBRANCH  37  39
ENDBRANCH  36  37
ENDBRANCH  35  36
ENDBRANCH  33  35
ENDBRANCH  32  33
ENDBRANCH  31  32
ENDBRANCH  30  31
ENDBRANCH  28  30
ENDBRANCH  27  28
ENDBRANCH  26  27
ENDBRANCH  25  26
ENDBRANCH  23  25
ENDBRANCH  22  23
ENDBRANCH  21  22
ENDBRANCH  20  21
ENDBRANCH  19  20
ENDBRANCH   1  19
BRANCH   1  41
ATOM     41  O   UNL     1       8.827  -2.302  25.289  0.00  0.00    -0.372 OA
BRANCH  41  42
ATOM     42  C   UNL     1       7.820  -1.312  25.213  0.00  0.00    +0.160 C 
BRANCH  42  43
ATOM     43  C   UNL     1       8.288  -0.000  25.828  0.00  0.00    +0.031 C 
BRANCH  43  44
ATOM     44  C   UNL     1       7.171   1.053  25.730  0.00  0.00    -0.012 C 
ATOM     45  C   UNL     1       6.374   0.915  24.421  0.00  0.00    +0.007 C 
BRANCH  44  46
ATOM     46  C   UNL     1       7.745   2.469  25.897  0.00  0.00    +0.003 C 
BRANCH  46  47
ATOM     47  C   UNL     1       6.649   3.417  26.381  0.00  0.00    +0.001 C 
BRANCH  47  48
ATOM     48  C   UNL     1       6.863   3.903  27.800  0.00  0.00    +0.003 C 
BRANCH  48  49
ATOM     49  C   UNL     1       6.285   2.895  28.814  0.00  0.00    -0.014 C 
ATOM     50  C   UNL     1       7.366   2.292  29.717  0.00  0.00    +0.007 C 
BRANCH  49  51
ATOM     51  C   UNL     1       5.188   3.541  29.672  0.00  0.00    +0.003 C 
BRANCH  51  52
ATOM     52  C   UNL     1       4.637   4.856  29.117  0.00  0.00    +0.001 C 
BRANCH  52  53
ATOM     53  C   UNL     1       3.258   4.710  28.458  0.00  0.00    +0.003 C 
BRANCH  53  54
ATOM     54  C   UNL     1       3.329   4.623  26.924  0.00  0.00    -0.014 C 
ATOM     55  C   UNL     1       2.847   5.923  26.273  0.00  0.00    +0.007 C 
BRANCH  54  56
ATOM     56  C   UNL     1       2.528   3.395  26.435  0.00  0.00    +0.003 C 
BRANCH  56  57
ATOM     57  C   UNL     1       3.423   2.168  26.265  0.00  0.00    +0.001 C 
BRANCH  57  58
ATOM     58  C   UNL     1       3.066   1.019  27.206  0.00  0.00    +0.003 C 
BRANCH  58  59
ATOM     59  C   UNL     1       4.283   0.108  27.473  0.00  0.00    -0.017 C 
ATOM     60  C   UNL     1       4.155  -1.197  26.686  0.00  0.00    +0.007 C 
ATOM     61  C   UNL     1       4.465  -0.198  28.962  0.00  0.00    +0.007 C 
ENDBRANCH  58  59
ENDBRANCH  57  58
ENDBRANCH  56  57
ENDBRANCH  54  56
ENDBRANCH  53  54
ENDBRANCH  52  53
ENDBRANCH  51  52
ENDBRANCH  49  51
ENDBRANCH  48  49
ENDBRANCH  47  48
ENDBRANCH  46  47
ENDBRANCH  44  46
ENDBRANCH  43  44
ENDBRANCH  42  43
ENDBRANCH  41  42
ENDBRANCH   1  41
TORSDOF 44
ENDMDL
MODEL 3
REMARK VINA RESULT:      -4.2      2.190      4.474
REMARK  Name = 
REMARK  54 active torsions:
REMARK  status: ('A' for Active; 'I' for Inactive)
REMARK    1  A    between atoms: C_1  and  C_2
REMARK    2  A    between atoms: C_2  and  C_3
REMARK    3  A    between atoms: C_2  and  C_4
REMARK    4  A    between atoms: C_4  and  C_5
REMARK    5  A    between atoms: C_5  and  C_6
REMARK    6  A    between atoms: C_6  and  C_7
REMARK    7  A    between atoms: C_7  and  C_9
REMARK    8  A    between atoms: C_7  and  C_10
REMARK    9  A    between atoms: C_10  and  C_11
REMARK   10  A    between atoms: C_11  and  C_12
REMARK   11  A    between atoms: C_12  and  C_13
REMARK   12  A    between atoms: C_13  and  C_15
REMARK   13  A    between atoms: C_13  and  C_16
REMARK   14  A    between atoms: C_16  and  C_17
REMARK   15  A    between atoms: C_17  and  C_18
REMARK   16  A    between atoms: C_18  and  C_19
REMARK   17  A    between atoms: C_19  and  C_21
REMARK   18  A    between atoms: C_19  and  C_22
REMARK   19  A    between atoms: C_22  and  C_23
REMARK   20  A    between atoms: C_23  and  O_24
REMARK   21  A    between atoms: O_24  and  C_25
REMARK   22  A    between atoms: C_25  and  C_26
REMARK   23  A    between atoms: C_26  and  C_28
REMARK   24  A    between atoms: C_26  and  O_44
REMARK   25  A    between atoms: C_28  and  O_29
REMARK   26  A    between atoms: O_29  and  P_30
REMARK   27  A    between atoms: P_30  and  O_33
REMARK   28  A    between atoms: O_33  and  C_34
REMARK   29  A    between atoms: C_34  and  C_35
REMARK   30  A    between atoms: C_35  and  O_37
REMARK   31  A    between atoms: C_35  and  C_38
REMARK   32  A    between atoms: C_38  and  O_39
REMARK   33  A    between atoms: O_39  and  P_40
REMARK   34  A    between atoms: P_40  and  O_41
REMARK   35  A    between atoms: O_44  and  C_45
REMARK   36  A    between atoms: C_45  and  C_46
REMARK   37  A    between atoms: C_46  and  C_47
REMARK   38  A    between atoms: C_47  and  C_49
REMARK   39  A    between atoms: C_47  and  C_50
REMARK   40  A    between atoms: C_50  and  C_51
REMARK   41  A    between atoms: C_51  and  C_52
REMARK   42  A    between atoms: C_52  and  C_53
REMARK   43  A    between atoms: C_53  and  C_55
REMARK   44  A    between atoms: C_53  and  C_56
REMARK   45  A    between atoms: C_56  and  C_57
REMARK   46  A    between atoms: C_57  and  C_58
REMARK   47  A    between atoms: C_58  and  C_59
REMARK   48  A    between atoms: C_59  and  C_61
REMARK   49  A    between atoms: C_59  and  C_62
REMARK   50  A    between atoms: C_62  and  C_63
REMARK   51  A    between atoms: C_63  and  C_64
REMARK   52  A    between atoms: C_64  and  C_65
REMARK   53  A    between atoms: C_65  and  C_66
REMARK   54  A    between atoms: C_65  and  C_67
REMARK                            x       y       z     vdW  Elec       q    Type
REMARK                         _______ _______ _______ _____ _____    ______ ____
ROOT
ATOM      1  C   UNL     1       8.896  -3.263  24.203  0.00  0.00    +0.170 C 
ENDROOT
BRANCH   1   2
ATOM      2  C   UNL     1       7.858  -3.304  23.059  0.00  0.00    +0.201 C 
BRANCH   2   3
ATOM      3  O   UNL     1       6.937  -4.374  23.143  0.00  0.00    -0.325 OA
BRANCH   3   4
ATOM      4  P   UNL     1       6.230  -4.864  21.768  0.00  0.00    +0.213 P 
ATOM      5  O   UNL     1       7.101  -5.906  21.113  0.00  0.00    -0.437 OA
ATOM      6  O   UNL     1       5.731  -3.659  21.016  0.00  0.00    -0.517 OA
BRANCH   4   7
ATOM      7  O   UNL     1       4.916  -5.556  22.373  0.00  0.00    -0.325 OA
BRANCH   7   8
ATOM      8  C   UNL     1       4.907  -5.980  23.719  0.00  0.00    +0.201 C 
BRANCH   8   9
ATOM      9  C   UNL     1       3.522  -5.539  24.189  0.00  0.00    +0.166 C 
BRANCH   9  10
ATOM     10  O   UNL     1       2.722  -5.175  23.049  0.00  0.00    -0.387 OA
ATOM     11  H   UNL     1       1.825  -5.484  23.303  0.00  0.00    +0.210 HD
ENDBRANCH   9  10
BRANCH   9  12
ATOM     12  C   UNL     1       2.833  -6.614  24.983  0.00  0.00    +0.201 C 
BRANCH  12  13
ATOM     13  O   UNL     1       2.963  -7.836  24.291  0.00  0.00    -0.325 OA
BRANCH  13  14
ATOM     14  P   UNL     1       1.524  -8.484  23.879  0.00  0.00    +0.210 P 
ATOM     15  O   UNL     1       1.156  -8.943  25.312  0.00  0.00    -0.517 OA
ATOM     16  O   UNL     1       0.527  -7.322  23.721  0.00  0.00    -0.437 OA
BRANCH  14  17
ATOM     17  O   UNL     1       1.936  -7.970  22.279  0.00  0.00    -0.344 OA
ATOM     18  H   UNL     1       1.998  -8.898  21.950  0.00  0.00    +0.218 HD
ENDBRANCH  14  17
ENDBRANCH  13  14
ENDBRANCH  12  13
ENDBRANCH   9  12
ENDBRANCH   8   9
ENDBRANCH   7   8
ENDBRANCH   4   7
ENDBRANCH   3   4
ENDBRANCH   2   3
ENDBRANCH   1   2
BRANCH   1  19
ATOM     19  C   UNL     1       9.015  -4.603  24.947  0.00  0.00    +0.193 C 
BRANCH  19  20
ATOM     20  O   UNL     1       8.664  -4.522  26.330  0.00  0.00    -0.377 OA
BRANCH  20  21
ATOM     21  C   UNL     1       7.577  -5.339  26.707  0.00  0.00    +0.160 C 
BRANCH  21  22
ATOM     22  C   UNL     1       6.464  -4.400  27.146  0.00  0.00    +0.031 C 
BRANCH  22  23
ATOM     23  C   UNL     1       5.240  -5.114  27.771  0.00  0.00    -0.012 C 
ATOM     24  C   UNL     1       5.332  -6.638  27.635  0.00  0.00    +0.007 C 
BRANCH  23  25
ATOM     25  C   UNL     1       5.084  -4.746  29.256  0.00  0.00    +0.003 C 
BRANCH  25  26
ATOM     26  C   UNL     1       4.020  -3.692  29.562  0.00  0.00    +0.001 C 
BRANCH  26  27
ATOM     27  C   UNL     1       2.945  -3.528  28.480  0.00  0.00    +0.003 C 
BRANCH  27  28
ATOM     28  C   UNL     1       3.019  -2.149  27.792  0.00  0.00    -0.014 C 
ATOM     29  C   UNL     1       3.456  -2.267  26.325  0.00  0.00    +0.007 C 
BRANCH  28  30
ATOM     30  C   UNL     1       3.950  -1.201  28.578  0.00  0.00    +0.003 C 
BRANCH  30  31
ATOM     31  C   UNL     1       4.665  -0.228  27.637  0.00  0.00    +0.001 C 
BRANCH  31  32
ATOM     32  C   UNL     1       5.090   1.066  28.321  0.00  0.00    +0.003 C 
BRANCH  32  33
ATOM     33  C   UNL     1       6.587   1.372  28.079  0.00  0.00    -0.014 C 
ATOM     34  C   UNL     1       7.280   1.844  29.359  0.00  0.00    +0.007 C 
BRANCH  33  35
ATOM     35  C   UNL     1       7.347   0.162  27.502  0.00  0.00    +0.003 C 
BRANCH  35  36
ATOM     36  C   UNL     1       7.951   0.464  26.131  0.00  0.00    +0.001 C 
BRANCH  36  37
ATOM     37  C   UNL     1       7.385   1.730  25.499  0.00  0.00    +0.003 C 
BRANCH  37  39
ATOM     38  C   UNL     1       6.334  -0.097  24.136  0.00  0.00    +0.007 C 
ATOM     39  C   UNL     1       6.396   1.413  24.361  0.00  0.00    -0.017 C 
ATOM     40  C   UNL     1       4.985   1.956  24.617  0.00  0.00    +0.007 C 
ENDBRANCH  37  39
ENDBRANCH  36  37
ENDBRANCH  35  36
ENDBRANCH  33  35
ENDBRANCH  32  33
ENDBRANCH  31  32
ENDBRANCH  30  31
ENDBRANCH  28  30
ENDBRANCH  27  28
ENDBRANCH  26  27
ENDBRANCH  25  26
ENDBRANCH  23  25
ENDBRANCH  22  23
ENDBRANCH  21  22
ENDBRANCH  20  21
ENDBRANCH  19  20
ENDBRANCH   1  19
BRANCH   1  41
ATOM     41  O   UNL     1      10.211  -2.830  23.787  0.00  0.00    -0.372 OA
BRANCH  41  42
ATOM     42  C   UNL     1      10.151  -1.853  22.767  0.00  0.00    +0.160 C 
BRANCH  42  43
ATOM     43  C   UNL     1      10.293  -0.449  23.337  0.00  0.00    +0.031 C 
BRANCH  43  44
ATOM     44  C   UNL     1       9.508   0.552  22.472  0.00  0.00    -0.012 C 
ATOM     45  C   UNL     1       9.162  -0.040  21.094  0.00  0.00    +0.007 C 
BRANCH  44  46
ATOM     46  C   UNL     1      10.275   1.877  22.344  0.00  0.00    +0.003 C 
BRANCH  46  47
ATOM     47  C   UNL     1      10.383   2.547  23.713  0.00  0.00    +0.001 C 
BRANCH  47  48
ATOM     48  C   UNL     1      10.592   4.045  23.631  0.00  0.00    +0.003 C 
BRANCH  48  49
ATOM     49  C   UNL     1       9.359   4.797  24.172  0.00  0.00    -0.014 C 
ATOM     50  C   UNL     1       9.685   6.241  24.568  0.00  0.00    +0.007 C 
BRANCH  49  51
ATOM     51  C   UNL     1       8.210   4.781  23.155  0.00  0.00    +0.003 C 
BRANCH  51  52
ATOM     52  C   UNL     1       7.828   6.156  22.603  0.00  0.00    +0.001 C 
BRANCH  52  53
ATOM     53  C   UNL     1       6.392   6.573  22.946  0.00  0.00    +0.003 C 
BRANCH  53  54
ATOM     54  C   UNL     1       5.679   5.573  23.872  0.00  0.00    -0.014 C 
ATOM     55  C   UNL     1       4.251   5.294  23.391  0.00  0.00    +0.007 C 
BRANCH  54  56
ATOM     56  C   UNL     1       5.711   6.096  25.327  0.00  0.00    +0.003 C 
BRANCH  56  57
ATOM     57  C   UNL     1       6.140   5.005  26.308  0.00  0.00    +0.001 C 
BRANCH  57  58
ATOM     58  C   UNL     1       5.158   4.803  27.461  0.00  0.00    +0.003 C 
BRANCH  58  59
ATOM     59  C   UNL     1       3.697   4.970  26.993  0.00  0.00    -0.017 C 
ATOM     60  C   UNL     1       3.047   6.165  27.693  0.00  0.00    +0.007 C 
ATOM     61  C   UNL     1       2.862   3.710  27.234  0.00  0.00    +0.007 C 
ENDBRANCH  58  59
ENDBRANCH  57  58
ENDBRANCH  56  57
ENDBRANCH  54  56
ENDBRANCH  53  54
ENDBRANCH  52  53
ENDBRANCH  51  52
ENDBRANCH  49  51
ENDBRANCH  48  49
ENDBRANCH  47  48
ENDBRANCH  46  47
ENDBRANCH  44  46
ENDBRANCH  43  44
ENDBRANCH  42  43
ENDBRANCH  41  42
ENDBRANCH   1  41
TORSDOF 44
ENDMDL
MODEL 4
REMARK VINA RESULT:      -4.0      4.260      8.145
REMARK  Name = 
REMARK  54 active torsions:
REMARK  status: ('A' for Active; 'I' for Inactive)
REMARK    1  A    between atoms: C_1  and  C_2
REMARK    2  A    between atoms: C_2  and  C_3
REMARK    3  A    between atoms: C_2  and  C_4
REMARK    4  A    between atoms: C_4  and  C_5
REMARK    5  A    between atoms: C_5  and  C_6
REMARK    6  A    between atoms: C_6  and  C_7
REMARK    7  A    between atoms: C_7  and  C_9
REMARK    8  A    between atoms: C_7  and  C_10
REMARK    9  A    between atoms: C_10  and  C_11
REMARK   10  A    between atoms: C_11  and  C_12
REMARK   11  A    between atoms: C_12  and  C_13
REMARK   12  A    between atoms: C_13  and  C_15
REMARK   13  A    between atoms: C_13  and  C_16
REMARK   14  A    between atoms: C_16  and  C_17
REMARK   15  A    between atoms: C_17  and  C_18
REMARK   16  A    between atoms: C_18  and  C_19
REMARK   17  A    between atoms: C_19  and  C_21
REMARK   18  A    between atoms: C_19  and  C_22
REMARK   19  A    between atoms: C_22  and  C_23
REMARK   20  A    between atoms: C_23  and  O_24
REMARK   21  A    between atoms: O_24  and  C_25
REMARK   22  A    between atoms: C_25  and  C_26
REMARK   23  A    between atoms: C_26  and  C_28
REMARK   24  A    between atoms: C_26  and  O_44
REMARK   25  A    between atoms: C_28  and  O_29
REMARK   26  A    between atoms: O_29  and  P_30
REMARK   27  A    between atoms: P_30  and  O_33
REMARK   28  A    between atoms: O_33  and  C_34
REMARK   29  A    between atoms: C_34  and  C_35
REMARK   30  A    between atoms: C_35  and  O_37
REMARK   31  A    between atoms: C_35  and  C_38
REMARK   32  A    between atoms: C_38  and  O_39
REMARK   33  A    between atoms: O_39  and  P_40
REMARK   34  A    between atoms: P_40  and  O_41
REMARK   35  A    between atoms: O_44  and  C_45
REMARK   36  A    between atoms: C_45  and  C_46
REMARK   37  A    between atoms: C_46  and  C_47
REMARK   38  A    between atoms: C_47  and  C_49
REMARK   39  A    between atoms: C_47  and  C_50
REMARK   40  A    between atoms: C_50  and  C_51
REMARK   41  A    between atoms: C_51  and  C_52
REMARK   42  A    between atoms: C_52  and  C_53
REMARK   43  A    between atoms: C_53  and  C_55
REMARK   44  A    between atoms: C_53  and  C_56
REMARK   45  A    between atoms: C_56  and  C_57
REMARK   46  A    between atoms: C_57  and  C_58
REMARK   47  A    between atoms: C_58  and  C_59
REMARK   48  A    between atoms: C_59  and  C_61
REMARK   49  A    between atoms: C_59  and  C_62
REMARK   50  A    between atoms: C_62  and  C_63
REMARK   51  A    between atoms: C_63  and  C_64
REMARK   52  A    between atoms: C_64  and  C_65
REMARK   53  A    between atoms: C_65  and  C_66
REMARK   54  A    between atoms: C_65  and  C_67
REMARK                            x       y       z     vdW  Elec       q    Type
REMARK                         _______ _______ _______ _____ _____    ______ ____
ROOT
ATOM      1  C   UNL     1       8.181  -3.076  25.688  0.00  0.00    +0.170 C 
ENDROOT
BRANCH   1   2
ATOM      2  C   UNL     1       9.193  -2.465  24.692  0.00  0.00    +0.201 C 
BRANCH   2   3
ATOM      3  O   UNL     1       8.625  -2.036  23.470  0.00  0.00    -0.325 OA
BRANCH   3   4
ATOM      4  P   UNL     1       9.561  -1.164  22.473  0.00  0.00    +0.213 P 
ATOM      5  O   UNL     1       9.073  -1.344  21.058  0.00  0.00    -0.437 OA
ATOM      6  O   UNL     1      11.005  -1.373  22.848  0.00  0.00    -0.517 OA
BRANCH   4   7
ATOM      7  O   UNL     1       9.203   0.311  22.989  0.00  0.00    -0.325 OA
BRANCH   7   8
ATOM      8  C   UNL     1      10.169   1.057  23.697  0.00  0.00    +0.201 C 
BRANCH   8   9
ATOM      9  C   UNL     1      10.539   2.147  22.694  0.00  0.00    +0.166 C 
BRANCH   9  10
ATOM     10  O   UNL     1       9.520   2.230  21.680  0.00  0.00    -0.387 OA
ATOM     11  H   UNL     1       9.097   1.345  21.722  0.00  0.00    +0.210 HD
ENDBRANCH   9  10
BRANCH   9  12
ATOM     12  C   UNL     1      10.715   3.483  23.361  0.00  0.00    +0.201 C 
BRANCH  12  13
ATOM     13  O   UNL     1      12.088   3.807  23.362  0.00  0.00    -0.325 OA
BRANCH  13  14
ATOM     14  P   UNL     1      12.361   5.400  23.136  0.00  0.00    +0.210 P 
ATOM     15  O   UNL     1      10.868   5.809  23.175  0.00  0.00    -0.517 OA
ATOM     16  O   UNL     1      12.819   5.982  24.486  0.00  0.00    -0.437 OA
BRANCH  14  17
ATOM     17  O   UNL     1      14.028   4.941  23.093  0.00  0.00    -0.344 OA
ATOM     18  H   UNL     1      14.331   5.852  23.317  0.00  0.00    +0.218 HD
ENDBRANCH  14  17
ENDBRANCH  13  14
ENDBRANCH  12  13
ENDBRANCH   9  12
ENDBRANCH   8   9
ENDBRANCH   7   8
ENDBRANCH   4   7
ENDBRANCH   3   4
ENDBRANCH   2   3
ENDBRANCH   1   2
BRANCH   1  19
ATOM     19  C   UNL     1       8.727  -4.323  26.401  0.00  0.00    +0.193 C 
BRANCH  19  20
ATOM     20  O   UNL     1       7.799  -5.409  26.444  0.00  0.00    -0.377 OA
BRANCH  20  21
ATOM     21  C   UNL     1       6.830  -5.311  27.464  0.00  0.00    +0.160 C 
BRANCH  21  22
ATOM     22  C   UNL     1       5.664  -6.190  27.035  0.00  0.00    +0.031 C 
BRANCH  22  23
ATOM     23  C   UNL     1       4.853  -6.788  28.211  0.00  0.00    -0.012 C 
ATOM     24  C   UNL     1       5.423  -6.374  29.573  0.00  0.00    +0.007 C 
BRANCH  23  25
ATOM     25  C   UNL     1       3.375  -6.371  28.133  0.00  0.00    +0.003 C 
BRANCH  25  26
ATOM     26  C   UNL     1       2.929  -5.341  29.171  0.00  0.00    +0.001 C 
BRANCH  26  27
ATOM     27  C   UNL     1       2.389  -4.030  28.588  0.00  0.00    +0.003 C 
BRANCH  27  28
ATOM     28  C   UNL     1       3.459  -3.268  27.779  0.00  0.00    -0.014 C 
ATOM     29  C   UNL     1       4.355  -2.412  28.684  0.00  0.00    +0.007 C 
BRANCH  28  30
ATOM     30  C   UNL     1       2.797  -2.413  26.677  0.00  0.00    +0.003 C 
BRANCH  30  31
ATOM     31  C   UNL     1       1.581  -3.127  26.083  0.00  0.00    +0.001 C 
BRANCH  31  32
ATOM     32  C   UNL     1       1.861  -3.767  24.729  0.00  0.00    +0.003 C 
BRANCH  32  33
ATOM     33  C   UNL     1       2.524  -5.156  24.881  0.00  0.00    -0.014 C 
ATOM     34  C   UNL     1       1.541  -6.287  24.569  0.00  0.00    +0.007 C 
BRANCH  33  35
ATOM     35  C   UNL     1       3.776  -5.308  23.995  0.00  0.00    +0.003 C 
BRANCH  35  36
ATOM     36  C   UNL     1       4.691  -4.087  24.080  0.00  0.00    +0.001 C 
BRANCH  36  37
ATOM     37  C   UNL     1       5.701  -4.023  22.940  0.00  0.00    +0.003 C 
BRANCH  37  39
ATOM     38  C   UNL     1       6.067  -5.708  21.116  0.00  0.00    +0.007 C 
ATOM     39  C   UNL     1       6.275  -5.412  22.600  0.00  0.00    -0.017 C 
ATOM     40  C   UNL     1       7.761  -5.555  22.952  0.00  0.00    +0.007 C 
ENDBRANCH  37  39
ENDBRANCH  36  37
ENDBRANCH  35  36
ENDBRANCH  33  35
ENDBRANCH  32  33
ENDBRANCH  31  32
ENDBRANCH  30  31
ENDBRANCH  28  30
ENDBRANCH  27  28
ENDBRANCH  26  27
ENDBRANCH  25  26
ENDBRANCH  23  25
ENDBRANCH  22  23
ENDBRANCH  21  22
ENDBRANCH  20  21
ENDBRANCH  19  20
ENDBRANCH   1  19
BRANCH   1  41
ATOM     41  O   UNL     1       7.689  -2.139  26.672  0.00  0.00    -0.372 OA
BRANCH  41  42
ATOM     42  C   UNL     1       8.248  -0.851  26.508  0.00  0.00    +0.160 C 
BRANCH  42  43
ATOM     43  C   UNL     1       7.199   0.235  26.698  0.00  0.00    +0.031 C 
BRANCH  43  44
ATOM     44  C   UNL     1       5.886  -0.178  26.012  0.00  0.00    -0.012 C 
ATOM     45  C   UNL     1       6.062  -0.326  24.491  0.00  0.00    +0.007 C 
BRANCH  44  46
ATOM     46  C   UNL     1       4.759   0.808  26.359  0.00  0.00    +0.003 C 
BRANCH  46  47
ATOM     47  C   UNL     1       4.997   1.397  27.749  0.00  0.00    +0.001 C 
BRANCH  47  48
ATOM     48  C   UNL     1       4.614   2.860  27.852  0.00  0.00    +0.003 C 
BRANCH  48  49
ATOM     49  C   UNL     1       5.333   3.687  26.767  0.00  0.00    -0.014 C 
ATOM     50  C   UNL     1       4.682   5.058  26.554  0.00  0.00    +0.007 C 
BRANCH  49  51
ATOM     51  C   UNL     1       6.821   3.862  27.099  0.00  0.00    +0.003 C 
BRANCH  51  52
ATOM     52  C   UNL     1       7.725   4.069  25.881  0.00  0.00    +0.001 C 
BRANCH  52  53
ATOM     53  C   UNL     1       7.242   3.326  24.629  0.00  0.00    +0.003 C 
BRANCH  53  54
ATOM     54  C   UNL     1       7.205   4.217  23.376  0.00  0.00    -0.014 C 
ATOM     55  C   UNL     1       7.444   5.688  23.735  0.00  0.00    +0.007 C 
BRANCH  54  56
ATOM     56  C   UNL     1       5.867   4.011  22.629  0.00  0.00    +0.003 C 
BRANCH  56  57
ATOM     57  C   UNL     1       5.090   2.817  23.183  0.00  0.00    +0.001 C 
BRANCH  57  58
ATOM     58  C   UNL     1       3.626   3.132  23.487  0.00  0.00    +0.003 C 
BRANCH  58  59
ATOM     59  C   UNL     1       2.887   3.647  22.234  0.00  0.00    -0.017 C 
ATOM     60  C   UNL     1       2.731   5.167  22.295  0.00  0.00    +0.007 C 
ATOM     61  C   UNL     1       1.516   2.990  22.057  0.00  0.00    +0.007 C 
ENDBRANCH  58  59
ENDBRANCH  57  58
ENDBRANCH  56  57
ENDBRANCH  54  56
ENDBRANCH  53  54
ENDBRANCH  52  53
ENDBRANCH  51  52
ENDBRANCH  49  51
ENDBRANCH  48  49
ENDBRANCH  47  48
ENDBRANCH  46  47
ENDBRANCH  44  46
ENDBRANCH  43  44
ENDBRANCH  42  43
ENDBRANCH  41  42
ENDBRANCH   1  41
TORSDOF 44
ENDMDL
MODEL 5
REMARK VINA RESULT:      -4.0      1.827      5.552
REMARK  Name = 
REMARK  54 active torsions:
REMARK  status: ('A' for Active; 'I' for Inactive)
REMARK    1  A    between atoms: C_1  and  C_2
REMARK    2  A    between atoms: C_2  and  C_3
REMARK    3  A    between atoms: C_2  and  C_4
REMARK    4  A    between atoms: C_4  and  C_5
REMARK    5  A    between atoms: C_5  and  C_6
REMARK    6  A    between atoms: C_6  and  C_7
REMARK    7  A    between atoms: C_7  and  C_9
REMARK    8  A    between atoms: C_7  and  C_10
REMARK    9  A    between atoms: C_10  and  C_11
REMARK   10  A    between atoms: C_11  and  C_12
REMARK   11  A    between atoms: C_12  and  C_13
REMARK   12  A    between atoms: C_13  and  C_15
REMARK   13  A    between atoms: C_13  and  C_16
REMARK   14  A    between atoms: C_16  and  C_17
REMARK   15  A    between atoms: C_17  and  C_18
REMARK   16  A    between atoms: C_18  and  C_19
REMARK   17  A    between atoms: C_19  and  C_21
REMARK   18  A    between atoms: C_19  and  C_22
REMARK   19  A    between atoms: C_22  and  C_23
REMARK   20  A    between atoms: C_23  and  O_24
REMARK   21  A    between atoms: O_24  and  C_25
REMARK   22  A    between atoms: C_25  and  C_26
REMARK   23  A    between atoms: C_26  and  C_28
REMARK   24  A    between atoms: C_26  and  O_44
REMARK   25  A    between atoms: C_28  and  O_29
REMARK   26  A    between atoms: O_29  and  P_30
REMARK   27  A    between atoms: P_30  and  O_33
REMARK   28  A    between atoms: O_33  and  C_34
REMARK   29  A    between atoms: C_34  and  C_35
REMARK   30  A    between atoms: C_35  and  O_37
REMARK   31  A    between atoms: C_35  and  C_38
REMARK   32  A    between atoms: C_38  and  O_39
REMARK   33  A    between atoms: O_39  and  P_40
REMARK   34  A    between atoms: P_40  and  O_41
REMARK   35  A    between atoms: O_44  and  C_45
REMARK   36  A    between atoms: C_45  and  C_46
REMARK   37  A    between atoms: C_46  and  C_47
REMARK   38  A    between atoms: C_47  and  C_49
REMARK   39  A    between atoms: C_47  and  C_50
REMARK   40  A    between atoms: C_50  and  C_51
REMARK   41  A    between atoms: C_51  and  C_52
REMARK   42  A    between atoms: C_52  and  C_53
REMARK   43  A    between atoms: C_53  and  C_55
REMARK   44  A    between atoms: C_53  and  C_56
REMARK   45  A    between atoms: C_56  and  C_57
REMARK   46  A    between atoms: C_57  and  C_58
REMARK   47  A    between atoms: C_58  and  C_59
REMARK   48  A    between atoms: C_59  and  C_61
REMARK   49  A    between atoms: C_59  and  C_62
REMARK   50  A    between atoms: C_62  and  C_63
REMARK   51  A    between atoms: C_63  and  C_64
REMARK   52  A    between atoms: C_64  and  C_65
REMARK   53  A    between atoms: C_65  and  C_66
REMARK   54  A    between atoms: C_65  and  C_67
REMARK                            x       y       z     vdW  Elec       q    Type
REMARK                         _______ _______ _______ _____ _____    ______ ____
ROOT
ATOM      1  C   UNL     1       9.009  -2.948  23.896  0.00  0.00    +0.170 C 
ENDROOT
BRANCH   1   2
ATOM      2  C   UNL     1       7.795  -3.314  23.014  0.00  0.00    +0.201 C 
BRANCH   2   3
ATOM      3  O   UNL     1       7.354  -4.650  23.151  0.00  0.00    -0.325 OA
BRANCH   3   4
ATOM      4  P   UNL     1       6.094  -5.120  22.246  0.00  0.00    +0.213 P 
ATOM      5  O   UNL     1       6.604  -5.888  21.053  0.00  0.00    -0.437 OA
ATOM      6  O   UNL     1       5.138  -3.965  22.097  0.00  0.00    -0.517 OA
BRANCH   4   7
ATOM      7  O   UNL     1       5.382  -6.123  23.274  0.00  0.00    -0.325 OA
BRANCH   7   8
ATOM      8  C   UNL     1       5.515  -5.910  24.663  0.00  0.00    +0.201 C 
BRANCH   8   9
ATOM      9  C   UNL     1       4.288  -6.627  25.222  0.00  0.00    +0.166 C 
BRANCH   9  10
ATOM     10  O   UNL     1       3.979  -7.763  24.395  0.00  0.00    -0.387 OA
ATOM     11  H   UNL     1       3.285  -8.228  24.911  0.00  0.00    +0.210 HD
ENDBRANCH   9  10
BRANCH   9  12
ATOM     12  C   UNL     1       4.497  -7.064  26.645  0.00  0.00    +0.201 C 
BRANCH  12  13
ATOM     13  O   UNL     1       4.958  -5.959  27.392  0.00  0.00    -0.325 OA
BRANCH  13  14
ATOM     14  P   UNL     1       6.080  -6.371  28.503  0.00  0.00    +0.210 P 
ATOM     15  O   UNL     1       7.272  -5.733  27.748  0.00  0.00    -0.517 OA
ATOM     16  O   UNL     1       5.956  -5.375  29.670  0.00  0.00    -0.437 OA
BRANCH  14  17
ATOM     17  O   UNL     1       4.747  -7.082  29.345  0.00  0.00    -0.344 OA
ATOM     18  H   UNL     1       4.771  -7.896  28.788  0.00  0.00    +0.218 HD
ENDBRANCH  14  17
ENDBRANCH  13  14
ENDBRANCH  12  13
ENDBRANCH   9  12
ENDBRANCH   8   9
ENDBRANCH   7   8
ENDBRANCH   4   7
ENDBRANCH   3   4
ENDBRANCH   2   3
ENDBRANCH   1   2
BRANCH   1  19
ATOM     19  C   UNL     1      10.053  -2.100  23.151  0.00  0.00    +0.193 C 
BRANCH  19  20
ATOM     20  O   UNL     1       9.720  -1.857  21.783  0.00  0.00    -0.377 OA
BRANCH  20  21
ATOM     21  C   UNL     1       9.438  -0.507  21.480  0.00  0.00    +0.160 C 
BRANCH  21  22
ATOM     22  C   UNL     1      10.221   0.330  22.480  0.00  0.00    +0.031 C 
BRANCH  22  23
ATOM     23  C   UNL     1      10.011   1.857  22.332  0.00  0.00    -0.012 C 
ATOM     24  C   UNL     1       8.586   2.201  21.880  0.00  0.00    +0.007 C 
BRANCH  23  25
ATOM     25  C   UNL     1      10.313   2.588  23.651  0.00  0.00    +0.003 C 
BRANCH  25  26
ATOM     26  C   UNL     1       9.861   4.047  23.710  0.00  0.00    +0.001 C 
BRANCH  26  27
ATOM     27  C   UNL     1      10.985   5.077  23.540  0.00  0.00    +0.003 C 
BRANCH  27  28
ATOM     28  C   UNL     1      10.701   6.381  24.315  0.00  0.00    -0.014 C 
ATOM     29  C   UNL     1      11.883   6.783  25.207  0.00  0.00    +0.007 C 
BRANCH  28  30
ATOM     30  C   UNL     1       9.400   6.249  25.137  0.00  0.00    +0.003 C 
BRANCH  30  31
ATOM     31  C   UNL     1       8.281   7.102  24.535  0.00  0.00    +0.001 C 
BRANCH  31  32
ATOM     32  C   UNL     1       6.929   6.398  24.523  0.00  0.00    +0.003 C 
BRANCH  32  33
ATOM     33  C   UNL     1       6.468   6.073  23.082  0.00  0.00    -0.014 C 
ATOM     34  C   UNL     1       7.519   6.483  22.048  0.00  0.00    +0.007 C 
BRANCH  33  35
ATOM     35  C   UNL     1       6.125   4.582  22.899  0.00  0.00    +0.003 C 
BRANCH  35  36
ATOM     36  C   UNL     1       4.698   4.262  23.338  0.00  0.00    +0.001 C 
BRANCH  36  37
ATOM     37  C   UNL     1       3.970   3.341  22.365  0.00  0.00    +0.003 C 
BRANCH  37  39
ATOM     38  C   UNL     1       1.549   2.941  21.836  0.00  0.00    +0.007 C 
ATOM     39  C   UNL     1       2.672   3.977  21.832  0.00  0.00    -0.017 C 
ATOM     40  C   UNL     1       2.235   5.216  22.624  0.00  0.00    +0.007 C 
ENDBRANCH  37  39
ENDBRANCH  36  37
ENDBRANCH  35  36
ENDBRANCH  33  35
ENDBRANCH  32  33
ENDBRANCH  31  32
ENDBRANCH  30  31
ENDBRANCH  28  30
ENDBRANCH  27  28
ENDBRANCH  26  27
ENDBRANCH  25  26
ENDBRANCH  23  25
ENDBRANCH  22  23
ENDBRANCH  21  22
ENDBRANCH  20  21
ENDBRANCH  19  20
ENDBRANCH   1  19
BRANCH   1  41
ATOM     41  O   UNL     1       8.658  -2.291  25.135  0.00  0.00    -0.372 OA
BRANCH  41  42
ATOM     42  C   UNL     1       7.699  -1.270  24.943  0.00  0.00    +0.160 C 
BRANCH  42  43
ATOM     43  C   UNL     1       8.179   0.055  25.519  0.00  0.00    +0.031 C 
BRANCH  43  44
ATOM     44  C   UNL     1       6.991   1.017  25.683  0.00  0.00    -0.012 C 
ATOM     45  C   UNL     1       6.098   1.035  24.429  0.00  0.00    +0.007 C 
BRANCH  44  46
ATOM     46  C   UNL     1       7.481   2.427  26.048  0.00  0.00    +0.003 C 
BRANCH  46  47
ATOM     47  C   UNL     1       6.289   3.311  26.412  0.00  0.00    +0.001 C 
BRANCH  47  48
ATOM     48  C   UNL     1       6.117   3.498  27.906  0.00  0.00    +0.003 C 
BRANCH  48  49
ATOM     49  C   UNL     1       6.751   2.321  28.678  0.00  0.00    -0.014 C 
ATOM     50  C   UNL     1       7.423   2.773  29.978  0.00  0.00    +0.007 C 
BRANCH  49  51
ATOM     51  C   UNL     1       5.710   1.234  28.978  0.00  0.00    +0.003 C 
BRANCH  51  52
ATOM     52  C   UNL     1       4.256   1.706  28.908  0.00  0.00    +0.001 C 
BRANCH  52  53
ATOM     53  C   UNL     1       3.392   0.878  27.946  0.00  0.00    +0.003 C 
BRANCH  53  54
ATOM     54  C   UNL     1       2.248   1.690  27.314  0.00  0.00    -0.014 C 
ATOM     55  C   UNL     1       1.058   0.790  26.965  0.00  0.00    +0.007 C 
BRANCH  54  56
ATOM     56  C   UNL     1       2.776   2.461  26.082  0.00  0.00    +0.003 C 
BRANCH  56  57
ATOM     57  C   UNL     1       2.329   3.922  26.096  0.00  0.00    +0.001 C 
BRANCH  57  58
ATOM     58  C   UNL     1       2.134   4.485  27.503  0.00  0.00    +0.003 C 
BRANCH  58  59
ATOM     59  C   UNL     1       2.870   5.831  27.680  0.00  0.00    -0.017 C 
ATOM     60  C   UNL     1       3.809   6.083  26.499  0.00  0.00    +0.007 C 
ATOM     61  C   UNL     1       3.655   5.896  28.992  0.00  0.00    +0.007 C 
ENDBRANCH  58  59
ENDBRANCH  57  58
ENDBRANCH  56  57
ENDBRANCH  54  56
ENDBRANCH  53  54
ENDBRANCH  52  53
ENDBRANCH  51  52
ENDBRANCH  49  51
ENDBRANCH  48  49
ENDBRANCH  47  48
ENDBRANCH  46  47
ENDBRANCH  44  46
ENDBRANCH  43  44
ENDBRANCH  42  43
ENDBRANCH  41  42
ENDBRANCH   1  41
TORSDOF 44
ENDMDL
MODEL 6
REMARK VINA RESULT:      -4.0      1.021      2.149
REMARK  Name = 
REMARK  54 active torsions:
REMARK  status: ('A' for Active; 'I' for Inactive)
REMARK    1  A    between atoms: C_1  and  C_2
REMARK    2  A    between atoms: C_2  and  C_3
REMARK    3  A    between atoms: C_2  and  C_4
REMARK    4  A    between atoms: C_4  and  C_5
REMARK    5  A    between atoms: C_5  and  C_6
REMARK    6  A    between atoms: C_6  and  C_7
REMARK    7  A    between atoms: C_7  and  C_9
REMARK    8  A    between atoms: C_7  and  C_10
REMARK    9  A    between atoms: C_10  and  C_11
REMARK   10  A    between atoms: C_11  and  C_12
REMARK   11  A    between atoms: C_12  and  C_13
REMARK   12  A    between atoms: C_13  and  C_15
REMARK   13  A    between atoms: C_13  and  C_16
REMARK   14  A    between atoms: C_16  and  C_17
REMARK   15  A    between atoms: C_17  and  C_18
REMARK   16  A    between atoms: C_18  and  C_19
REMARK   17  A    between atoms: C_19  and  C_21
REMARK   18  A    between atoms: C_19  and  C_22
REMARK   19  A    between atoms: C_22  and  C_23
REMARK   20  A    between atoms: C_23  and  O_24
REMARK   21  A    between atoms: O_24  and  C_25
REMARK   22  A    between atoms: C_25  and  C_26
REMARK   23  A    between atoms: C_26  and  C_28
REMARK   24  A    between atoms: C_26  and  O_44
REMARK   25  A    between atoms: C_28  and  O_29
REMARK   26  A    between atoms: O_29  and  P_30
REMARK   27  A    between atoms: P_30  and  O_33
REMARK   28  A    between atoms: O_33  and  C_34
REMARK   29  A    between atoms: C_34  and  C_35
REMARK   30  A    between atoms: C_35  and  O_37
REMARK   31  A    between atoms: C_35  and  C_38
REMARK   32  A    between atoms: C_38  and  O_39
REMARK   33  A    between atoms: O_39  and  P_40
REMARK   34  A    between atoms: P_40  and  O_41
REMARK   35  A    between atoms: O_44  and  C_45
REMARK   36  A    between atoms: C_45  and  C_46
REMARK   37  A    between atoms: C_46  and  C_47
REMARK   38  A    between atoms: C_47  and  C_49
REMARK   39  A    between atoms: C_47  and  C_50
REMARK   40  A    between atoms: C_50  and  C_51
REMARK   41  A    between atoms: C_51  and  C_52
REMARK   42  A    between atoms: C_52  and  C_53
REMARK   43  A    between atoms: C_53  and  C_55
REMARK   44  A    between atoms: C_53  and  C_56
REMARK   45  A    between atoms: C_56  and  C_57
REMARK   46  A    between atoms: C_57  and  C_58
REMARK   47  A    between atoms: C_58  and  C_59
REMARK   48  A    between atoms: C_59  and  C_61
REMARK   49  A    between atoms: C_59  and  C_62
REMARK   50  A    between atoms: C_62  and  C_63
REMARK   51  A    between atoms: C_63  and  C_64
REMARK   52  A    between atoms: C_64  and  C_65
REMARK   53  A    between atoms: C_65  and  C_66
REMARK   54  A    between atoms: C_65  and  C_67
REMARK                            x       y       z     vdW  Elec       q    Type
REMARK                         _______ _______ _______ _____ _____    ______ ____
ROOT
ATOM      1  C   UNL     1       5.906  -5.062  22.915  0.00  0.00    +0.170 C 
ENDROOT
BRANCH   1   2
ATOM      2  C   UNL     1       5.000  -6.299  23.111  0.00  0.00    +0.201 C 
BRANCH   2   3
ATOM      3  O   UNL     1       4.171  -6.241  24.255  0.00  0.00    -0.325 OA
BRANCH   3   4
ATOM      4  P   UNL     1       2.778  -5.422  24.132  0.00  0.00    +0.213 P 
ATOM      5  O   UNL     1       2.141  -5.734  22.801  0.00  0.00    -0.437 OA
ATOM      6  O   UNL     1       2.998  -4.006  24.594  0.00  0.00    -0.517 OA
BRANCH   4   7
ATOM      7  O   UNL     1       1.947  -6.123  25.310  0.00  0.00    -0.325 OA
BRANCH   7   8
ATOM      8  C   UNL     1       1.818  -5.473  26.556  0.00  0.00    +0.201 C 
BRANCH   8   9
ATOM      9  C   UNL     1       2.770  -6.274  27.442  0.00  0.00    +0.166 C 
BRANCH   9  10
ATOM     10  O   UNL     1       3.204  -7.451  26.736  0.00  0.00    -0.387 OA
ATOM     11  H   UNL     1       3.470  -7.096  25.860  0.00  0.00    +0.210 HD
ENDBRANCH   9  10
BRANCH   9  12
ATOM     12  C   UNL     1       3.959  -5.457  27.866  0.00  0.00    +0.201 C 
BRANCH  12  13
ATOM     13  O   UNL     1       5.121  -6.244  27.719  0.00  0.00    -0.325 OA
BRANCH  13  14
ATOM     14  P   UNL     1       6.042  -6.268  29.065  0.00  0.00    +0.210 P 
ATOM     15  O   UNL     1       4.854  -6.402  30.050  0.00  0.00    -0.517 OA
ATOM     16  O   UNL     1       6.636  -7.682  29.189  0.00  0.00    -0.437 OA
BRANCH  14  17
ATOM     17  O   UNL     1       7.367  -6.118  27.964  0.00  0.00    -0.344 OA
ATOM     18  H   UNL     1       7.343  -5.133  27.999  0.00  0.00    +0.218 HD
ENDBRANCH  14  17
ENDBRANCH  13  14
ENDBRANCH  12  13
ENDBRANCH   9  12
ENDBRANCH   8   9
ENDBRANCH   7   8
ENDBRANCH   4   7
ENDBRANCH   3   4
ENDBRANCH   2   3
ENDBRANCH   1   2
BRANCH   1  19
ATOM     19  C   UNL     1       7.327  -5.432  22.458  0.00  0.00    +0.193 C 
BRANCH  19  20
ATOM     20  O   UNL     1       8.318  -5.251  23.471  0.00  0.00    -0.377 OA
BRANCH  20  21
ATOM     21  C   UNL     1       7.812  -4.817  24.715  0.00  0.00    +0.160 C 
BRANCH  21  22
ATOM     22  C   UNL     1       8.786  -3.771  25.234  0.00  0.00    +0.031 C 
BRANCH  22  23
ATOM     23  C   UNL     1       8.255  -2.946  26.432  0.00  0.00    -0.012 C 
ATOM     24  C   UNL     1       8.694  -1.479  26.361  0.00  0.00    +0.007 C 
BRANCH  23  25
ATOM     25  C   UNL     1       6.720  -3.011  26.512  0.00  0.00    +0.003 C 
BRANCH  25  26
ATOM     26  C   UNL     1       6.019  -1.674  26.749  0.00  0.00    +0.001 C 
BRANCH  26  27
ATOM     27  C   UNL     1       4.498  -1.699  26.550  0.00  0.00    +0.003 C 
BRANCH  27  28
ATOM     28  C   UNL     1       3.766  -0.771  27.542  0.00  0.00    -0.014 C 
ATOM     29  C   UNL     1       4.150  -1.077  28.996  0.00  0.00    +0.007 C 
BRANCH  28  30
ATOM     30  C   UNL     1       2.238  -0.858  27.336  0.00  0.00    +0.003 C 
BRANCH  30  31
ATOM     31  C   UNL     1       1.545   0.417  27.823  0.00  0.00    +0.001 C 
BRANCH  31  32
ATOM     32  C   UNL     1       1.890   1.644  26.988  0.00  0.00    +0.003 C 
BRANCH  32  33
ATOM     33  C   UNL     1       2.239   2.860  27.879  0.00  0.00    -0.014 C 
ATOM     34  C   UNL     1       1.002   3.410  28.591  0.00  0.00    +0.007 C 
BRANCH  33  35
ATOM     35  C   UNL     1       3.326   2.530  28.921  0.00  0.00    +0.003 C 
BRANCH  35  36
ATOM     36  C   UNL     1       4.683   3.119  28.541  0.00  0.00    +0.001 C 
BRANCH  36  37
ATOM     37  C   UNL     1       4.775   3.498  27.068  0.00  0.00    +0.003 C 
BRANCH  37  39
ATOM     38  C   UNL     1       6.592   1.783  27.305  0.00  0.00    +0.007 C 
ATOM     39  C   UNL     1       5.796   2.627  26.312  0.00  0.00    -0.017 C 
ATOM     40  C   UNL     1       5.153   1.716  25.259  0.00  0.00    +0.007 C 
ENDBRANCH  37  39
ENDBRANCH  36  37
ENDBRANCH  35  36
ENDBRANCH  33  35
ENDBRANCH  32  33
ENDBRANCH  31  32
ENDBRANCH  30  31
ENDBRANCH  28  30
ENDBRANCH  27  28
ENDBRANCH  26  27
ENDBRANCH  25  26
ENDBRANCH  23  25
ENDBRANCH  22  23
ENDBRANCH  21  22
ENDBRANCH  20  21
ENDBRANCH  19  20
ENDBRANCH   1  19
BRANCH   1  41
ATOM     41  O   UNL     1       5.359  -4.070  22.019  0.00  0.00    -0.372 OA
BRANCH  41  42
ATOM     42  C   UNL     1       6.234  -2.973  21.841  0.00  0.00    +0.160 C 
BRANCH  42  43
ATOM     43  C   UNL     1       6.190  -2.031  23.036  0.00  0.00    +0.031 C 
BRANCH  43  44
ATOM     44  C   UNL     1       7.396  -1.077  22.998  0.00  0.00    -0.012 C 
ATOM     45  C   UNL     1       7.006   0.309  22.456  0.00  0.00    +0.007 C 
BRANCH  44  46
ATOM     46  C   UNL     1       8.551  -1.696  22.196  0.00  0.00    +0.003 C 
BRANCH  46  47
ATOM     47  C   UNL     1       9.654  -0.658  21.993  0.00  0.00    +0.001 C 
BRANCH  47  48
ATOM     48  C   UNL     1      10.411  -0.333  23.265  0.00  0.00    +0.003 C 
BRANCH  48  49
ATOM     49  C   UNL     1      10.560   1.193  23.435  0.00  0.00    -0.014 C 
ATOM     50  C   UNL     1      10.220   1.957  22.152  0.00  0.00    +0.007 C 
BRANCH  49  51
ATOM     51  C   UNL     1       9.696   1.707  24.595  0.00  0.00    +0.003 C 
BRANCH  51  52
ATOM     52  C   UNL     1       8.624   2.722  24.189  0.00  0.00    +0.001 C 
BRANCH  52  53
ATOM     53  C   UNL     1       8.903   4.141  24.701  0.00  0.00    +0.003 C 
BRANCH  53  54
ATOM     54  C   UNL     1       8.660   5.224  23.636  0.00  0.00    -0.014 C 
ATOM     55  C   UNL     1       9.766   6.285  23.663  0.00  0.00    +0.007 C 
BRANCH  54  56
ATOM     56  C   UNL     1       7.256   5.842  23.832  0.00  0.00    +0.003 C 
BRANCH  56  57
ATOM     57  C   UNL     1       6.201   5.120  22.995  0.00  0.00    +0.001 C 
BRANCH  57  58
ATOM     58  C   UNL     1       4.829   5.060  23.665  0.00  0.00    +0.003 C 
BRANCH  58  59
ATOM     59  C   UNL     1       3.697   4.936  22.624  0.00  0.00    -0.017 C 
ATOM     60  C   UNL     1       2.457   5.700  23.091  0.00  0.00    +0.007 C 
ATOM     61  C   UNL     1       3.330   3.478  22.334  0.00  0.00    +0.007 C 
ENDBRANCH  58  59
ENDBRANCH  57  58
ENDBRANCH  56  57
ENDBRANCH  54  56
ENDBRANCH  53  54
ENDBRANCH  52  53
ENDBRANCH  51  52
ENDBRANCH  49  51
ENDBRANCH  48  49
ENDBRANCH  47  48
ENDBRANCH  46  47
ENDBRANCH  44  46
ENDBRANCH  43  44
ENDBRANCH  42  43
ENDBRANCH  41  42
ENDBRANCH   1  41
TORSDOF 44
ENDMDL
MODEL 7
REMARK VINA RESULT:      -4.0      4.026      8.012
REMARK  Name = 
REMARK  54 active torsions:
REMARK  status: ('A' for Active; 'I' for Inactive)
REMARK    1  A    between atoms: C_1  and  C_2
REMARK    2  A    between atoms: C_2  and  C_3
REMARK    3  A    between atoms: C_2  and  C_4
REMARK    4  A    between atoms: C_4  and  C_5
REMARK    5  A    between atoms: C_5  and  C_6
REMARK    6  A    between atoms: C_6  and  C_7
REMARK    7  A    between atoms: C_7  and  C_9
REMARK    8  A    between atoms: C_7  and  C_10
REMARK    9  A    between atoms: C_10  and  C_11
REMARK   10  A    between atoms: C_11  and  C_12
REMARK   11  A    between atoms: C_12  and  C_13
REMARK   12  A    between atoms: C_13  and  C_15
REMARK   13  A    between atoms: C_13  and  C_16
REMARK   14  A    between atoms: C_16  and  C_17
REMARK   15  A    between atoms: C_17  and  C_18
REMARK   16  A    between atoms: C_18  and  C_19
REMARK   17  A    between atoms: C_19  and  C_21
REMARK   18  A    between atoms: C_19  and  C_22
REMARK   19  A    between atoms: C_22  and  C_23
REMARK   20  A    between atoms: C_23  and  O_24
REMARK   21  A    between atoms: O_24  and  C_25
REMARK   22  A    between atoms: C_25  and  C_26
REMARK   23  A    between atoms: C_26  and  C_28
REMARK   24  A    between atoms: C_26  and  O_44
REMARK   25  A    between atoms: C_28  and  O_29
REMARK   26  A    between atoms: O_29  and  P_30
REMARK   27  A    between atoms: P_30  and  O_33
REMARK   28  A    between atoms: O_33  and  C_34
REMARK   29  A    between atoms: C_34  and  C_35
REMARK   30  A    between atoms: C_35  and  O_37
REMARK   31  A    between atoms: C_35  and  C_38
REMARK   32  A    between atoms: C_38  and  O_39
REMARK   33  A    between atoms: O_39  and  P_40
REMARK   34  A    between atoms: P_40  and  O_41
REMARK   35  A    between atoms: O_44  and  C_45
REMARK   36  A    between atoms: C_45  and  C_46
REMARK   37  A    between atoms: C_46  and  C_47
REMARK   38  A    between atoms: C_47  and  C_49
REMARK   39  A    between atoms: C_47  and  C_50
REMARK   40  A    between atoms: C_50  and  C_51
REMARK   41  A    between atoms: C_51  and  C_52
REMARK   42  A    between atoms: C_52  and  C_53
REMARK   43  A    between atoms: C_53  and  C_55
REMARK   44  A    between atoms: C_53  and  C_56
REMARK   45  A    between atoms: C_56  and  C_57
REMARK   46  A    between atoms: C_57  and  C_58
REMARK   47  A    between atoms: C_58  and  C_59
REMARK   48  A    between atoms: C_59  and  C_61
REMARK   49  A    between atoms: C_59  and  C_62
REMARK   50  A    between atoms: C_62  and  C_63
REMARK   51  A    between atoms: C_63  and  C_64
REMARK   52  A    between atoms: C_64  and  C_65
REMARK   53  A    between atoms: C_65  and  C_66
REMARK   54  A    between atoms: C_65  and  C_67
REMARK                            x       y       z     vdW  Elec       q    Type
REMARK                         _______ _______ _______ _____ _____    ______ ____
ROOT
ATOM      1  C   UNL     1       6.570  -0.563  26.677  0.00  0.00    +0.170 C 
ENDROOT
BRANCH   1   2
ATOM      2  C   UNL     1       7.211   0.441  27.662  0.00  0.00    +0.201 C 
BRANCH   2   3
ATOM      3  O   UNL     1       6.779   1.777  27.499  0.00  0.00    -0.325 OA
BRANCH   3   4
ATOM      4  P   UNL     1       6.378   2.604  28.835  0.00  0.00    +0.213 P 
ATOM      5  O   UNL     1       7.569   3.409  29.291  0.00  0.00    -0.437 OA
ATOM      6  O   UNL     1       5.631   1.691  29.771  0.00  0.00    -0.517 OA
BRANCH   4   7
ATOM      7  O   UNL     1       5.264   3.581  28.224  0.00  0.00    -0.325 OA
BRANCH   7   8
ATOM      8  C   UNL     1       4.082   3.036  27.675  0.00  0.00    +0.201 C 
BRANCH   8   9
ATOM      9  C   UNL     1       3.827   3.950  26.479  0.00  0.00    +0.166 C 
BRANCH   9  10
ATOM     10  O   UNL     1       4.524   5.195  26.670  0.00  0.00    -0.387 OA
ATOM     11  H   UNL     1       5.105   5.245  25.879  0.00  0.00    +0.210 HD
ENDBRANCH   9  10
BRANCH   9  12
ATOM     12  C   UNL     1       4.253   3.311  25.187  0.00  0.00    +0.201 C 
BRANCH  12  13
ATOM     13  O   UNL     1       4.088   4.249  24.146  0.00  0.00    -0.325 OA
BRANCH  13  14
ATOM     14  P   UNL     1       3.628   3.558  22.741  0.00  0.00    +0.210 P 
ATOM     15  O   UNL     1       2.408   2.814  23.338  0.00  0.00    -0.517 OA
ATOM     16  O   UNL     1       2.893   4.633  21.921  0.00  0.00    -0.437 OA
BRANCH  14  17
ATOM     17  O   UNL     1       4.991   4.390  22.075  0.00  0.00    -0.344 OA
ATOM     18  H   UNL     1       5.199   3.649  21.460  0.00  0.00    +0.218 HD
ENDBRANCH  14  17
ENDBRANCH  13  14
ENDBRANCH  12  13
ENDBRANCH   9  12
ENDBRANCH   8   9
ENDBRANCH   7   8
ENDBRANCH   4   7
ENDBRANCH   3   4
ENDBRANCH   2   3
ENDBRANCH   1   2
BRANCH   1  19
ATOM     19  C   UNL     1       5.408   0.048  25.877  0.00  0.00    +0.193 C 
BRANCH  19  20
ATOM     20  O   UNL     1       4.183  -0.677  26.005  0.00  0.00    -0.377 OA
BRANCH  20  21
ATOM     21  C   UNL     1       4.205  -1.696  26.982  0.00  0.00    +0.160 C 
BRANCH  21  22
ATOM     22  C   UNL     1       3.033  -2.614  26.673  0.00  0.00    +0.031 C 
BRANCH  22  23
ATOM     23  C   UNL     1       2.402  -3.281  27.919  0.00  0.00    -0.012 C 
ATOM     24  C   UNL     1       1.775  -2.253  28.868  0.00  0.00    +0.007 C 
BRANCH  23  25
ATOM     25  C   UNL     1       1.335  -4.313  27.515  0.00  0.00    +0.003 C 
BRANCH  25  26
ATOM     26  C   UNL     1       1.026  -4.384  26.019  0.00  0.00    +0.001 C 
BRANCH  26  27
ATOM     27  C   UNL     1       1.292  -5.748  25.370  0.00  0.00    +0.003 C 
BRANCH  27  28
ATOM     28  C   UNL     1       2.603  -5.759  24.556  0.00  0.00    -0.014 C 
ATOM     29  C   UNL     1       2.335  -5.809  23.046  0.00  0.00    +0.007 C 
BRANCH  28  30
ATOM     30  C   UNL     1       3.507  -6.928  25.004  0.00  0.00    +0.003 C 
BRANCH  30  31
ATOM     31  C   UNL     1       3.719  -6.910  26.519  0.00  0.00    +0.001 C 
BRANCH  31  32
ATOM     32  C   UNL     1       5.176  -6.710  26.920  0.00  0.00    +0.003 C 
BRANCH  32  33
ATOM     33  C   UNL     1       5.514  -5.213  27.112  0.00  0.00    -0.014 C 
ATOM     34  C   UNL     1       5.588  -4.837  28.593  0.00  0.00    +0.007 C 
BRANCH  33  35
ATOM     35  C   UNL     1       6.830  -4.815  26.416  0.00  0.00    +0.003 C 
BRANCH  35  36
ATOM     36  C   UNL     1       6.693  -4.796  24.895  0.00  0.00    +0.001 C 
BRANCH  36  37
ATOM     37  C   UNL     1       5.647  -3.801  24.406  0.00  0.00    +0.003 C 
BRANCH  37  39
ATOM     38  C   UNL     1       6.148  -2.591  22.264  0.00  0.00    +0.007 C 
ATOM     39  C   UNL     1       5.496  -3.832  22.873  0.00  0.00    -0.017 C 
ATOM     40  C   UNL     1       6.088  -5.093  22.231  0.00  0.00    +0.007 C 
ENDBRANCH  37  39
ENDBRANCH  36  37
ENDBRANCH  35  36
ENDBRANCH  33  35
ENDBRANCH  32  33
ENDBRANCH  31  32
ENDBRANCH  30  31
ENDBRANCH  28  30
ENDBRANCH  27  28
ENDBRANCH  26  27
ENDBRANCH  25  26
ENDBRANCH  23  25
ENDBRANCH  22  23
ENDBRANCH  21  22
ENDBRANCH  20  21
ENDBRANCH  19  20
ENDBRANCH   1  19
BRANCH   1  41
ATOM     41  O   UNL     1       7.510  -1.171  25.764  0.00  0.00    -0.372 OA
BRANCH  41  42
ATOM     42  C   UNL     1       8.849  -0.851  26.087  0.00  0.00    +0.160 C 
BRANCH  42  43
ATOM     43  C   UNL     1       9.600  -0.324  24.872  0.00  0.00    +0.031 C 
BRANCH  43  44
ATOM     44  C   UNL     1       9.418  -1.285  23.685  0.00  0.00    -0.012 C 
ATOM     45  C   UNL     1       9.814  -2.725  24.055  0.00  0.00    +0.007 C 
BRANCH  44  46
ATOM     46  C   UNL     1      10.192  -0.782  22.457  0.00  0.00    +0.003 C 
BRANCH  46  47
ATOM     47  C   UNL     1       9.915   0.705  22.243  0.00  0.00    +0.001 C 
BRANCH  47  48
ATOM     48  C   UNL     1       8.823   0.970  21.227  0.00  0.00    +0.003 C 
BRANCH  48  49
ATOM     49  C   UNL     1       7.733   1.884  21.824  0.00  0.00    -0.014 C 
ATOM     50  C   UNL     1       6.778   1.123  22.749  0.00  0.00    +0.007 C 
BRANCH  49  51
ATOM     51  C   UNL     1       8.357   3.067  22.577  0.00  0.00    +0.003 C 
BRANCH  51  52
ATOM     52  C   UNL     1       7.729   3.356  23.943  0.00  0.00    +0.001 C 
BRANCH  52  53
ATOM     53  C   UNL     1       8.720   3.937  24.959  0.00  0.00    +0.003 C 
BRANCH  53  54
ATOM     54  C   UNL     1       8.347   5.356  25.423  0.00  0.00    -0.014 C 
ATOM     55  C   UNL     1       7.192   5.924  24.591  0.00  0.00    +0.007 C 
BRANCH  54  56
ATOM     56  C   UNL     1       9.597   6.264  25.379  0.00  0.00    +0.003 C 
BRANCH  56  57
ATOM     57  C   UNL     1      10.376   6.090  24.076  0.00  0.00    +0.001 C 
BRANCH  57  58
ATOM     58  C   UNL     1      11.889   6.214  24.249  0.00  0.00    +0.003 C 
BRANCH  58  59
ATOM     59  C   UNL     1      12.637   5.095  23.496  0.00  0.00    -0.017 C 
ATOM     60  C   UNL     1      13.177   5.617  22.163  0.00  0.00    +0.007 C 
ATOM     61  C   UNL     1      11.756   3.867  23.254  0.00  0.00    +0.007 C 
ENDBRANCH  58  59
ENDBRANCH  57  58
ENDBRANCH  56  57
ENDBRANCH  54  56
ENDBRANCH  53  54
ENDBRANCH  52  53
ENDBRANCH  51  52
ENDBRANCH  49  51
ENDBRANCH  48  49
ENDBRANCH  47  48
ENDBRANCH  46  47
ENDBRANCH  44  46
ENDBRANCH  43  44
ENDBRANCH  42  43
ENDBRANCH  41  42
ENDBRANCH   1  41
TORSDOF 44
ENDMDL
MODEL 8
REMARK VINA RESULT:      -3.9      2.098      5.389
REMARK  Name = 
REMARK  54 active torsions:
REMARK  status: ('A' for Active; 'I' for Inactive)
REMARK    1  A    between atoms: C_1  and  C_2
REMARK    2  A    between atoms: C_2  and  C_3
REMARK    3  A    between atoms: C_2  and  C_4
REMARK    4  A    between atoms: C_4  and  C_5
REMARK    5  A    between atoms: C_5  and  C_6
REMARK    6  A    between atoms: C_6  and  C_7
REMARK    7  A    between atoms: C_7  and  C_9
REMARK    8  A    between atoms: C_7  and  C_10
REMARK    9  A    between atoms: C_10  and  C_11
REMARK   10  A    between atoms: C_11  and  C_12
REMARK   11  A    between atoms: C_12  and  C_13
REMARK   12  A    between atoms: C_13  and  C_15
REMARK   13  A    between atoms: C_13  and  C_16
REMARK   14  A    between atoms: C_16  and  C_17
REMARK   15  A    between atoms: C_17  and  C_18
REMARK   16  A    between atoms: C_18  and  C_19
REMARK   17  A    between atoms: C_19  and  C_21
REMARK   18  A    between atoms: C_19  and  C_22
REMARK   19  A    between atoms: C_22  and  C_23
REMARK   20  A    between atoms: C_23  and  O_24
REMARK   21  A    between atoms: O_24  and  C_25
REMARK   22  A    between atoms: C_25  and  C_26
REMARK   23  A    between atoms: C_26  and  C_28
REMARK   24  A    between atoms: C_26  and  O_44
REMARK   25  A    between atoms: C_28  and  O_29
REMARK   26  A    between atoms: O_29  and  P_30
REMARK   27  A    between atoms: P_30  and  O_33
REMARK   28  A    between atoms: O_33  and  C_34
REMARK   29  A    between atoms: C_34  and  C_35
REMARK   30  A    between atoms: C_35  and  O_37
REMARK   31  A    between atoms: C_35  and  C_38
REMARK   32  A    between atoms: C_38  and  O_39
REMARK   33  A    between atoms: O_39  and  P_40
REMARK   34  A    between atoms: P_40  and  O_41
REMARK   35  A    between atoms: O_44  and  C_45
REMARK   36  A    between atoms: C_45  and  C_46
REMARK   37  A    between atoms: C_46  and  C_47
REMARK   38  A    between atoms: C_47  and  C_49
REMARK   39  A    between atoms: C_47  and  C_50
REMARK   40  A    between atoms: C_50  and  C_51
REMARK   41  A    between atoms: C_51  and  C_52
REMARK   42  A    between atoms: C_52  and  C_53
REMARK   43  A    between atoms: C_53  and  C_55
REMARK   44  A    between atoms: C_53  and  C_56
REMARK   45  A    between atoms: C_56  and  C_57
REMARK   46  A    between atoms: C_57  and  C_58
REMARK   47  A    between atoms: C_58  and  C_59
REMARK   48  A    between atoms: C_59  and  C_61
REMARK   49  A    between atoms: C_59  and  C_62
REMARK   50  A    between atoms: C_62  and  C_63
REMARK   51  A    between atoms: C_63  and  C_64
REMARK   52  A    between atoms: C_64  and  C_65
REMARK   53  A    between atoms: C_65  and  C_66
REMARK   54  A    between atoms: C_65  and  C_67
REMARK                            x       y       z     vdW  Elec       q    Type
REMARK                         _______ _______ _______ _____ _____    ______ ____
ROOT
ATOM      1  C   UNL     1       8.982  -3.119  24.171  0.00  0.00    +0.170 C 
ENDROOT
BRANCH   1   2
ATOM      2  C   UNL     1       7.812  -2.982  23.172  0.00  0.00    +0.201 C 
BRANCH   2   3
ATOM      3  O   UNL     1       7.559  -4.143  22.405  0.00  0.00    -0.325 OA
BRANCH   3   4
ATOM      4  P   UNL     1       6.027  -4.424  21.953  0.00  0.00    +0.213 P 
ATOM      5  O   UNL     1       6.022  -5.443  20.843  0.00  0.00    -0.437 OA
ATOM      6  O   UNL     1       5.304  -3.108  21.827  0.00  0.00    -0.517 OA
BRANCH   4   7
ATOM      7  O   UNL     1       5.464  -5.084  23.301  0.00  0.00    -0.325 OA
BRANCH   7   8
ATOM      8  C   UNL     1       4.089  -4.990  23.603  0.00  0.00    +0.201 C 
BRANCH   8   9
ATOM      9  C   UNL     1       3.560  -6.347  23.142  0.00  0.00    +0.166 C 
BRANCH   9  10
ATOM     10  O   UNL     1       4.364  -7.394  23.715  0.00  0.00    -0.387 OA
ATOM     11  H   UNL     1       4.796  -6.947  24.476  0.00  0.00    +0.210 HD
ENDBRANCH   9  10
BRANCH   9  12
ATOM     12  C   UNL     1       2.117  -6.539  23.515  0.00  0.00    +0.201 C 
BRANCH  12  13
ATOM     13  O   UNL     1       1.837  -7.922  23.529  0.00  0.00    -0.325 OA
BRANCH  13  14
ATOM     14  P   UNL     1       1.342  -8.451  24.991  0.00  0.00    +0.210 P 
ATOM     15  O   UNL     1       2.076  -9.812  24.909  0.00  0.00    -0.517 OA
ATOM     16  O   UNL     1       2.215  -7.754  26.050  0.00  0.00    -0.437 OA
BRANCH  14  17
ATOM     17  O   UNL     1       0.522  -6.930  25.081  0.00  0.00    -0.344 OA
ATOM     18  H   UNL     1       0.931  -6.711  25.951  0.00  0.00    +0.218 HD
ENDBRANCH  14  17
ENDBRANCH  13  14
ENDBRANCH  12  13
ENDBRANCH   9  12
ENDBRANCH   8   9
ENDBRANCH   7   8
ENDBRANCH   4   7
ENDBRANCH   3   4
ENDBRANCH   2   3
ENDBRANCH   1   2
BRANCH   1  19
ATOM     19  C   UNL     1       9.064  -4.517  24.805  0.00  0.00    +0.193 C 
BRANCH  19  20
ATOM     20  O   UNL     1       8.980  -4.504  26.231  0.00  0.00    -0.377 OA
BRANCH  20  21
ATOM     21  C   UNL     1       7.929  -5.282  26.763  0.00  0.00    +0.160 C 
BRANCH  21  22
ATOM     22  C   UNL     1       6.776  -4.325  27.024  0.00  0.00    +0.031 C 
BRANCH  22  23
ATOM     23  C   UNL     1       5.475  -5.015  27.504  0.00  0.00    -0.012 C 
ATOM     24  C   UNL     1       5.321  -6.424  26.920  0.00  0.00    +0.007 C 
BRANCH  23  25
ATOM     25  C   UNL     1       5.424  -5.094  29.039  0.00  0.00    +0.003 C 
BRANCH  25  26
ATOM     26  C   UNL     1       4.081  -4.724  29.670  0.00  0.00    +0.001 C 
BRANCH  26  27
ATOM     27  C   UNL     1       3.016  -5.826  29.611  0.00  0.00    +0.003 C 
BRANCH  27  28
ATOM     28  C   UNL     1       1.671  -5.305  29.063  0.00  0.00    -0.014 C 
ATOM     29  C   UNL     1       0.652  -6.438  28.883  0.00  0.00    +0.007 C 
BRANCH  28  30
ATOM     30  C   UNL     1       1.887  -4.533  27.743  0.00  0.00    +0.003 C 
BRANCH  30  31
ATOM     31  C   UNL     1       1.202  -3.165  27.788  0.00  0.00    +0.001 C 
BRANCH  31  32
ATOM     32  C   UNL     1       1.651  -2.231  26.671  0.00  0.00    +0.003 C 
BRANCH  32  33
ATOM     33  C   UNL     1       2.347  -0.967  27.229  0.00  0.00    -0.014 C 
ATOM     34  C   UNL     1       1.334   0.119  27.597  0.00  0.00    +0.007 C 
BRANCH  33  35
ATOM     35  C   UNL     1       3.231  -1.277  28.453  0.00  0.00    +0.003 C 
BRANCH  35  36
ATOM     36  C   UNL     1       4.699  -1.460  28.070  0.00  0.00    +0.001 C 
BRANCH  36  37
ATOM     37  C   UNL     1       5.230  -0.327  27.199  0.00  0.00    +0.003 C 
BRANCH  37  39
ATOM     38  C   UNL     1       5.995  -0.219  24.810  0.00  0.00    +0.007 C 
ATOM     39  C   UNL     1       6.278  -0.824  26.184  0.00  0.00    -0.017 C 
ATOM     40  C   UNL     1       7.720  -0.508  26.601  0.00  0.00    +0.007 C 
ENDBRANCH  37  39
ENDBRANCH  36  37
ENDBRANCH  35  36
ENDBRANCH  33  35
ENDBRANCH  32  33
ENDBRANCH  31  32
ENDBRANCH  30  31
ENDBRANCH  28  30
ENDBRANCH  27  28
ENDBRANCH  26  27
ENDBRANCH  25  26
ENDBRANCH  23  25
ENDBRANCH  22  23
ENDBRANCH  21  22
ENDBRANCH  20  21
ENDBRANCH  19  20
ENDBRANCH   1  19
BRANCH   1  41
ATOM     41  O   UNL     1      10.271  -2.770  23.618  0.00  0.00    -0.372 OA
BRANCH  41  42
ATOM     42  C   UNL     1      10.226  -1.558  22.890  0.00  0.00    +0.160 C 
BRANCH  42  43
ATOM     43  C   UNL     1      10.447  -0.358  23.800  0.00  0.00    +0.031 C 
BRANCH  43  44
ATOM     44  C   UNL     1       9.553   0.811  23.352  0.00  0.00    -0.012 C 
ATOM     45  C   UNL     1       9.950   1.327  21.958  0.00  0.00    +0.007 C 
BRANCH  44  46
ATOM     46  C   UNL     1       9.568   1.936  24.398  0.00  0.00    +0.003 C 
BRANCH  46  47
ATOM     47  C   UNL     1       8.224   2.663  24.396  0.00  0.00    +0.001 C 
BRANCH  47  48
ATOM     48  C   UNL     1       8.358   4.167  24.264  0.00  0.00    +0.003 C 
BRANCH  48  49
ATOM     49  C   UNL     1       7.587   4.676  23.029  0.00  0.00    -0.014 C 
ATOM     50  C   UNL     1       6.988   3.532  22.205  0.00  0.00    +0.007 C 
BRANCH  49  51
ATOM     51  C   UNL     1       6.483   5.662  23.435  0.00  0.00    +0.003 C 
BRANCH  51  52
ATOM     52  C   UNL     1       5.135   5.428  22.748  0.00  0.00    +0.001 C 
BRANCH  52  53
ATOM     53  C   UNL     1       3.961   5.322  23.729  0.00  0.00    +0.003 C 
BRANCH  53  54
ATOM     54  C   UNL     1       3.333   3.918  23.768  0.00  0.00    -0.014 C 
ATOM     55  C   UNL     1       1.893   3.969  24.291  0.00  0.00    +0.007 C 
BRANCH  54  56
ATOM     56  C   UNL     1       4.223   2.972  24.607  0.00  0.00    +0.003 C 
BRANCH  56  57
ATOM     57  C   UNL     1       3.546   2.575  25.918  0.00  0.00    +0.001 C 
BRANCH  57  58
ATOM     58  C   UNL     1       4.244   3.132  27.157  0.00  0.00    +0.003 C 
BRANCH  58  59
ATOM     59  C   UNL     1       5.638   3.700  26.812  0.00  0.00    -0.017 C 
ATOM     60  C   UNL     1       6.715   3.019  27.659  0.00  0.00    +0.007 C 
ATOM     61  C   UNL     1       5.711   5.217  27.001  0.00  0.00    +0.007 C 
ENDBRANCH  58  59
ENDBRANCH  57  58
ENDBRANCH  56  57
ENDBRANCH  54  56
ENDBRANCH  53  54
ENDBRANCH  52  53
ENDBRANCH  51  52
ENDBRANCH  49  51
ENDBRANCH  48  49
ENDBRANCH  47  48
ENDBRANCH  46  47
ENDBRANCH  44  46
ENDBRANCH  43  44
ENDBRANCH  42  43
ENDBRANCH  41  42
ENDBRANCH   1  41
TORSDOF 44
ENDMDL
MODEL 9
REMARK VINA RESULT:      -3.9      1.560      3.311
REMARK  Name = 
REMARK  54 active torsions:
REMARK  status: ('A' for Active; 'I' for Inactive)
REMARK    1  A    between atoms: C_1  and  C_2
REMARK    2  A    between atoms: C_2  and  C_3
REMARK    3  A    between atoms: C_2  and  C_4
REMARK    4  A    between atoms: C_4  and  C_5
REMARK    5  A    between atoms: C_5  and  C_6
REMARK    6  A    between atoms: C_6  and  C_7
REMARK    7  A    between atoms: C_7  and  C_9
REMARK    8  A    between atoms: C_7  and  C_10
REMARK    9  A    between atoms: C_10  and  C_11
REMARK   10  A    between atoms: C_11  and  C_12
REMARK   11  A    between atoms: C_12  and  C_13
REMARK   12  A    between atoms: C_13  and  C_15
REMARK   13  A    between atoms: C_13  and  C_16
REMARK   14  A    between atoms: C_16  and  C_17
REMARK   15  A    between atoms: C_17  and  C_18
REMARK   16  A    between atoms: C_18  and  C_19
REMARK   17  A    between atoms: C_19  and  C_21
REMARK   18  A    between atoms: C_19  and  C_22
REMARK   19  A    between atoms: C_22  and  C_23
REMARK   20  A    between atoms: C_23  and  O_24
REMARK   21  A    between atoms: O_24  and  C_25
REMARK   22  A    between atoms: C_25  and  C_26
REMARK   23  A    between atoms: C_26  and  C_28
REMARK   24  A    between atoms: C_26  and  O_44
REMARK   25  A    between atoms: C_28  and  O_29
REMARK   26  A    between atoms: O_29  and  P_30
REMARK   27  A    between atoms: P_30  and  O_33
REMARK   28  A    between atoms: O_33  and  C_34
REMARK   29  A    between atoms: C_34  and  C_35
REMARK   30  A    between atoms: C_35  and  O_37
REMARK   31  A    between atoms: C_35  and  C_38
REMARK   32  A    between atoms: C_38  and  O_39
REMARK   33  A    between atoms: O_39  and  P_40
REMARK   34  A    between atoms: P_40  and  O_41
REMARK   35  A    between atoms: O_44  and  C_45
REMARK   36  A    between atoms: C_45  and  C_46
REMARK   37  A    between atoms: C_46  and  C_47
REMARK   38  A    between atoms: C_47  and  C_49
REMARK   39  A    between atoms: C_47  and  C_50
REMARK   40  A    between atoms: C_50  and  C_51
REMARK   41  A    between atoms: C_51  and  C_52
REMARK   42  A    between atoms: C_52  and  C_53
REMARK   43  A    between atoms: C_53  and  C_55
REMARK   44  A    between atoms: C_53  and  C_56
REMARK   45  A    between atoms: C_56  and  C_57
REMARK   46  A    between atoms: C_57  and  C_58
REMARK   47  A    between atoms: C_58  and  C_59
REMARK   48  A    between atoms: C_59  and  C_61
REMARK   49  A    between atoms: C_59  and  C_62
REMARK   50  A    between atoms: C_62  and  C_63
REMARK   51  A    between atoms: C_63  and  C_64
REMARK   52  A    between atoms: C_64  and  C_65
REMARK   53  A    between atoms: C_65  and  C_66
REMARK   54  A    between atoms: C_65  and  C_67
REMARK                            x       y       z     vdW  Elec       q    Type
REMARK                         _______ _______ _______ _____ _____    ______ ____
ROOT
ATOM      1  C   UNL     1       5.841  -2.267  23.186  0.00  0.00    +0.170 C 
ENDROOT
BRANCH   1   2
ATOM      2  C   UNL     1       5.686  -3.730  22.715  0.00  0.00    +0.201 C 
BRANCH   2   3
ATOM      3  O   UNL     1       4.353  -4.199  22.691  0.00  0.00    -0.325 OA
BRANCH   3   4
ATOM      4  P   UNL     1       4.066  -5.676  23.295  0.00  0.00    +0.213 P 
ATOM      5  O   UNL     1       5.377  -6.400  23.466  0.00  0.00    -0.437 OA
ATOM      6  O   UNL     1       2.909  -6.294  22.554  0.00  0.00    -0.517 OA
BRANCH   4   7
ATOM      7  O   UNL     1       3.477  -5.272  24.730  0.00  0.00    -0.325 OA
BRANCH   7   8
ATOM      8  C   UNL     1       2.320  -5.917  25.218  0.00  0.00    +0.201 C 
BRANCH   8   9
ATOM      9  C   UNL     1       2.824  -6.555  26.511  0.00  0.00    +0.166 C 
BRANCH   9  10
ATOM     10  O   UNL     1       3.688  -7.661  26.195  0.00  0.00    -0.387 OA
ATOM     11  H   UNL     1       4.293  -7.282  25.520  0.00  0.00    +0.210 HD
ENDBRANCH   9  10
BRANCH   9  12
ATOM     12  C   UNL     1       3.549  -5.562  27.377  0.00  0.00    +0.201 C 
BRANCH  12  13
ATOM     13  O   UNL     1       4.633  -6.216  28.000  0.00  0.00    -0.325 OA
BRANCH  13  14
ATOM     14  P   UNL     1       5.978  -5.295  28.056  0.00  0.00    +0.210 P 
ATOM     15  O   UNL     1       5.868  -4.972  29.567  0.00  0.00    -0.517 OA
ATOM     16  O   UNL     1       7.186  -6.248  28.088  0.00  0.00    -0.437 OA
BRANCH  14  17
ATOM     17  O   UNL     1       6.100  -5.657  26.369  0.00  0.00    -0.344 OA
ATOM     18  H   UNL     1       5.856  -6.602  26.509  0.00  0.00    +0.218 HD
ENDBRANCH  14  17
ENDBRANCH  13  14
ENDBRANCH  12  13
ENDBRANCH   9  12
ENDBRANCH   8   9
ENDBRANCH   7   8
ENDBRANCH   4   7
ENDBRANCH   3   4
ENDBRANCH   2   3
ENDBRANCH   1   2
BRANCH   1  19
ATOM     19  C   UNL     1       5.878  -2.136  24.717  0.00  0.00    +0.193 C 
BRANCH  19  20
ATOM     20  O   UNL     1       5.020  -1.111  25.223  0.00  0.00    -0.377 OA
BRANCH  20  21
ATOM     21  C   UNL     1       5.605   0.173  25.269  0.00  0.00    +0.160 C 
BRANCH  21  22
ATOM     22  C   UNL     1       5.226   0.770  26.616  0.00  0.00    +0.031 C 
BRANCH  22  23
ATOM     23  C   UNL     1       6.082   0.259  27.801  0.00  0.00    -0.012 C 
ATOM     24  C   UNL     1       7.559   0.100  27.418  0.00  0.00    +0.007 C 
BRANCH  23  25
ATOM     25  C   UNL     1       5.972   1.202  29.011  0.00  0.00    +0.003 C 
BRANCH  25  26
ATOM     26  C   UNL     1       5.544   2.634  28.689  0.00  0.00    +0.001 C 
BRANCH  26  27
ATOM     27  C   UNL     1       6.699   3.604  28.408  0.00  0.00    +0.003 C 
BRANCH  27  28
ATOM     28  C   UNL     1       6.525   4.342  27.065  0.00  0.00    -0.014 C 
ATOM     29  C   UNL     1       7.664   4.023  26.087  0.00  0.00    +0.007 C 
BRANCH  28  30
ATOM     30  C   UNL     1       6.397   5.864  27.297  0.00  0.00    +0.003 C 
BRANCH  30  31
ATOM     31  C   UNL     1       4.963   6.339  27.054  0.00  0.00    +0.001 C 
BRANCH  31  32
ATOM     32  C   UNL     1       4.033   5.225  26.587  0.00  0.00    +0.003 C 
BRANCH  32  33
ATOM     33  C   UNL     1       2.569   5.714  26.476  0.00  0.00    -0.014 C 
ATOM     34  C   UNL     1       2.364   6.606  25.249  0.00  0.00    +0.007 C 
BRANCH  33  35
ATOM     35  C   UNL     1       1.563   4.547  26.435  0.00  0.00    +0.003 C 
BRANCH  35  36
ATOM     36  C   UNL     1       1.965   3.409  27.371  0.00  0.00    +0.001 C 
BRANCH  36  37
ATOM     37  C   UNL     1       1.741   2.031  26.758  0.00  0.00    +0.003 C 
BRANCH  37  39
ATOM     38  C   UNL     1       1.861  -0.411  27.328  0.00  0.00    +0.007 C 
ATOM     39  C   UNL     1       1.435   0.967  27.830  0.00  0.00    -0.017 C 
ATOM     40  C   UNL     1       2.107   1.256  29.178  0.00  0.00    +0.007 C 
ENDBRANCH  37  39
ENDBRANCH  36  37
ENDBRANCH  35  36
ENDBRANCH  33  35
ENDBRANCH  32  33
ENDBRANCH  31  32
ENDBRANCH  30  31
ENDBRANCH  28  30
ENDBRANCH  27  28
ENDBRANCH  26  27
ENDBRANCH  25  26
ENDBRANCH  23  25
ENDBRANCH  22  23
ENDBRANCH  21  22
ENDBRANCH  20  21
ENDBRANCH  19  20
ENDBRANCH   1  19
BRANCH   1  41
ATOM     41  O   UNL     1       6.984  -1.586  22.621  0.00  0.00    -0.372 OA
BRANCH  41  42
ATOM     42  C   UNL     1       8.008  -2.486  22.246  0.00  0.00    +0.160 C 
BRANCH  42  43
ATOM     43  C   UNL     1       9.382  -1.847  22.379  0.00  0.00    +0.031 C 
BRANCH  43  44
ATOM     44  C   UNL     1       9.962  -2.132  23.775  0.00  0.00    -0.012 C 
ATOM     45  C   UNL     1       9.406  -3.442  24.363  0.00  0.00    +0.007 C 
BRANCH  44  46
ATOM     46  C   UNL     1       9.721  -0.942  24.716  0.00  0.00    +0.003 C 
BRANCH  46  47
ATOM     47  C   UNL     1      10.545   0.259  24.252  0.00  0.00    +0.001 C 
BRANCH  47  48
ATOM     48  C   UNL     1       9.860   1.587  24.505  0.00  0.00    +0.003 C 
BRANCH  48  49
ATOM     49  C   UNL     1       9.298   2.167  23.190  0.00  0.00    -0.014 C 
ATOM     50  C   UNL     1      10.187   1.844  21.985  0.00  0.00    +0.007 C 
BRANCH  49  51
ATOM     51  C   UNL     1       7.868   1.671  22.934  0.00  0.00    +0.003 C 
BRANCH  51  52
ATOM     52  C   UNL     1       7.050   2.549  21.985  0.00  0.00    +0.001 C 
BRANCH  52  53
ATOM     53  C   UNL     1       7.032   4.030  22.387  0.00  0.00    +0.003 C 
BRANCH  53  54
ATOM     54  C   UNL     1       5.630   4.532  22.774  0.00  0.00    -0.014 C 
ATOM     55  C   UNL     1       5.699   5.915  23.431  0.00  0.00    +0.007 C 
BRANCH  54  56
ATOM     56  C   UNL     1       4.937   3.491  23.683  0.00  0.00    +0.003 C 
BRANCH  56  57
ATOM     57  C   UNL     1       3.437   3.406  23.401  0.00  0.00    +0.001 C 
BRANCH  57  58
ATOM     58  C   UNL     1       3.089   3.499  21.917  0.00  0.00    +0.003 C 
BRANCH  58  59
ATOM     59  C   UNL     1       1.877   4.424  21.677  0.00  0.00    -0.017 C 
ATOM     60  C   UNL     1       2.332   5.879  21.557  0.00  0.00    +0.007 C 
ATOM     61  C   UNL     1       0.823   4.298  22.780  0.00  0.00    +0.007 C 
ENDBRANCH  58  59
ENDBRANCH  57  58
ENDBRANCH  56  57
ENDBRANCH  54  56
ENDBRANCH  53  54
ENDBRANCH  52  53
ENDBRANCH  51  52
ENDBRANCH  49  51
ENDBRANCH  48  49
ENDBRANCH  47  48
ENDBRANCH  46  47
ENDBRANCH  44  46
ENDBRANCH  43  44
ENDBRANCH  42  43
ENDBRANCH  41  42
ENDBRANCH   1  41
TORSDOF 44
ENDMDL
