MODEL 1
REMARK VINA RESULT:      -4.8      0.000      0.000
REMARK  Name = 
REMARK  6 active torsions:
REMARK  status: ('A' for Active; 'I' for Inactive)
REMARK    1  A    between atoms: C_1  and  C_2
REMARK    2  A    between atoms: C_6  and  C_7
REMARK    3  A    between atoms: C_8  and  O_9
REMARK    4  A    between atoms: O_9  and  C_10
REMARK    5  A    between atoms: C_10  and  C_11
REMARK    6  A    between atoms: C_11  and  O_12
REMARK                            x       y       z     vdW  Elec       q    Type
REMARK                         _______ _______ _______ _____ _____    ______ ____
ROOT
ATOM      1  C   UNL     1       7.813  -2.800  22.504  0.00  0.00    +0.047 C 
ATOM      2  C   UNL     1       8.320  -1.972  23.652  0.00  0.00    -0.009 A 
ATOM      3  C   UNL     1       9.351  -1.011  23.576  0.00  0.00    +0.127 A 
ATOM      4  C   UNL     1       9.775  -0.346  24.753  0.00  0.00    -0.009 A 
ATOM      5  C   UNL     1      10.863   0.696  24.714  0.00  0.00    +0.047 C 
ATOM      6  C   UNL     1       9.176  -0.641  25.986  0.00  0.00    +0.007 A 
ATOM      7  C   UNL     1       8.159  -1.581  26.064  0.00  0.00    +0.001 A 
ATOM      8  C   UNL     1       7.735  -2.232  24.910  0.00  0.00    +0.007 A 
ENDROOT
BRANCH   3   9
ATOM      9  O   UNL     1      10.085  -0.670  22.467  0.00  0.00    -0.480 OA
BRANCH   9  10
ATOM     10  C   UNL     1       9.402  -0.163  21.323  0.00  0.00    +0.349 C 
BRANCH  10  11
ATOM     11  C   UNL     1       9.013   1.287  21.565  0.00  0.00    +0.343 C 
ATOM     12  O   UNL     1       7.867   1.662  21.769  0.00  0.00    -0.247 OA
BRANCH  11  13
ATOM     13  O   UNL     1      10.069   2.139  21.542  0.00  0.00    -0.478 OA
ATOM     14  H   UNL     1      10.814   1.741  22.042  0.00  0.00    +0.295 HD
ENDBRANCH  11  13
ENDBRANCH  10  11
ENDBRANCH   9  10
ENDBRANCH   3   9
TORSDOF 4
ENDMDL
MODEL 2
REMARK VINA RESULT:      -4.7      2.913      4.474
REMARK  Name = 
REMARK  6 active torsions:
REMARK  status: ('A' for Active; 'I' for Inactive)
REMARK    1  A    between atoms: C_1  and  C_2
REMARK    2  A    between atoms: C_6  and  C_7
REMARK    3  A    between atoms: C_8  and  O_9
REMARK    4  A    between atoms: O_9  and  C_10
REMARK    5  A    between atoms: C_10  and  C_11
REMARK    6  A    between atoms: C_11  and  O_12
REMARK                            x       y       z     vdW  Elec       q    Type
REMARK                         _______ _______ _______ _____ _____    ______ ____
ROOT
ATOM      1  C   UNL     1       6.622  -5.589  21.476  0.00  0.00    +0.047 C 
ATOM      2  C   UNL     1       6.483  -5.436  22.965  0.00  0.00    -0.009 A 
ATOM      3  C   UNL     1       7.365  -4.714  23.799  0.00  0.00    +0.127 A 
ATOM      4  C   UNL     1       7.150  -4.705  25.200  0.00  0.00    -0.009 A 
ATOM      5  C   UNL     1       8.060  -3.938  26.125  0.00  0.00    +0.047 C 
ATOM      6  C   UNL     1       6.071  -5.409  25.755  0.00  0.00    +0.007 A 
ATOM      7  C   UNL     1       5.200  -6.114  24.937  0.00  0.00    +0.001 A 
ATOM      8  C   UNL     1       5.403  -6.120  23.561  0.00  0.00    +0.007 A 
ENDROOT
BRANCH   3   9
ATOM      9  O   UNL     1       8.503  -4.046  23.421  0.00  0.00    -0.480 OA
BRANCH   9  10
ATOM     10  C   UNL     1       8.372  -2.785  22.770  0.00  0.00    +0.349 C 
BRANCH  10  11
ATOM     11  C   UNL     1       9.648  -1.980  22.960  0.00  0.00    +0.343 C 
ATOM     12  O   UNL     1      10.092  -1.651  24.050  0.00  0.00    -0.247 OA
BRANCH  11  13
ATOM     13  O   UNL     1      10.264  -1.664  21.793  0.00  0.00    -0.478 OA
ATOM     14  H   UNL     1       9.719  -1.989  21.043  0.00  0.00    +0.295 HD
ENDBRANCH  11  13
ENDBRANCH  10  11
ENDBRANCH   9  10
ENDBRANCH   3   9
TORSDOF 4
ENDMDL
MODEL 3
REMARK VINA RESULT:      -4.6      2.807      4.838
REMARK  Name = 
REMARK  6 active torsions:
REMARK  status: ('A' for Active; 'I' for Inactive)
REMARK    1  A    between atoms: C_1  and  C_2
REMARK    2  A    between atoms: C_6  and  C_7
REMARK    3  A    between atoms: C_8  and  O_9
REMARK    4  A    between atoms: O_9  and  C_10
REMARK    5  A    between atoms: C_10  and  C_11
REMARK    6  A    between atoms: C_11  and  O_12
REMARK                            x       y       z     vdW  Elec       q    Type
REMARK                         _______ _______ _______ _____ _____    ______ ____
ROOT
ATOM      1  C   UNL     1       8.225  -3.729  26.161  0.00  0.00    +0.047 C 
ATOM      2  C   UNL     1       7.356  -4.542  25.242  0.00  0.00    -0.009 A 
ATOM      3  C   UNL     1       7.526  -4.658  23.845  0.00  0.00    +0.127 A 
ATOM      4  C   UNL     1       6.592  -5.409  23.088  0.00  0.00    -0.009 A 
ATOM      5  C   UNL     1       6.743  -5.568  21.597  0.00  0.00    +0.047 C 
ATOM      6  C   UNL     1       5.507  -6.031  23.721  0.00  0.00    +0.007 A 
ATOM      7  C   UNL     1       5.340  -5.923  25.094  0.00  0.00    +0.001 A 
ATOM      8  C   UNL     1       6.258  -5.193  25.842  0.00  0.00    +0.007 A 
ENDROOT
BRANCH   3   9
ATOM      9  O   UNL     1       8.484  -4.048  23.074  0.00  0.00    -0.480 OA
BRANCH   9  10
ATOM     10  C   UNL     1       8.308  -2.678  22.720  0.00  0.00    +0.349 C 
BRANCH  10  11
ATOM     11  C   UNL     1       9.619  -1.932  22.907  0.00  0.00    +0.343 C 
ATOM     12  O   UNL     1      10.081  -1.624  23.997  0.00  0.00    -0.247 OA
BRANCH  11  13
ATOM     13  O   UNL     1      10.246  -1.643  21.739  0.00  0.00    -0.478 OA
ATOM     14  H   UNL     1      10.803  -0.844  21.862  0.00  0.00    +0.295 HD
ENDBRANCH  11  13
ENDBRANCH  10  11
ENDBRANCH   9  10
ENDBRANCH   3   9
TORSDOF 4
ENDMDL
MODEL 4
REMARK VINA RESULT:      -4.5      2.430      4.381
REMARK  Name = 
REMARK  6 active torsions:
REMARK  status: ('A' for Active; 'I' for Inactive)
REMARK    1  A    between atoms: C_1  and  C_2
REMARK    2  A    between atoms: C_6  and  C_7
REMARK    3  A    between atoms: C_8  and  O_9
REMARK    4  A    between atoms: O_9  and  C_10
REMARK    5  A    between atoms: C_10  and  C_11
REMARK    6  A    between atoms: C_11  and  O_12
REMARK                            x       y       z     vdW  Elec       q    Type
REMARK                         _______ _______ _______ _____ _____    ______ ____
ROOT
ATOM      1  C   UNL     1       9.511  -0.907  21.154  0.00  0.00    +0.047 C 
ATOM      2  C   UNL     1       9.588  -0.152  22.452  0.00  0.00    -0.009 A 
ATOM      3  C   UNL     1       9.296  -0.684  23.726  0.00  0.00    +0.127 A 
ATOM      4  C   UNL     1       9.348   0.161  24.864  0.00  0.00    -0.009 A 
ATOM      5  C   UNL     1       9.055  -0.369  26.244  0.00  0.00    +0.047 C 
ATOM      6  C   UNL     1       9.687   1.514  24.724  0.00  0.00    +0.007 A 
ATOM      7  C   UNL     1       9.980   2.038  23.474  0.00  0.00    +0.001 A 
ATOM      8  C   UNL     1       9.937   1.212  22.355  0.00  0.00    +0.007 A 
ENDROOT
BRANCH   3   9
ATOM      9  O   UNL     1       8.874  -1.958  24.016  0.00  0.00    -0.480 OA
BRANCH   9  10
ATOM     10  C   UNL     1       9.834  -3.011  24.028  0.00  0.00    +0.349 C 
BRANCH  10  11
ATOM     11  C   UNL     1       9.314  -4.163  24.872  0.00  0.00    +0.343 C 
ATOM     12  O   UNL     1       8.174  -4.230  25.309  0.00  0.00    -0.247 OA
BRANCH  11  13
ATOM     13  O   UNL     1      10.240  -5.130  25.093  0.00  0.00    -0.478 OA
ATOM     14  H   UNL     1      11.119  -4.807  24.798  0.00  0.00    +0.295 HD
ENDBRANCH  11  13
ENDBRANCH  10  11
ENDBRANCH   9  10
ENDBRANCH   3   9
TORSDOF 4
ENDMDL
MODEL 5
REMARK VINA RESULT:      -4.5      5.674      7.924
REMARK  Name = 
REMARK  6 active torsions:
REMARK  status: ('A' for Active; 'I' for Inactive)
REMARK    1  A    between atoms: C_1  and  C_2
REMARK    2  A    between atoms: C_6  and  C_7
REMARK    3  A    between atoms: C_8  and  O_9
REMARK    4  A    between atoms: O_9  and  C_10
REMARK    5  A    between atoms: C_10  and  C_11
REMARK    6  A    between atoms: C_11  and  O_12
REMARK                            x       y       z     vdW  Elec       q    Type
REMARK                         _______ _______ _______ _____ _____    ______ ____
ROOT
ATOM      1  C   UNL     1       9.214  -4.718  26.245  0.00  0.00    +0.047 C 
ATOM      2  C   UNL     1       8.045  -4.801  25.303  0.00  0.00    -0.009 A 
ATOM      3  C   UNL     1       6.829  -5.467  25.565  0.00  0.00    +0.127 A 
ATOM      4  C   UNL     1       5.832  -5.521  24.559  0.00  0.00    -0.009 A 
ATOM      5  C   UNL     1       4.514  -6.211  24.802  0.00  0.00    +0.047 C 
ATOM      6  C   UNL     1       6.052  -4.919  23.312  0.00  0.00    +0.007 A 
ATOM      7  C   UNL     1       7.244  -4.260  23.053  0.00  0.00    +0.001 A 
ATOM      8  C   UNL     1       8.224  -4.198  24.039  0.00  0.00    +0.007 A 
ENDROOT
BRANCH   3   9
ATOM      9  O   UNL     1       6.496  -6.167  26.698  0.00  0.00    -0.480 OA
BRANCH   9  10
ATOM     10  C   UNL     1       6.332  -5.454  27.921  0.00  0.00    +0.349 C 
BRANCH  10  11
ATOM     11  C   UNL     1       6.092  -6.438  29.055  0.00  0.00    +0.343 C 
ATOM     12  O   UNL     1       6.363  -6.211  30.226  0.00  0.00    -0.247 OA
BRANCH  11  13
ATOM     13  O   UNL     1       5.533  -7.604  28.646  0.00  0.00    -0.478 OA
ATOM     14  H   UNL     1       6.210  -8.314  28.678  0.00  0.00    +0.295 HD
ENDBRANCH  11  13
ENDBRANCH  10  11
ENDBRANCH   9  10
ENDBRANCH   3   9
TORSDOF 4
ENDMDL
MODEL 6
REMARK VINA RESULT:      -4.4      2.228      4.550
REMARK  Name = 
REMARK  6 active torsions:
REMARK  status: ('A' for Active; 'I' for Inactive)
REMARK    1  A    between atoms: C_1  and  C_2
REMARK    2  A    between atoms: C_6  and  C_7
REMARK    3  A    between atoms: C_8  and  O_9
REMARK    4  A    between atoms: O_9  and  C_10
REMARK    5  A    between atoms: C_10  and  C_11
REMARK    6  A    between atoms: C_11  and  O_12
REMARK                            x       y       z     vdW  Elec       q    Type
REMARK                         _______ _______ _______ _____ _____    ______ ____
ROOT
ATOM      1  C   UNL     1       7.905   1.218  25.918  0.00  0.00    +0.047 C 
ATOM      2  C   UNL     1       8.593   1.319  24.584  0.00  0.00    -0.009 A 
ATOM      3  C   UNL     1       8.757   0.259  23.666  0.00  0.00    +0.127 A 
ATOM      4  C   UNL     1       9.484   0.478  22.470  0.00  0.00    -0.009 A 
ATOM      5  C   UNL     1       9.673  -0.622  21.457  0.00  0.00    +0.047 C 
ATOM      6  C   UNL     1      10.039   1.738  22.200  0.00  0.00    +0.007 A 
ATOM      7  C   UNL     1       9.874   2.782  23.098  0.00  0.00    +0.001 A 
ATOM      8  C   UNL     1       9.156   2.574  24.270  0.00  0.00    +0.007 A 
ENDROOT
BRANCH   3   9
ATOM      9  O   UNL     1       8.347  -1.042  23.821  0.00  0.00    -0.480 OA
BRANCH   9  10
ATOM     10  C   UNL     1       9.063  -1.884  24.721  0.00  0.00    +0.349 C 
BRANCH  10  11
ATOM     11  C   UNL     1       9.148  -3.288  24.146  0.00  0.00    +0.343 C 
ATOM     12  O   UNL     1       9.950  -4.132  24.519  0.00  0.00    -0.247 OA
BRANCH  11  13
ATOM     13  O   UNL     1       8.235  -3.527  23.172  0.00  0.00    -0.478 OA
ATOM     14  H   UNL     1       7.644  -2.748  23.086  0.00  0.00    +0.295 HD
ENDBRANCH  11  13
ENDBRANCH  10  11
ENDBRANCH   9  10
ENDBRANCH   3   9
TORSDOF 4
ENDMDL
MODEL 7
REMARK VINA RESULT:      -4.4      1.563      2.722
REMARK  Name = 
REMARK  6 active torsions:
REMARK  status: ('A' for Active; 'I' for Inactive)
REMARK    1  A    between atoms: C_1  and  C_2
REMARK    2  A    between atoms: C_6  and  C_7
REMARK    3  A    between atoms: C_8  and  O_9
REMARK    4  A    between atoms: O_9  and  C_10
REMARK    5  A    between atoms: C_10  and  C_11
REMARK    6  A    between atoms: C_11  and  O_12
REMARK                            x       y       z     vdW  Elec       q    Type
REMARK                         _______ _______ _______ _____ _____    ______ ____
ROOT
ATOM      1  C   UNL     1       7.912   0.079  26.612  0.00  0.00    +0.047 C 
ATOM      2  C   UNL     1       8.517  -0.945  25.692  0.00  0.00    -0.009 A 
ATOM      3  C   UNL     1       9.087  -0.675  24.429  0.00  0.00    +0.127 A 
ATOM      4  C   UNL     1       9.565  -1.748  23.636  0.00  0.00    -0.009 A 
ATOM      5  C   UNL     1      10.193  -1.503  22.287  0.00  0.00    +0.047 C 
ATOM      6  C   UNL     1       9.471  -3.068  24.100  0.00  0.00    +0.007 A 
ATOM      7  C   UNL     1       8.915  -3.335  25.342  0.00  0.00    +0.001 A 
ATOM      8  C   UNL     1       8.451  -2.286  26.128  0.00  0.00    +0.007 A 
ENDROOT
BRANCH   3   9
ATOM      9  O   UNL     1       9.179   0.544  23.805  0.00  0.00    -0.480 OA
BRANCH   9  10
ATOM     10  C   UNL     1      10.286   1.388  24.111  0.00  0.00    +0.349 C 
BRANCH  10  11
ATOM     11  C   UNL     1      10.294   2.578  23.165  0.00  0.00    +0.343 C 
ATOM     12  O   UNL     1      10.393   3.741  23.530  0.00  0.00    -0.247 OA
BRANCH  11  13
ATOM     13  O   UNL     1      10.191   2.228  21.859  0.00  0.00    -0.478 OA
ATOM     14  H   UNL     1      10.153   1.250  21.789  0.00  0.00    +0.295 HD
ENDBRANCH  11  13
ENDBRANCH  10  11
ENDBRANCH   9  10
ENDBRANCH   3   9
TORSDOF 4
ENDMDL
MODEL 8
REMARK VINA RESULT:      -4.3      4.856      6.386
REMARK  Name = 
REMARK  6 active torsions:
REMARK  status: ('A' for Active; 'I' for Inactive)
REMARK    1  A    between atoms: C_1  and  C_2
REMARK    2  A    between atoms: C_6  and  C_7
REMARK    3  A    between atoms: C_8  and  O_9
REMARK    4  A    between atoms: O_9  and  C_10
REMARK    5  A    between atoms: C_10  and  C_11
REMARK    6  A    between atoms: C_11  and  O_12
REMARK                            x       y       z     vdW  Elec       q    Type
REMARK                         _______ _______ _______ _____ _____    ______ ____
ROOT
ATOM      1  C   UNL     1       5.565  -6.049  26.592  0.00  0.00    +0.047 C 
ATOM      2  C   UNL     1       6.726  -5.275  26.032  0.00  0.00    -0.009 A 
ATOM      3  C   UNL     1       6.750  -4.631  24.777  0.00  0.00    +0.127 A 
ATOM      4  C   UNL     1       7.938  -3.989  24.345  0.00  0.00    -0.009 A 
ATOM      5  C   UNL     1       8.003  -3.279  23.016  0.00  0.00    +0.047 C 
ATOM      6  C   UNL     1       9.080  -3.993  25.157  0.00  0.00    +0.007 A 
ATOM      7  C   UNL     1       9.057  -4.621  26.394  0.00  0.00    +0.001 A 
ATOM      8  C   UNL     1       7.892  -5.247  26.826  0.00  0.00    +0.007 A 
ENDROOT
BRANCH   3   9
ATOM      9  O   UNL     1       5.748  -4.607  23.838  0.00  0.00    -0.480 OA
BRANCH   9  10
ATOM     10  C   UNL     1       5.501  -5.782  23.070  0.00  0.00    +0.349 C 
BRANCH  10  11
ATOM     11  C   UNL     1       4.042  -6.185  23.213  0.00  0.00    +0.343 C 
ATOM     12  O   UNL     1       3.101  -5.480  22.877  0.00  0.00    -0.247 OA
BRANCH  11  13
ATOM     13  O   UNL     1       3.876  -7.420  23.749  0.00  0.00    -0.478 OA
ATOM     14  H   UNL     1       4.567  -7.573  24.429  0.00  0.00    +0.295 HD
ENDBRANCH  11  13
ENDBRANCH  10  11
ENDBRANCH   9  10
ENDBRANCH   3   9
TORSDOF 4
ENDMDL
MODEL 9
REMARK VINA RESULT:      -4.3      4.804      6.102
REMARK  Name = 
REMARK  6 active torsions:
REMARK  status: ('A' for Active; 'I' for Inactive)
REMARK    1  A    between atoms: C_1  and  C_2
REMARK    2  A    between atoms: C_6  and  C_7
REMARK    3  A    between atoms: C_8  and  O_9
REMARK    4  A    between atoms: O_9  and  C_10
REMARK    5  A    between atoms: C_10  and  C_11
REMARK    6  A    between atoms: C_11  and  O_12
REMARK                            x       y       z     vdW  Elec       q    Type
REMARK                         _______ _______ _______ _____ _____    ______ ____
ROOT
ATOM      1  C   UNL     1       7.315  -5.641  22.252  0.00  0.00    +0.047 C 
ATOM      2  C   UNL     1       6.118  -5.181  23.037  0.00  0.00    -0.009 A 
ATOM      3  C   UNL     1       6.158  -4.363  24.186  0.00  0.00    +0.127 A 
ATOM      4  C   UNL     1       4.953  -4.057  24.868  0.00  0.00    -0.009 A 
ATOM      5  C   UNL     1       4.950  -3.177  26.092  0.00  0.00    +0.047 C 
ATOM      6  C   UNL     1       3.731  -4.564  24.405  0.00  0.00    +0.007 A 
ATOM      7  C   UNL     1       3.688  -5.364  23.273  0.00  0.00    +0.001 A 
ATOM      8  C   UNL     1       4.866  -5.662  22.596  0.00  0.00    +0.007 A 
ENDROOT
BRANCH   3   9
ATOM      9  O   UNL     1       7.274  -3.858  24.805  0.00  0.00    -0.480 OA
BRANCH   9  10
ATOM     10  C   UNL     1       8.054  -4.725  25.625  0.00  0.00    +0.349 C 
BRANCH  10  11
ATOM     11  C   UNL     1       9.499  -4.708  25.153  0.00  0.00    +0.343 C 
ATOM     12  O   UNL     1       9.962  -3.863  24.401  0.00  0.00    -0.247 OA
BRANCH  11  13
ATOM     13  O   UNL     1      10.242  -5.725  25.658  0.00  0.00    -0.478 OA
ATOM     14  H   UNL     1      10.731  -5.406  26.447  0.00  0.00    +0.295 HD
ENDBRANCH  11  13
ENDBRANCH  10  11
ENDBRANCH   9  10
ENDBRANCH   3   9
TORSDOF 4
ENDMDL
