MODEL 1
REMARK VINA RESULT:      -6.5      0.000      0.000
REMARK  Name = 
REMARK  11 active torsions:
REMARK  status: ('A' for Active; 'I' for Inactive)
REMARK    1  A    between atoms: O_1  and  C_2
REMARK    2  A    between atoms: C_2  and  C_3
REMARK    3  A    between atoms: N_5  and  C_6
REMARK    4  A    between atoms: C_9  and  O_11
REMARK    5  A    between atoms: C_12  and  C_14
REMARK    6  A    between atoms: C_14  and  O_15
REMARK    7  A    between atoms: O_15  and  P_16
REMARK    8  A    between atoms: P_16  and  O_17
REMARK    9  A    between atoms: P_16  and  O_18
REMARK   10  A    between atoms: C_21  and  O_22
REMARK   11  A    between atoms: C_24  and  O_25
REMARK                            x       y       z     vdW  Elec       q    Type
REMARK                         _______ _______ _______ _____ _____    ______ ____
ROOT
ATOM      1  C   UNL     1       8.716  -2.251  24.072  0.00  0.00    +0.195 C 
ATOM      2  O   UNL     1       7.737  -2.301  25.128  0.00  0.00    -0.353 OA
ATOM      3  C   UNL     1       7.763  -3.631  25.700  0.00  0.00    +0.175 C 
ATOM      4  C   UNL     1       8.890  -4.398  25.002  0.00  0.00    +0.149 C 
ATOM      5  C   UNL     1       9.764  -3.282  24.469  0.00  0.00    +0.082 C 
ENDROOT
BRANCH   1  11
ATOM      6  C   UNL     1       8.514   1.391  23.064  0.00  0.00    +0.072 C 
ATOM      7  C   UNL     1       9.506   1.913  24.102  0.00  0.00    +0.192 C 
ATOM      8  N   UNL     1      10.542   0.953  24.425  0.00  0.00    -0.253 NA
ATOM      9  H   UNL     1      11.102   0.784  23.597  0.00  0.00    +0.128 HD
ATOM     10  C   UNL     1      10.026  -0.329  24.844  0.00  0.00    +0.264 C 
ATOM     11  N   UNL     1       9.189  -0.892  23.808  0.00  0.00    -0.239 NA
ATOM     12  C   UNL     1       8.049  -0.006  23.489  0.00  0.00    +0.100 C 
BRANCH   7  13
ATOM     13  O   UNL     1       8.824   2.300  25.280  0.00  0.00    -0.377 OA
ATOM     14  H   UNL     1       8.441   1.460  25.605  0.00  0.00    +0.211 HD
ENDBRANCH   7  13
BRANCH  10  15
ATOM     15  O   UNL     1       9.378  -0.199  26.081  0.00  0.00    -0.364 OA
ATOM     16  H   UNL     1       8.438  -0.348  25.873  0.00  0.00    +0.213 HD
ENDBRANCH  10  15
BRANCH   6  17
ATOM     17  C   UNL     1       9.125   1.393  21.656  0.00  0.00    +0.164 C 
BRANCH  17  18
ATOM     18  O   UNL     1      10.237   2.283  21.607  0.00  0.00    -0.395 OA
ATOM     19  H   UNL     1      10.444   2.533  22.524  0.00  0.00    +0.209 HD
ENDBRANCH  17  18
ENDBRANCH   6  17
ENDBRANCH   1  11
BRANCH   4  20
ATOM     20  O   UNL     1       9.620  -5.247  25.874  0.00  0.00    -0.389 OA
ATOM     21  H   UNL     1       9.439  -4.989  26.794  0.00  0.00    +0.210 HD
ENDBRANCH   4  20
BRANCH   3  22
ATOM     22  C   UNL     1       6.394  -4.290  25.532  0.00  0.00    +0.206 C 
BRANCH  22  23
ATOM     23  O   UNL     1       6.362  -5.597  26.106  0.00  0.00    -0.284 OA
BRANCH  23  24
ATOM     24  P   UNL     1       6.221  -5.528  27.828  0.00  0.00    +0.472 P 
ATOM     25  O   UNL     1       6.095  -5.467  29.370  0.00  0.00    -0.228 OA
BRANCH  24  26
ATOM     26  O   UNL     1       7.722  -6.185  27.829  0.00  0.00    -0.303 OA
ATOM     27  H   UNL     1       7.704  -7.113  28.122  0.00  0.00    +0.222 HD
ENDBRANCH  24  26
BRANCH  24  28
ATOM     28  O   UNL     1       5.473  -6.975  27.662  0.00  0.00    -0.303 OA
ATOM     29  H   UNL     1       6.082  -7.629  28.057  0.00  0.00    +0.222 HD
ENDBRANCH  24  28
ENDBRANCH  23  24
ENDBRANCH  22  23
ENDBRANCH   3  22
TORSDOF 11
ENDMDL
MODEL 2
REMARK VINA RESULT:      -6.3      1.572      2.497
REMARK  Name = 
REMARK  11 active torsions:
REMARK  status: ('A' for Active; 'I' for Inactive)
REMARK    1  A    between atoms: O_1  and  C_2
REMARK    2  A    between atoms: C_2  and  C_3
REMARK    3  A    between atoms: N_5  and  C_6
REMARK    4  A    between atoms: C_9  and  O_11
REMARK    5  A    between atoms: C_12  and  C_14
REMARK    6  A    between atoms: C_14  and  O_15
REMARK    7  A    between atoms: O_15  and  P_16
REMARK    8  A    between atoms: P_16  and  O_17
REMARK    9  A    between atoms: P_16  and  O_18
REMARK   10  A    between atoms: C_21  and  O_22
REMARK   11  A    between atoms: C_24  and  O_25
REMARK                            x       y       z     vdW  Elec       q    Type
REMARK                         _______ _______ _______ _____ _____    ______ ____
ROOT
ATOM      1  C   UNL     1       8.234  -2.913  24.745  0.00  0.00    +0.195 C 
ATOM      2  O   UNL     1       8.066  -2.924  26.176  0.00  0.00    -0.353 OA
ATOM      3  C   UNL     1       8.276  -4.279  26.642  0.00  0.00    +0.175 C 
ATOM      4  C   UNL     1       8.683  -5.114  25.424  0.00  0.00    +0.149 C 
ATOM      5  C   UNL     1       9.194  -4.063  24.461  0.00  0.00    +0.082 C 
ENDROOT
BRANCH   1  11
ATOM      6  C   UNL     1      10.494  -0.195  23.394  0.00  0.00    +0.072 C 
ATOM      7  C   UNL     1       9.485   0.394  22.408  0.00  0.00    +0.192 C 
ATOM      8  N   UNL     1       8.116   0.277  22.866  0.00  0.00    -0.253 NA
ATOM      9  H   UNL     1       8.004   0.829  23.709  0.00  0.00    +0.128 HD
ATOM     10  C   UNL     1       7.736  -1.074  23.203  0.00  0.00    +0.264 C 
ATOM     11  N   UNL     1       8.607  -1.595  24.233  0.00  0.00    -0.239 NA
ATOM     12  C   UNL     1      10.021  -1.596  23.800  0.00  0.00    +0.100 C 
BRANCH   7  13
ATOM     13  O   UNL     1       9.623  -0.219  21.140  0.00  0.00    -0.377 OA
ATOM     14  H   UNL     1       9.683   0.542  20.528  0.00  0.00    +0.211 HD
ENDBRANCH   7  13
BRANCH  10  15
ATOM     15  O   UNL     1       7.705  -1.862  22.043  0.00  0.00    -0.364 OA
ATOM     16  H   UNL     1       7.009  -2.521  22.222  0.00  0.00    +0.213 HD
ENDBRANCH  10  15
BRANCH   6  17
ATOM     17  C   UNL     1      10.692   0.722  24.607  0.00  0.00    +0.164 C 
BRANCH  17  18
ATOM     18  O   UNL     1       9.457   0.895  25.296  0.00  0.00    -0.395 OA
ATOM     19  H   UNL     1       9.608   1.554  25.995  0.00  0.00    +0.209 HD
ENDBRANCH  17  18
ENDBRANCH   6  17
ENDBRANCH   1  11
BRANCH   4  20
ATOM     20  O   UNL     1       9.687  -6.076  25.709  0.00  0.00    -0.389 OA
ATOM     21  H   UNL     1      10.149  -5.821  26.527  0.00  0.00    +0.210 HD
ENDBRANCH   4  20
BRANCH   3  22
ATOM     22  C   UNL     1       7.008  -4.791  27.324  0.00  0.00    +0.206 C 
BRANCH  22  23
ATOM     23  O   UNL     1       7.212  -6.066  27.932  0.00  0.00    -0.284 OA
BRANCH  23  24
ATOM     24  P   UNL     1       5.933  -6.458  29.029  0.00  0.00    +0.472 P 
ATOM     25  O   UNL     1       4.789  -6.808  30.011  0.00  0.00    -0.228 OA
BRANCH  24  26
ATOM     26  O   UNL     1       6.916  -7.679  29.505  0.00  0.00    -0.303 OA
ATOM     27  H   UNL     1       7.840  -7.383  29.581  0.00  0.00    +0.222 HD
ENDBRANCH  24  26
BRANCH  24  28
ATOM     28  O   UNL     1       5.325  -7.301  27.764  0.00  0.00    -0.303 OA
ATOM     29  H   UNL     1       4.362  -7.138  27.782  0.00  0.00    +0.222 HD
ENDBRANCH  24  28
ENDBRANCH  23  24
ENDBRANCH  22  23
ENDBRANCH   3  22
TORSDOF 11
ENDMDL
MODEL 3
REMARK VINA RESULT:      -6.3      2.549      3.442
REMARK  Name = 
REMARK  11 active torsions:
REMARK  status: ('A' for Active; 'I' for Inactive)
REMARK    1  A    between atoms: O_1  and  C_2
REMARK    2  A    between atoms: C_2  and  C_3
REMARK    3  A    between atoms: N_5  and  C_6
REMARK    4  A    between atoms: C_9  and  O_11
REMARK    5  A    between atoms: C_12  and  C_14
REMARK    6  A    between atoms: C_14  and  O_15
REMARK    7  A    between atoms: O_15  and  P_16
REMARK    8  A    between atoms: P_16  and  O_17
REMARK    9  A    between atoms: P_16  and  O_18
REMARK   10  A    between atoms: C_21  and  O_22
REMARK   11  A    between atoms: C_24  and  O_25
REMARK                            x       y       z     vdW  Elec       q    Type
REMARK                         _______ _______ _______ _____ _____    ______ ____
ROOT
ATOM      1  C   UNL     1       7.290  -2.204  23.042  0.00  0.00    +0.195 C 
ATOM      2  O   UNL     1       7.908  -3.360  22.445  0.00  0.00    -0.353 OA
ATOM      3  C   UNL     1       6.951  -4.447  22.478  0.00  0.00    +0.175 C 
ATOM      4  C   UNL     1       5.647  -3.880  23.049  0.00  0.00    +0.149 C 
ATOM      5  C   UNL     1       5.798  -2.395  22.796  0.00  0.00    +0.082 C 
ENDROOT
BRANCH   1  11
ATOM      6  C   UNL     1       8.350   1.426  23.182  0.00  0.00    +0.072 C 
ATOM      7  C   UNL     1       9.674   1.248  22.440  0.00  0.00    +0.192 C 
ATOM      8  N   UNL     1       9.629   0.189  21.452  0.00  0.00    -0.253 NA
ATOM      9  H   UNL     1       8.961   0.442  20.732  0.00  0.00    +0.128 HD
ATOM     10  C   UNL     1       9.196  -1.079  21.989  0.00  0.00    +0.264 C 
ATOM     11  N   UNL     1       7.883  -0.949  22.580  0.00  0.00    -0.239 NA
ATOM     12  C   UNL     1       7.872   0.053  23.667  0.00  0.00    +0.100 C 
BRANCH   7  13
ATOM     13  O   UNL     1      10.723   1.005  23.358  0.00  0.00    -0.377 OA
ATOM     14  H   UNL     1      11.414   1.642  23.085  0.00  0.00    +0.211 HD
ENDBRANCH   7  13
BRANCH  10  15
ATOM     15  O   UNL     1      10.163  -1.573  22.876  0.00  0.00    -0.364 OA
ATOM     16  H   UNL     1       9.774  -2.399  23.216  0.00  0.00    +0.213 HD
ENDBRANCH  10  15
BRANCH   6  17
ATOM     17  C   UNL     1       7.305   2.125  22.303  0.00  0.00    +0.164 C 
BRANCH  17  18
ATOM     18  O   UNL     1       6.049   1.462  22.419  0.00  0.00    -0.395 OA
ATOM     19  H   UNL     1       5.601   1.831  23.200  0.00  0.00    +0.209 HD
ENDBRANCH  17  18
ENDBRANCH   6  17
ENDBRANCH   1  11
BRANCH   4  20
ATOM     20  O   UNL     1       4.485  -4.391  22.416  0.00  0.00    -0.389 OA
ATOM     21  H   UNL     1       4.736  -5.134  21.841  0.00  0.00    +0.210 HD
ENDBRANCH   4  20
BRANCH   3  22
ATOM     22  C   UNL     1       7.515  -5.604  23.302  0.00  0.00    +0.206 C 
BRANCH  22  23
ATOM     23  O   UNL     1       8.830  -5.322  23.780  0.00  0.00    -0.284 OA
BRANCH  23  24
ATOM     24  P   UNL     1       8.830  -4.985  25.476  0.00  0.00    +0.472 P 
ATOM     25  O   UNL     1       8.829  -4.683  26.994  0.00  0.00    -0.228 OA
BRANCH  24  26
ATOM     26  O   UNL     1       9.427  -3.524  25.035  0.00  0.00    -0.303 OA
ATOM     27  H   UNL     1       8.715  -2.909  24.789  0.00  0.00    +0.222 HD
ENDBRANCH  24  26
BRANCH  24  28
ATOM     28  O   UNL     1      10.298  -5.709  25.455  0.00  0.00    -0.303 OA
ATOM     29  H   UNL     1      10.298  -6.273  24.658  0.00  0.00    +0.222 HD
ENDBRANCH  24  28
ENDBRANCH  23  24
ENDBRANCH  22  23
ENDBRANCH   3  22
TORSDOF 11
ENDMDL
MODEL 4
REMARK VINA RESULT:      -6.1      2.160      2.947
REMARK  Name = 
REMARK  11 active torsions:
REMARK  status: ('A' for Active; 'I' for Inactive)
REMARK    1  A    between atoms: O_1  and  C_2
REMARK    2  A    between atoms: C_2  and  C_3
REMARK    3  A    between atoms: N_5  and  C_6
REMARK    4  A    between atoms: C_9  and  O_11
REMARK    5  A    between atoms: C_12  and  C_14
REMARK    6  A    between atoms: C_14  and  O_15
REMARK    7  A    between atoms: O_15  and  P_16
REMARK    8  A    between atoms: P_16  and  O_17
REMARK    9  A    between atoms: P_16  and  O_18
REMARK   10  A    between atoms: C_21  and  O_22
REMARK   11  A    between atoms: C_24  and  O_25
REMARK                            x       y       z     vdW  Elec       q    Type
REMARK                         _______ _______ _______ _____ _____    ______ ____
ROOT
ATOM      1  C   UNL     1       8.792  -2.387  23.864  0.00  0.00    +0.195 C 
ATOM      2  O   UNL     1       7.613  -2.480  24.688  0.00  0.00    -0.353 OA
ATOM      3  C   UNL     1       7.576  -3.806  25.269  0.00  0.00    +0.175 C 
ATOM      4  C   UNL     1       8.860  -4.522  24.837  0.00  0.00    +0.149 C 
ATOM      5  C   UNL     1       9.777  -3.367  24.489  0.00  0.00    +0.082 C 
ENDROOT
BRANCH   1  11
ATOM      6  C   UNL     1       8.561   1.297  23.030  0.00  0.00    +0.072 C 
ATOM      7  C   UNL     1       9.495   1.783  24.138  0.00  0.00    +0.192 C 
ATOM      8  N   UNL     1      10.535   0.827  24.459  0.00  0.00    -0.253 NA
ATOM      9  H   UNL     1      11.134   0.711  23.649  0.00  0.00    +0.128 HD
ATOM     10  C   UNL     1      10.028  -0.483  24.789  0.00  0.00    +0.264 C 
ATOM     11  N   UNL     1       9.248  -1.008  23.690  0.00  0.00    -0.239 NA
ATOM     12  C   UNL     1       8.106  -0.128  23.365  0.00  0.00    +0.100 C 
BRANCH   7  13
ATOM     13  O   UNL     1       8.754   2.098  25.302  0.00  0.00    -0.377 OA
ATOM     14  H   UNL     1       8.103   2.756  24.983  0.00  0.00    +0.211 HD
ENDBRANCH   7  13
BRANCH  10  15
ATOM     15  O   UNL     1       9.323  -0.428  26.000  0.00  0.00    -0.364 OA
ATOM     16  H   UNL     1       9.259  -1.359  26.280  0.00  0.00    +0.213 HD
ENDBRANCH  10  15
BRANCH   6  17
ATOM     17  C   UNL     1       9.233   1.381  21.654  0.00  0.00    +0.164 C 
BRANCH  17  18
ATOM     18  O   UNL     1      10.315   2.307  21.694  0.00  0.00    -0.395 OA
ATOM     19  H   UNL     1      11.091   1.859  21.316  0.00  0.00    +0.209 HD
ENDBRANCH  17  18
ENDBRANCH   6  17
ENDBRANCH   1  11
BRANCH   4  20
ATOM     20  O   UNL     1       9.424  -5.332  25.856  0.00  0.00    -0.389 OA
ATOM     21  H   UNL     1       9.638  -6.206  25.486  0.00  0.00    +0.210 HD
ENDBRANCH   4  20
BRANCH   3  22
ATOM     22  C   UNL     1       6.306  -4.529  24.821  0.00  0.00    +0.206 C 
BRANCH  22  23
ATOM     23  O   UNL     1       6.578  -5.495  23.806  0.00  0.00    -0.284 OA
BRANCH  23  24
ATOM     24  P   UNL     1       6.120  -4.916  22.241  0.00  0.00    +0.472 P 
ATOM     25  O   UNL     1       5.711  -4.398  20.841  0.00  0.00    -0.228 OA
BRANCH  24  26
ATOM     26  O   UNL     1       5.094  -6.193  22.232  0.00  0.00    -0.303 OA
ATOM     27  H   UNL     1       4.167  -5.905  22.304  0.00  0.00    +0.222 HD
ENDBRANCH  24  26
BRANCH  24  28
ATOM     28  O   UNL     1       7.394  -5.803  21.720  0.00  0.00    -0.303 OA
ATOM     29  H   UNL     1       8.016  -5.832  22.473  0.00  0.00    +0.222 HD
ENDBRANCH  24  28
ENDBRANCH  23  24
ENDBRANCH  22  23
ENDBRANCH   3  22
TORSDOF 11
ENDMDL
MODEL 5
REMARK VINA RESULT:      -6.1      1.873      2.471
REMARK  Name = 
REMARK  11 active torsions:
REMARK  status: ('A' for Active; 'I' for Inactive)
REMARK    1  A    between atoms: O_1  and  C_2
REMARK    2  A    between atoms: C_2  and  C_3
REMARK    3  A    between atoms: N_5  and  C_6
REMARK    4  A    between atoms: C_9  and  O_11
REMARK    5  A    between atoms: C_12  and  C_14
REMARK    6  A    between atoms: C_14  and  O_15
REMARK    7  A    between atoms: O_15  and  P_16
REMARK    8  A    between atoms: P_16  and  O_17
REMARK    9  A    between atoms: P_16  and  O_18
REMARK   10  A    between atoms: C_21  and  O_22
REMARK   11  A    between atoms: C_24  and  O_25
REMARK                            x       y       z     vdW  Elec       q    Type
REMARK                         _______ _______ _______ _____ _____    ______ ____
ROOT
ATOM      1  C   UNL     1       6.803  -2.942  23.762  0.00  0.00    +0.195 C 
ATOM      2  O   UNL     1       7.049  -4.073  24.620  0.00  0.00    -0.353 OA
ATOM      3  C   UNL     1       6.054  -5.084  24.326  0.00  0.00    +0.175 C 
ATOM      4  C   UNL     1       5.216  -4.561  23.156  0.00  0.00    +0.149 C 
ATOM      5  C   UNL     1       6.134  -3.534  22.527  0.00  0.00    +0.082 C 
ENDROOT
BRANCH   1  11
ATOM      6  C   UNL     1       8.843   0.116  22.866  0.00  0.00    +0.072 C 
ATOM      7  C   UNL     1       9.925  -0.081  23.927  0.00  0.00    +0.192 C 
ATOM      8  N   UNL     1      10.173  -1.476  24.227  0.00  0.00    -0.253 NA
ATOM      9  H   UNL     1      10.540  -1.929  23.397  0.00  0.00    +0.128 HD
ATOM     10  C   UNL     1       8.983  -2.203  24.602  0.00  0.00    +0.264 C 
ATOM     11  N   UNL     1       8.000  -2.131  23.544  0.00  0.00    -0.239 NA
ATOM     12  C   UNL     1       7.624  -0.734  23.245  0.00  0.00    +0.100 C 
BRANCH   7  13
ATOM     13  O   UNL     1       9.582   0.613  25.112  0.00  0.00    -0.377 OA
ATOM     14  H   UNL     1      10.320   0.402  25.718  0.00  0.00    +0.211 HD
ENDBRANCH   7  13
BRANCH  10  15
ATOM     15  O   UNL     1       8.512  -1.737  25.838  0.00  0.00    -0.364 OA
ATOM     16  H   UNL     1       7.542  -1.772  25.751  0.00  0.00    +0.213 HD
ENDBRANCH  10  15
BRANCH   6  17
ATOM     17  C   UNL     1       9.367  -0.218  21.463  0.00  0.00    +0.164 C 
BRANCH  17  18
ATOM     18  O   UNL     1       9.885  -1.545  21.440  0.00  0.00    -0.395 OA
ATOM     19  H   UNL     1      10.790  -1.506  21.797  0.00  0.00    +0.209 HD
ENDBRANCH  17  18
ENDBRANCH   6  17
ENDBRANCH   1  11
BRANCH   4  20
ATOM     20  O   UNL     1       4.861  -5.569  22.221  0.00  0.00    -0.389 OA
ATOM     21  H   UNL     1       5.426  -6.348  22.363  0.00  0.00    +0.210 HD
ENDBRANCH   4  20
BRANCH   3  22
ATOM     22  C   UNL     1       5.226  -5.371  25.578  0.00  0.00    +0.206 C 
BRANCH  22  23
ATOM     23  O   UNL     1       5.818  -6.391  26.381  0.00  0.00    -0.284 OA
BRANCH  23  24
ATOM     24  P   UNL     1       5.937  -5.905  28.037  0.00  0.00    +0.472 P 
ATOM     25  O   UNL     1       6.044  -5.469  29.518  0.00  0.00    -0.228 OA
BRANCH  24  26
ATOM     26  O   UNL     1       7.547  -6.138  27.835  0.00  0.00    -0.303 OA
ATOM     27  H   UNL     1       7.987  -5.327  27.526  0.00  0.00    +0.222 HD
ENDBRANCH  24  26
BRANCH  24  28
ATOM     28  O   UNL     1       5.642  -7.484  28.353  0.00  0.00    -0.303 OA
ATOM     29  H   UNL     1       6.463  -7.826  28.756  0.00  0.00    +0.222 HD
ENDBRANCH  24  28
ENDBRANCH  23  24
ENDBRANCH  22  23
ENDBRANCH   3  22
TORSDOF 11
ENDMDL
MODEL 6
REMARK VINA RESULT:      -6.0      3.294      7.691
REMARK  Name = 
REMARK  11 active torsions:
REMARK  status: ('A' for Active; 'I' for Inactive)
REMARK    1  A    between atoms: O_1  and  C_2
REMARK    2  A    between atoms: C_2  and  C_3
REMARK    3  A    between atoms: N_5  and  C_6
REMARK    4  A    between atoms: C_9  and  O_11
REMARK    5  A    between atoms: C_12  and  C_14
REMARK    6  A    between atoms: C_14  and  O_15
REMARK    7  A    between atoms: O_15  and  P_16
REMARK    8  A    between atoms: P_16  and  O_17
REMARK    9  A    between atoms: P_16  and  O_18
REMARK   10  A    between atoms: C_21  and  O_22
REMARK   11  A    between atoms: C_24  and  O_25
REMARK                            x       y       z     vdW  Elec       q    Type
REMARK                         _______ _______ _______ _____ _____    ______ ____
ROOT
ATOM      1  C   UNL     1       9.576  -0.856  23.592  0.00  0.00    +0.195 C 
ATOM      2  O   UNL     1       8.655   0.065  24.208  0.00  0.00    -0.353 OA
ATOM      3  C   UNL     1       8.784   1.342  23.538  0.00  0.00    +0.175 C 
ATOM      4  C   UNL     1       9.780   1.149  22.390  0.00  0.00    +0.149 C 
ATOM      5  C   UNL     1       9.733  -0.348  22.164  0.00  0.00    +0.082 C 
ENDROOT
BRANCH   1  11
ATOM      6  C   UNL     1       8.540  -4.006  25.416  0.00  0.00    +0.072 C 
ATOM      7  C   UNL     1       7.531  -4.485  24.374  0.00  0.00    +0.192 C 
ATOM      8  N   UNL     1       7.892  -4.106  23.023  0.00  0.00    -0.253 NA
ATOM      9  H   UNL     1       8.759  -4.570  22.774  0.00  0.00    +0.128 HD
ATOM     10  C   UNL     1       8.121  -2.690  22.866  0.00  0.00    +0.264 C 
ATOM     11  N   UNL     1       9.171  -2.252  23.759  0.00  0.00    -0.239 NA
ATOM     12  C   UNL     1       8.829  -2.521  25.172  0.00  0.00    +0.100 C 
BRANCH   7  13
ATOM     13  O   UNL     1       6.239  -3.996  24.682  0.00  0.00    -0.377 OA
ATOM     14  H   UNL     1       6.024  -4.443  25.526  0.00  0.00    +0.211 HD
ENDBRANCH   7  13
BRANCH  10  15
ATOM     15  O   UNL     1       6.916  -1.992  23.032  0.00  0.00    -0.364 OA
ATOM     16  H   UNL     1       6.473  -2.074  22.168  0.00  0.00    +0.213 HD
ENDBRANCH  10  15
BRANCH   6  17
ATOM     17  C   UNL     1       9.818  -4.856  25.389  0.00  0.00    +0.164 C 
BRANCH  17  18
ATOM     18  O   UNL     1       9.618  -6.013  24.583  0.00  0.00    -0.395 OA
ATOM     19  H   UNL     1       9.971  -6.772  25.078  0.00  0.00    +0.209 HD
ENDBRANCH  17  18
ENDBRANCH   6  17
ENDBRANCH   1  11
BRANCH   4  20
ATOM     20  O   UNL     1       9.426   1.855  21.211  0.00  0.00    -0.389 OA
ATOM     21  H   UNL     1      10.232   2.048  20.702  0.00  0.00    +0.210 HD
ENDBRANCH   4  20
BRANCH   3  22
ATOM     22  C   UNL     1       9.224   2.408  24.542  0.00  0.00    +0.206 C 
BRANCH  22  23
ATOM     23  O   UNL     1       9.924   3.477  23.906  0.00  0.00    -0.284 OA
BRANCH  23  24
ATOM     24  P   UNL     1       9.013   4.947  23.953  0.00  0.00    +0.472 P 
ATOM     25  O   UNL     1       8.197   6.262  23.995  0.00  0.00    -0.228 OA
BRANCH  24  26
ATOM     26  O   UNL     1       8.416   4.449  22.510  0.00  0.00    -0.303 OA
ATOM     27  H   UNL     1       8.285   3.485  22.493  0.00  0.00    +0.222 HD
ENDBRANCH  24  26
BRANCH  24  28
ATOM     28  O   UNL     1      10.355   5.609  23.288  0.00  0.00    -0.303 OA
ATOM     29  H   UNL     1      10.043   6.089  22.497  0.00  0.00    +0.222 HD
ENDBRANCH  24  28
ENDBRANCH  23  24
ENDBRANCH  22  23
ENDBRANCH   3  22
TORSDOF 11
ENDMDL
MODEL 7
REMARK VINA RESULT:      -6.0      3.732      4.572
REMARK  Name = 
REMARK  11 active torsions:
REMARK  status: ('A' for Active; 'I' for Inactive)
REMARK    1  A    between atoms: O_1  and  C_2
REMARK    2  A    between atoms: C_2  and  C_3
REMARK    3  A    between atoms: N_5  and  C_6
REMARK    4  A    between atoms: C_9  and  O_11
REMARK    5  A    between atoms: C_12  and  C_14
REMARK    6  A    between atoms: C_14  and  O_15
REMARK    7  A    between atoms: O_15  and  P_16
REMARK    8  A    between atoms: P_16  and  O_17
REMARK    9  A    between atoms: P_16  and  O_18
REMARK   10  A    between atoms: C_21  and  O_22
REMARK   11  A    between atoms: C_24  and  O_25
REMARK                            x       y       z     vdW  Elec       q    Type
REMARK                         _______ _______ _______ _____ _____    ______ ____
ROOT
ATOM      1  C   UNL     1       8.343   1.178  22.129  0.00  0.00    +0.195 C 
ATOM      2  O   UNL     1       7.950   0.370  23.255  0.00  0.00    -0.353 OA
ATOM      3  C   UNL     1       8.379  -0.990  23.001  0.00  0.00    +0.175 C 
ATOM      4  C   UNL     1       9.158  -0.977  21.683  0.00  0.00    +0.149 C 
ATOM      5  C   UNL     1       9.570   0.476  21.560  0.00  0.00    +0.082 C 
ENDROOT
BRANCH   1  11
ATOM      6  C   UNL     1       7.312   4.606  23.358  0.00  0.00    +0.072 C 
ATOM      7  C   UNL     1       8.621   4.933  24.075  0.00  0.00    +0.192 C 
ATOM      8  N   UNL     1       9.777   4.332  23.442  0.00  0.00    -0.253 NA
ATOM      9  H   UNL     1       9.885   4.729  22.515  0.00  0.00    +0.128 HD
ATOM     10  C   UNL     1       9.659   2.904  23.269  0.00  0.00    +0.264 C 
ATOM     11  N   UNL     1       8.490   2.592  22.477  0.00  0.00    -0.239 NA
ATOM     12  C   UNL     1       7.253   3.094  23.111  0.00  0.00    +0.100 C 
BRANCH   7  13
ATOM     13  O   UNL     1       8.551   4.531  25.430  0.00  0.00    -0.377 OA
ATOM     14  H   UNL     1       8.427   3.562  25.372  0.00  0.00    +0.211 HD
ENDBRANCH   7  13
BRANCH  10  15
ATOM     15  O   UNL     1       9.673   2.271  24.521  0.00  0.00    -0.364 OA
ATOM     16  H   UNL     1      10.511   1.774  24.526  0.00  0.00    +0.213 HD
ENDBRANCH  10  15
BRANCH   6  17
ATOM     17  C   UNL     1       7.169   5.409  22.058  0.00  0.00    +0.164 C 
BRANCH  17  18
ATOM     18  O   UNL     1       8.245   6.336  21.937  0.00  0.00    -0.395 OA
ATOM     19  H   UNL     1       8.001   6.969  21.239  0.00  0.00    +0.209 HD
ENDBRANCH  17  18
ENDBRANCH   6  17
ENDBRANCH   1  11
BRANCH   4  20
ATOM     20  O   UNL     1      10.292  -1.830  21.688  0.00  0.00    -0.389 OA
ATOM     21  H   UNL     1      10.383  -2.232  22.569  0.00  0.00    +0.210 HD
ENDBRANCH   4  20
BRANCH   3  22
ATOM     22  C   UNL     1       7.164  -1.917  22.972  0.00  0.00    +0.206 C 
BRANCH  22  23
ATOM     23  O   UNL     1       7.419  -3.099  22.214  0.00  0.00    -0.284 OA
BRANCH  23  24
ATOM     24  P   UNL     1       6.086  -4.199  22.289  0.00  0.00    +0.472 P 
ATOM     25  O   UNL     1       4.893  -5.183  22.356  0.00  0.00    -0.228 OA
BRANCH  24  26
ATOM     26  O   UNL     1       7.114  -5.260  21.581  0.00  0.00    -0.303 OA
ATOM     27  H   UNL     1       6.773  -6.170  21.629  0.00  0.00    +0.222 HD
ENDBRANCH  24  26
BRANCH  24  28
ATOM     28  O   UNL     1       5.650  -3.512  20.868  0.00  0.00    -0.303 OA
ATOM     29  H   UNL     1       5.522  -2.564  21.066  0.00  0.00    +0.222 HD
ENDBRANCH  24  28
ENDBRANCH  23  24
ENDBRANCH  22  23
ENDBRANCH   3  22
TORSDOF 11
ENDMDL
MODEL 8
REMARK VINA RESULT:      -5.9      2.448      3.682
REMARK  Name = 
REMARK  11 active torsions:
REMARK  status: ('A' for Active; 'I' for Inactive)
REMARK    1  A    between atoms: O_1  and  C_2
REMARK    2  A    between atoms: C_2  and  C_3
REMARK    3  A    between atoms: N_5  and  C_6
REMARK    4  A    between atoms: C_9  and  O_11
REMARK    5  A    between atoms: C_12  and  C_14
REMARK    6  A    between atoms: C_14  and  O_15
REMARK    7  A    between atoms: O_15  and  P_16
REMARK    8  A    between atoms: P_16  and  O_17
REMARK    9  A    between atoms: P_16  and  O_18
REMARK   10  A    between atoms: C_21  and  O_22
REMARK   11  A    between atoms: C_24  and  O_25
REMARK                            x       y       z     vdW  Elec       q    Type
REMARK                         _______ _______ _______ _____ _____    ______ ____
ROOT
ATOM      1  C   UNL     1       7.939  -3.426  24.630  0.00  0.00    +0.195 C 
ATOM      2  O   UNL     1       6.621  -3.406  25.211  0.00  0.00    -0.353 OA
ATOM      3  C   UNL     1       6.500  -4.554  26.086  0.00  0.00    +0.175 C 
ATOM      4  C   UNL     1       7.862  -5.255  26.098  0.00  0.00    +0.149 C 
ATOM      5  C   UNL     1       8.801  -4.152  25.655  0.00  0.00    +0.082 C 
ENDROOT
BRANCH   1  11
ATOM      6  C   UNL     1      10.373  -0.710  23.620  0.00  0.00    +0.072 C 
ATOM      7  C   UNL     1       9.482  -0.066  22.558  0.00  0.00    +0.192 C 
ATOM      8  N   UNL     1       8.071  -0.170  22.868  0.00  0.00    -0.253 NA
ATOM      9  H   UNL     1       7.882   0.355  23.715  0.00  0.00    +0.128 HD
ATOM     10  C   UNL     1       7.635  -1.524  23.114  0.00  0.00    +0.264 C 
ATOM     11  N   UNL     1       8.386  -2.098  24.208  0.00  0.00    -0.239 NA
ATOM     12  C   UNL     1       9.836  -2.114  23.923  0.00  0.00    +0.100 C 
BRANCH   7  13
ATOM     13  O   UNL     1       9.740  -0.636  21.289  0.00  0.00    -0.377 OA
ATOM     14  H   UNL     1       8.846  -0.754  20.909  0.00  0.00    +0.211 HD
ENDBRANCH   7  13
BRANCH  10  15
ATOM     15  O   UNL     1       7.711  -2.270  21.929  0.00  0.00    -0.364 OA
ATOM     16  H   UNL     1       7.028  -1.876  21.356  0.00  0.00    +0.213 HD
ENDBRANCH  10  15
BRANCH   6  17
ATOM     17  C   UNL     1      10.460   0.160  24.880  0.00  0.00    +0.164 C 
BRANCH  17  18
ATOM     18  O   UNL     1       9.177   0.266  25.491  0.00  0.00    -0.395 OA
ATOM     19  H   UNL     1       8.544  -0.188  24.907  0.00  0.00    +0.209 HD
ENDBRANCH  17  18
ENDBRANCH   6  17
ENDBRANCH   1  11
BRANCH   4  20
ATOM     20  O   UNL     1       8.228  -5.755  27.375  0.00  0.00    -0.389 OA
ATOM     21  H   UNL     1       9.183  -5.940  27.382  0.00  0.00    +0.210 HD
ENDBRANCH   4  20
BRANCH   3  22
ATOM     22  C   UNL     1       5.365  -5.456  25.599  0.00  0.00    +0.206 C 
BRANCH  22  23
ATOM     23  O   UNL     1       5.509  -5.788  24.218  0.00  0.00    -0.284 OA
BRANCH  23  24
ATOM     24  P   UNL     1       3.976  -5.860  23.421  0.00  0.00    +0.472 P 
ATOM     25  O   UNL     1       2.603  -5.925  22.708  0.00  0.00    -0.228 OA
BRANCH  24  26
ATOM     26  O   UNL     1       4.025  -7.455  23.792  0.00  0.00    -0.303 OA
ATOM     27  H   UNL     1       4.583  -7.622  24.572  0.00  0.00    +0.222 HD
ENDBRANCH  24  26
BRANCH  24  28
ATOM     28  O   UNL     1       4.872  -6.041  22.063  0.00  0.00    -0.303 OA
ATOM     29  H   UNL     1       5.127  -6.984  22.044  0.00  0.00    +0.222 HD
ENDBRANCH  24  28
ENDBRANCH  23  24
ENDBRANCH  22  23
ENDBRANCH   3  22
TORSDOF 11
ENDMDL
MODEL 9
REMARK VINA RESULT:      -5.9      2.675      3.908
REMARK  Name = 
REMARK  11 active torsions:
REMARK  status: ('A' for Active; 'I' for Inactive)
REMARK    1  A    between atoms: O_1  and  C_2
REMARK    2  A    between atoms: C_2  and  C_3
REMARK    3  A    between atoms: N_5  and  C_6
REMARK    4  A    between atoms: C_9  and  O_11
REMARK    5  A    between atoms: C_12  and  C_14
REMARK    6  A    between atoms: C_14  and  O_15
REMARK    7  A    between atoms: O_15  and  P_16
REMARK    8  A    between atoms: P_16  and  O_17
REMARK    9  A    between atoms: P_16  and  O_18
REMARK   10  A    between atoms: C_21  and  O_22
REMARK   11  A    between atoms: C_24  and  O_25
REMARK                            x       y       z     vdW  Elec       q    Type
REMARK                         _______ _______ _______ _____ _____    ______ ____
ROOT
ATOM      1  C   UNL     1       8.266   0.644  23.008  0.00  0.00    +0.195 C 
ATOM      2  O   UNL     1       9.004   0.207  24.165  0.00  0.00    -0.353 OA
ATOM      3  C   UNL     1       9.703  -1.012  23.816  0.00  0.00    +0.175 C 
ATOM      4  C   UNL     1       9.439  -1.272  22.330  0.00  0.00    +0.149 C 
ATOM      5  C   UNL     1       9.053   0.101  21.821  0.00  0.00    +0.082 C 
ENDROOT
BRANCH   1  11
ATOM      6  C   UNL     1       6.668   3.894  24.106  0.00  0.00    +0.072 C 
ATOM      7  C   UNL     1       7.919   4.759  23.963  0.00  0.00    +0.192 C 
ATOM      8  N   UNL     1       8.797   4.309  22.902  0.00  0.00    -0.253 NA
ATOM      9  H   UNL     1       8.315   4.404  22.015  0.00  0.00    +0.128 HD
ATOM     10  C   UNL     1       9.174   2.920  23.019  0.00  0.00    +0.264 C 
ATOM     11  N   UNL     1       7.996   2.082  23.023  0.00  0.00    -0.239 NA
ATOM     12  C   UNL     1       7.092   2.421  24.142  0.00  0.00    +0.100 C 
BRANCH   7  13
ATOM     13  O   UNL     1       8.628   4.804  25.187  0.00  0.00    -0.377 OA
ATOM     14  H   UNL     1       8.430   3.936  25.594  0.00  0.00    +0.211 HD
ENDBRANCH   7  13
BRANCH  10  15
ATOM     15  O   UNL     1       9.993   2.744  24.144  0.00  0.00    -0.364 OA
ATOM     16  H   UNL     1      10.840   3.149  23.887  0.00  0.00    +0.213 HD
ENDBRANCH  10  15
BRANCH   6  17
ATOM     17  C   UNL     1       5.659   4.178  22.986  0.00  0.00    +0.164 C 
BRANCH  17  18
ATOM     18  O   UNL     1       6.222   3.830  21.723  0.00  0.00    -0.395 OA
ATOM     19  H   UNL     1       7.154   3.599  21.879  0.00  0.00    +0.209 HD
ENDBRANCH  17  18
ENDBRANCH   6  17
ENDBRANCH   1  11
BRANCH   4  20
ATOM     20  O   UNL     1      10.569  -1.775  21.635  0.00  0.00    -0.389 OA
ATOM     21  H   UNL     1      10.652  -1.311  20.784  0.00  0.00    +0.210 HD
ENDBRANCH   4  20
BRANCH   3  22
ATOM     22  C   UNL     1       9.232  -2.153  24.718  0.00  0.00    +0.206 C 
BRANCH  22  23
ATOM     23  O   UNL     1       9.512  -3.430  24.146  0.00  0.00    -0.284 OA
BRANCH  23  24
ATOM     24  P   UNL     1       8.894  -4.713  25.128  0.00  0.00    +0.472 P 
ATOM     25  O   UNL     1       8.340  -5.861  26.007  0.00  0.00    -0.228 OA
BRANCH  24  26
ATOM     26  O   UNL     1      10.427  -5.288  25.082  0.00  0.00    -0.303 OA
ATOM     27  H   UNL     1      11.020  -4.763  25.648  0.00  0.00    +0.222 HD
ENDBRANCH  24  26
BRANCH  24  28
ATOM     28  O   UNL     1       8.485  -5.393  23.696  0.00  0.00    -0.303 OA
ATOM     29  H   UNL     1       7.843  -4.778  23.290  0.00  0.00    +0.222 HD
ENDBRANCH  24  28
ENDBRANCH  23  24
ENDBRANCH  22  23
ENDBRANCH   3  22
TORSDOF 11
ENDMDL
