MODEL 1
REMARK VINA RESULT:      -7.7      0.000      0.000
REMARK  Name = 
REMARK  9 active torsions:
REMARK  status: ('A' for Active; 'I' for Inactive)
REMARK    1  A    between atoms: C_4  and  C_5
REMARK    2  A    between atoms: C_4  and  C_6
REMARK    3  A    between atoms: CA_7  and  C_27
REMARK    4  A    between atoms: CA_12  and  N_14
REMARK    5  A    between atoms: C_15  and  CA_17
REMARK    6  A    between atoms: CA_17  and  N_19
REMARK    7  A    between atoms: CA_17  and  C_20
REMARK    8  A    between atoms: C_23  and  O_24
REMARK    9  A    between atoms: C_27  and  O_28
REMARK                            x       y       z     vdW  Elec       q    Type
REMARK                         _______ _______ _______ _____ _____    ______ ____
ROOT
ATOM      1  N   UNL     1       7.649  -3.129  24.314  0.00  0.00    -0.300 N 
ATOM      2  H   UNL     1       7.040  -2.669  24.989  0.00  0.00    +0.150 HD
ATOM      3  C   UNL     1       7.975  -4.433  24.624  0.00  0.00    +0.235 C 
ATOM      4  O   UNL     1       8.603  -5.154  23.853  0.00  0.00    -0.274 OA
ENDROOT
BRANCH   1   6
ATOM      5  C   UNL     1       7.482  -1.107  22.721  0.00  0.00    +0.165 C 
ATOM      6  CA  UNL     1       7.928  -2.569  22.975  0.00  0.00    +0.190 C 
ATOM      7  C   UNL     1       9.354  -2.027  22.710  0.00  0.00    +0.240 C 
ATOM      8  O   UNL     1      10.492  -2.376  22.917  0.00  0.00    -0.273 OA
ATOM      9  N   UNL     1       8.869  -0.806  22.299  0.00  0.00    -0.271 N 
ATOM     10  CA  UNL     1       9.467   0.430  22.833  0.00  0.00    +0.201 C 
ATOM     11  C   UNL     1       8.885   0.645  24.252  0.00  0.00    +0.042 C 
ATOM     12  C   UNL     1       9.647  -0.171  25.317  0.00  0.00    +0.025 C 
ATOM     13  C   UNL     1       8.851   2.096  24.744  0.00  0.00    +0.025 C 
ATOM     14  S   UNL     1       7.165  -0.032  24.182  0.00  0.00    -0.127 S 
BRANCH  10  15
ATOM     15  C   UNL     1       9.197   1.558  21.818  0.00  0.00    +0.327 C 
ATOM     16  OXT UNL     1       8.096   1.857  21.380  0.00  0.00    -0.249 OA
BRANCH  15  17
ATOM     17  O   UNL     1      10.303   2.281  21.501  0.00  0.00    -0.479 OA
ATOM     18  H   UNL     1      10.143   3.234  21.665  0.00  0.00    +0.295 HD
ENDBRANCH  15  17
ENDBRANCH  10  15
ENDBRANCH   1   6
BRANCH   3  19
ATOM     19  CA  UNL     1       7.492  -4.895  26.018  0.00  0.00    +0.168 C 
BRANCH  19  20
ATOM     20  C   UNL     1       6.198  -5.682  25.922  0.00  0.00    -0.022 A 
ATOM     21  C   UNL     1       5.610  -6.005  24.688  0.00  0.00    +0.009 A 
ATOM     22  C   UNL     1       4.435  -6.756  24.634  0.00  0.00    +0.046 A 
ATOM     23  C   UNL     1       3.833  -7.180  25.809  0.00  0.00    +0.117 A 
ATOM     24  C   UNL     1       4.369  -6.842  27.045  0.00  0.00    +0.046 A 
ATOM     25  C   UNL     1       5.547  -6.090  27.099  0.00  0.00    +0.009 A 
BRANCH  23  26
ATOM     26  O   UNL     1       2.704  -7.938  25.705  0.00  0.00    -0.507 OA
ATOM     27  H   UNL     1       1.958  -7.433  26.072  0.00  0.00    +0.292 HD
ENDBRANCH  23  26
ENDBRANCH  19  20
BRANCH  19  28
ATOM     28  N   UNL     1       8.573  -5.660  26.695  0.00  0.00    -0.316 NA
ATOM     29  H1  UNL     1       8.139  -6.456  27.168  0.00  0.00    +0.119 HD
ATOM     30  H2  UNL     1       9.150  -6.073  25.959  0.00  0.00    +0.119 HD
ENDBRANCH  19  28
ENDBRANCH   3  19
TORSDOF 7
ENDMDL
MODEL 2
REMARK VINA RESULT:      -7.3      2.141      7.334
REMARK  Name = 
REMARK  9 active torsions:
REMARK  status: ('A' for Active; 'I' for Inactive)
REMARK    1  A    between atoms: C_4  and  C_5
REMARK    2  A    between atoms: C_4  and  C_6
REMARK    3  A    between atoms: CA_7  and  C_27
REMARK    4  A    between atoms: CA_12  and  N_14
REMARK    5  A    between atoms: C_15  and  CA_17
REMARK    6  A    between atoms: CA_17  and  N_19
REMARK    7  A    between atoms: CA_17  and  C_20
REMARK    8  A    between atoms: C_23  and  O_24
REMARK    9  A    between atoms: C_27  and  O_28
REMARK                            x       y       z     vdW  Elec       q    Type
REMARK                         _______ _______ _______ _____ _____    ______ ____
ROOT
ATOM      1  N   UNL     1       9.463  -1.856  24.315  0.00  0.00    -0.300 N 
ATOM      2  H   UNL     1       9.248  -1.332  25.162  0.00  0.00    +0.150 HD
ATOM      3  C   UNL     1      10.241  -1.179  23.397  0.00  0.00    +0.235 C 
ATOM      4  O   UNL     1      10.678  -1.718  22.383  0.00  0.00    -0.274 OA
ENDROOT
BRANCH   1   6
ATOM      5  C   UNL     1       8.468  -3.997  25.354  0.00  0.00    +0.165 C 
ATOM      6  CA  UNL     1       9.222  -3.309  24.189  0.00  0.00    +0.190 C 
ATOM      7  C   UNL     1       8.015  -3.763  23.332  0.00  0.00    +0.240 C 
ATOM      8  O   UNL     1       7.527  -3.482  22.262  0.00  0.00    -0.273 OA
ATOM      9  N   UNL     1       7.506  -4.523  24.359  0.00  0.00    -0.271 N 
ATOM     10  CA  UNL     1       6.077  -4.416  24.703  0.00  0.00    +0.201 C 
ATOM     11  C   UNL     1       5.902  -3.122  25.536  0.00  0.00    +0.042 C 
ATOM     12  C   UNL     1       5.769  -1.873  24.640  0.00  0.00    +0.025 C 
ATOM     13  C   UNL     1       4.710  -3.107  26.499  0.00  0.00    +0.025 C 
ATOM     14  S   UNL     1       7.477  -2.938  26.488  0.00  0.00    -0.127 S 
BRANCH  10  15
ATOM     15  C   UNL     1       5.663  -5.725  25.401  0.00  0.00    +0.327 C 
ATOM     16  OXT UNL     1       6.208  -6.195  26.389  0.00  0.00    -0.249 OA
BRANCH  15  17
ATOM     17  O   UNL     1       4.550  -6.297  24.871  0.00  0.00    -0.479 OA
ATOM     18  H   UNL     1       4.776  -7.154  24.454  0.00  0.00    +0.295 HD
ENDBRANCH  15  17
ENDBRANCH  10  15
ENDBRANCH   1   6
BRANCH   3  19
ATOM     19  CA  UNL     1      10.499   0.302  23.753  0.00  0.00    +0.168 C 
BRANCH  19  20
ATOM     20  C   UNL     1       9.411   1.202  23.198  0.00  0.00    -0.022 A 
ATOM     21  C   UNL     1       8.984   1.121  21.863  0.00  0.00    +0.009 A 
ATOM     22  C   UNL     1       7.960   1.944  21.391  0.00  0.00    +0.046 A 
ATOM     23  C   UNL     1       7.363   2.860  22.244  0.00  0.00    +0.117 A 
ATOM     24  C   UNL     1       7.792   2.991  23.559  0.00  0.00    +0.046 A 
ATOM     25  C   UNL     1       8.817   2.166  24.032  0.00  0.00    +0.009 A 
BRANCH  23  26
ATOM     26  O   UNL     1       6.346   3.621  21.747  0.00  0.00    -0.507 OA
ATOM     27  H   UNL     1       5.597   3.037  21.541  0.00  0.00    +0.292 HD
ENDBRANCH  23  26
ENDBRANCH  19  20
BRANCH  19  28
ATOM     28  N   UNL     1      10.656   0.443  25.226  0.00  0.00    -0.316 NA
ATOM     29  H1  UNL     1      11.480  -0.095  25.502  0.00  0.00    +0.119 HD
ATOM     30  H2  UNL     1      10.906   1.419  25.406  0.00  0.00    +0.119 HD
ENDBRANCH  19  28
ENDBRANCH   3  19
TORSDOF 7
ENDMDL
MODEL 3
REMARK VINA RESULT:      -7.2      2.492      3.423
REMARK  Name = 
REMARK  9 active torsions:
REMARK  status: ('A' for Active; 'I' for Inactive)
REMARK    1  A    between atoms: C_4  and  C_5
REMARK    2  A    between atoms: C_4  and  C_6
REMARK    3  A    between atoms: CA_7  and  C_27
REMARK    4  A    between atoms: CA_12  and  N_14
REMARK    5  A    between atoms: C_15  and  CA_17
REMARK    6  A    between atoms: CA_17  and  N_19
REMARK    7  A    between atoms: CA_17  and  C_20
REMARK    8  A    between atoms: C_23  and  O_24
REMARK    9  A    between atoms: C_27  and  O_28
REMARK                            x       y       z     vdW  Elec       q    Type
REMARK                         _______ _______ _______ _____ _____    ______ ____
ROOT
ATOM      1  N   UNL     1       8.062  -2.761  25.845  0.00  0.00    -0.300 N 
ATOM      2  H   UNL     1       8.719  -3.333  25.318  0.00  0.00    +0.150 HD
ATOM      3  C   UNL     1       7.032  -3.461  26.439  0.00  0.00    +0.235 C 
ATOM      4  O   UNL     1       6.229  -2.928  27.201  0.00  0.00    -0.274 OA
ENDROOT
BRANCH   1   6
ATOM      5  C   UNL     1       9.459  -0.636  25.412  0.00  0.00    +0.165 C 
ATOM      6  CA  UNL     1       8.331  -1.351  26.199  0.00  0.00    +0.190 C 
ATOM      7  C   UNL     1       7.412  -0.270  25.581  0.00  0.00    +0.240 C 
ATOM      8  O   UNL     1       6.229  -0.107  25.396  0.00  0.00    -0.273 OA
ATOM      9  N   UNL     1       8.485   0.430  25.080  0.00  0.00    -0.271 N 
ATOM     10  CA  UNL     1       8.464   0.888  23.679  0.00  0.00    +0.201 C 
ATOM     11  C   UNL     1       8.809  -0.333  22.792  0.00  0.00    +0.042 C 
ATOM     12  C   UNL     1       7.571  -1.211  22.513  0.00  0.00    +0.025 C 
ATOM     13  C   UNL     1       9.440  -0.010  21.433  0.00  0.00    +0.025 C 
ATOM     14  S   UNL     1       9.978  -1.353  23.799  0.00  0.00    -0.127 S 
BRANCH  10  15
ATOM     15  C   UNL     1       9.418   2.093  23.565  0.00  0.00    +0.327 C 
ATOM     16  OXT UNL     1      10.536   2.149  24.054  0.00  0.00    -0.249 OA
BRANCH  15  17
ATOM     17  O   UNL     1       8.942   3.091  22.776  0.00  0.00    -0.479 OA
ATOM     18  H   UNL     1       8.330   2.729  22.102  0.00  0.00    +0.295 HD
ENDBRANCH  15  17
ENDBRANCH  10  15
ENDBRANCH   1   6
BRANCH   3  19
ATOM     19  CA  UNL     1       6.976  -4.957  26.054  0.00  0.00    +0.168 C 
BRANCH  19  20
ATOM     20  C   UNL     1       6.697  -5.137  24.574  0.00  0.00    -0.022 A 
ATOM     21  C   UNL     1       7.729  -5.261  23.629  0.00  0.00    +0.009 A 
ATOM     22  C   UNL     1       7.439  -5.455  22.278  0.00  0.00    +0.046 A 
ATOM     23  C   UNL     1       6.118  -5.514  21.858  0.00  0.00    +0.117 A 
ATOM     24  C   UNL     1       5.076  -5.354  22.763  0.00  0.00    +0.046 A 
ATOM     25  C   UNL     1       5.367  -5.161  24.117  0.00  0.00    +0.009 A 
BRANCH  23  26
ATOM     26  O   UNL     1       5.883  -5.736  20.533  0.00  0.00    -0.507 OA
ATOM     27  H   UNL     1       5.073  -6.266  20.448  0.00  0.00    +0.292 HD
ENDBRANCH  23  26
ENDBRANCH  19  20
BRANCH  19  28
ATOM     28  N   UNL     1       8.231  -5.631  26.482  0.00  0.00    -0.316 NA
ATOM     29  H1  UNL     1       7.971  -6.515  26.926  0.00  0.00    +0.119 HD
ATOM     30  H2  UNL     1       8.728  -5.901  25.630  0.00  0.00    +0.119 HD
ENDBRANCH  19  28
ENDBRANCH   3  19
TORSDOF 7
ENDMDL
MODEL 4
REMARK VINA RESULT:      -7.0      2.003      8.014
REMARK  Name = 
REMARK  9 active torsions:
REMARK  status: ('A' for Active; 'I' for Inactive)
REMARK    1  A    between atoms: C_4  and  C_5
REMARK    2  A    between atoms: C_4  and  C_6
REMARK    3  A    between atoms: CA_7  and  C_27
REMARK    4  A    between atoms: CA_12  and  N_14
REMARK    5  A    between atoms: C_15  and  CA_17
REMARK    6  A    between atoms: CA_17  and  N_19
REMARK    7  A    between atoms: CA_17  and  C_20
REMARK    8  A    between atoms: C_23  and  O_24
REMARK    9  A    between atoms: C_27  and  O_28
REMARK                            x       y       z     vdW  Elec       q    Type
REMARK                         _______ _______ _______ _____ _____    ______ ____
ROOT
ATOM      1  N   UNL     1       8.352  -2.392  24.540  0.00  0.00    -0.300 N 
ATOM      2  H   UNL     1       7.525  -1.810  24.421  0.00  0.00    +0.150 HD
ATOM      3  C   UNL     1       9.329  -2.212  23.582  0.00  0.00    +0.235 C 
ATOM      4  O   UNL     1      10.428  -2.755  23.656  0.00  0.00    -0.274 OA
ENDROOT
BRANCH   1   6
ATOM      5  C   UNL     1       7.446  -3.331  26.765  0.00  0.00    +0.165 C 
ATOM      6  CA  UNL     1       8.627  -3.150  25.779  0.00  0.00    +0.190 C 
ATOM      7  C   UNL     1       8.603  -4.695  25.693  0.00  0.00    +0.240 C 
ATOM      8  O   UNL     1       9.022  -5.553  24.951  0.00  0.00    -0.273 OA
ATOM      9  N   UNL     1       7.696  -4.790  26.723  0.00  0.00    -0.271 N 
ATOM     10  CA  UNL     1       6.513  -5.656  26.573  0.00  0.00    +0.201 C 
ATOM     11  C   UNL     1       5.489  -4.887  25.702  0.00  0.00    +0.042 C 
ATOM     12  C   UNL     1       5.781  -5.042  24.195  0.00  0.00    +0.025 C 
ATOM     13  C   UNL     1       4.020  -5.269  25.911  0.00  0.00    +0.025 C 
ATOM     14  S   UNL     1       5.737  -3.102  26.120  0.00  0.00    -0.127 S 
BRANCH  10  15
ATOM     15  C   UNL     1       6.036  -6.048  27.984  0.00  0.00    +0.327 C 
ATOM     16  OXT UNL     1       6.018  -5.301  28.950  0.00  0.00    -0.249 OA
BRANCH  15  17
ATOM     17  O   UNL     1       5.534  -7.309  28.058  0.00  0.00    -0.479 OA
ATOM     18  H   UNL     1       6.190  -7.911  28.466  0.00  0.00    +0.295 HD
ENDBRANCH  15  17
ENDBRANCH  10  15
ENDBRANCH   1   6
BRANCH   3  19
ATOM     19  CA  UNL     1       8.914  -1.285  22.418  0.00  0.00    +0.168 C 
BRANCH  19  20
ATOM     20  C   UNL     1       9.236   0.165  22.724  0.00  0.00    -0.022 A 
ATOM     21  C   UNL     1      10.211   0.531  23.666  0.00  0.00    +0.009 A 
ATOM     22  C   UNL     1      10.504   1.875  23.904  0.00  0.00    +0.046 A 
ATOM     23  C   UNL     1       9.818   2.863  23.212  0.00  0.00    +0.117 A 
ATOM     24  C   UNL     1       8.820   2.533  22.305  0.00  0.00    +0.046 A 
ATOM     25  C   UNL     1       8.527   1.186  22.066  0.00  0.00    +0.009 A 
BRANCH  23  26
ATOM     26  O   UNL     1      10.160   4.160  23.455  0.00  0.00    -0.507 OA
ATOM     27  H   UNL     1      10.175   4.301  24.417  0.00  0.00    +0.292 HD
ENDBRANCH  23  26
ENDBRANCH  19  20
BRANCH  19  28
ATOM     28  N   UNL     1       9.547  -1.752  21.155  0.00  0.00    -0.316 NA
ATOM     29  H1  UNL     1       9.290  -2.733  21.025  0.00  0.00    +0.119 HD
ATOM     30  H2  UNL     1       9.085  -1.256  20.390  0.00  0.00    +0.119 HD
ENDBRANCH  19  28
ENDBRANCH   3  19
TORSDOF 7
ENDMDL
MODEL 5
REMARK VINA RESULT:      -6.9      1.911      2.521
REMARK  Name = 
REMARK  9 active torsions:
REMARK  status: ('A' for Active; 'I' for Inactive)
REMARK    1  A    between atoms: C_4  and  C_5
REMARK    2  A    between atoms: C_4  and  C_6
REMARK    3  A    between atoms: CA_7  and  C_27
REMARK    4  A    between atoms: CA_12  and  N_14
REMARK    5  A    between atoms: C_15  and  CA_17
REMARK    6  A    between atoms: CA_17  and  N_19
REMARK    7  A    between atoms: CA_17  and  C_20
REMARK    8  A    between atoms: C_23  and  O_24
REMARK    9  A    between atoms: C_27  and  O_28
REMARK                            x       y       z     vdW  Elec       q    Type
REMARK                         _______ _______ _______ _____ _____    ______ ____
ROOT
ATOM      1  N   UNL     1       8.697  -2.112  24.315  0.00  0.00    -0.300 N 
ATOM      2  H   UNL     1       7.734  -2.027  24.635  0.00  0.00    +0.150 HD
ATOM      3  C   UNL     1       9.276  -3.344  24.543  0.00  0.00    +0.235 C 
ATOM      4  O   UNL     1      10.389  -3.636  24.112  0.00  0.00    -0.274 OA
ENDROOT
BRANCH   1   6
ATOM      5  C   UNL     1       8.410  -0.054  22.787  0.00  0.00    +0.165 C 
ATOM      6  CA  UNL     1       9.336  -1.121  23.423  0.00  0.00    +0.190 C 
ATOM      7  C   UNL     1      10.036   0.091  24.085  0.00  0.00    +0.240 C 
ATOM      8  O   UNL     1      10.783   0.290  25.014  0.00  0.00    -0.273 OA
ATOM      9  N   UNL     1       9.313   0.986  23.331  0.00  0.00    -0.271 N 
ATOM     10  CA  UNL     1       8.670   2.138  23.988  0.00  0.00    +0.201 C 
ATOM     11  C   UNL     1       7.377   1.617  24.663  0.00  0.00    +0.042 C 
ATOM     12  C   UNL     1       7.658   0.997  26.047  0.00  0.00    +0.025 C 
ATOM     13  C   UNL     1       6.265   2.654  24.858  0.00  0.00    +0.025 C 
ATOM     14  S   UNL     1       6.773   0.251  23.572  0.00  0.00    -0.127 S 
BRANCH  10  15
ATOM     15  C   UNL     1       8.478   3.238  22.927  0.00  0.00    +0.327 C 
ATOM     16  OXT UNL     1       7.759   3.144  21.943  0.00  0.00    -0.249 OA
BRANCH  15  17
ATOM     17  O   UNL     1       9.123   4.397  23.221  0.00  0.00    -0.479 OA
ATOM     18  H   UNL     1       8.822   5.113  22.624  0.00  0.00    +0.295 HD
ENDBRANCH  15  17
ENDBRANCH  10  15
ENDBRANCH   1   6
BRANCH   3  19
ATOM     19  CA  UNL     1       8.412  -4.305  25.390  0.00  0.00    +0.168 C 
BRANCH  19  20
ATOM     20  C   UNL     1       7.249  -4.857  24.586  0.00  0.00    -0.022 A 
ATOM     21  C   UNL     1       5.948  -4.931  25.108  0.00  0.00    +0.009 A 
ATOM     22  C   UNL     1       4.895  -5.418  24.332  0.00  0.00    +0.046 A 
ATOM     23  C   UNL     1       5.134  -5.843  23.034  0.00  0.00    +0.117 A 
ATOM     24  C   UNL     1       6.418  -5.819  22.504  0.00  0.00    +0.046 A 
ATOM     25  C   UNL     1       7.473  -5.331  23.281  0.00  0.00    +0.009 A 
BRANCH  23  26
ATOM     26  O   UNL     1       4.069  -6.281  22.304  0.00  0.00    -0.507 OA
ATOM     27  H   UNL     1       3.542  -5.510  22.034  0.00  0.00    +0.292 HD
ENDBRANCH  23  26
ENDBRANCH  19  20
BRANCH  19  28
ATOM     28  N   UNL     1       9.269  -5.379  25.959  0.00  0.00    -0.316 NA
ATOM     29  H1  UNL     1       8.680  -6.204  26.095  0.00  0.00    +0.119 HD
ATOM     30  H2  UNL     1       9.934  -5.647  25.230  0.00  0.00    +0.119 HD
ENDBRANCH  19  28
ENDBRANCH   3  19
TORSDOF 7
ENDMDL
MODEL 6
REMARK VINA RESULT:      -6.9      2.215      7.484
REMARK  Name = 
REMARK  9 active torsions:
REMARK  status: ('A' for Active; 'I' for Inactive)
REMARK    1  A    between atoms: C_4  and  C_5
REMARK    2  A    between atoms: C_4  and  C_6
REMARK    3  A    between atoms: CA_7  and  C_27
REMARK    4  A    between atoms: CA_12  and  N_14
REMARK    5  A    between atoms: C_15  and  CA_17
REMARK    6  A    between atoms: CA_17  and  N_19
REMARK    7  A    between atoms: CA_17  and  C_20
REMARK    8  A    between atoms: C_23  and  O_24
REMARK    9  A    between atoms: C_27  and  O_28
REMARK                            x       y       z     vdW  Elec       q    Type
REMARK                         _______ _______ _______ _____ _____    ______ ____
ROOT
ATOM      1  N   UNL     1       7.975  -2.720  23.633  0.00  0.00    -0.300 N 
ATOM      2  H   UNL     1       7.325  -2.007  23.961  0.00  0.00    +0.150 HD
ATOM      3  C   UNL     1       9.257  -2.609  24.132  0.00  0.00    +0.235 C 
ATOM      4  O   UNL     1      10.119  -3.458  23.922  0.00  0.00    -0.274 OA
ENDROOT
BRANCH   1   6
ATOM      5  C   UNL     1       6.974  -5.092  23.795  0.00  0.00    +0.165 C 
ATOM      6  CA  UNL     1       7.534  -3.940  22.923  0.00  0.00    +0.190 C 
ATOM      7  C   UNL     1       6.123  -3.928  22.288  0.00  0.00    +0.240 C 
ATOM      8  O   UNL     1       5.451  -3.172  21.626  0.00  0.00    -0.273 OA
ATOM      9  N   UNL     1       5.760  -5.080  22.946  0.00  0.00    -0.271 N 
ATOM     10  CA  UNL     1       4.466  -5.140  23.648  0.00  0.00    +0.201 C 
ATOM     11  C   UNL     1       4.639  -4.392  24.993  0.00  0.00    +0.042 C 
ATOM     12  C   UNL     1       4.469  -2.867  24.831  0.00  0.00    +0.025 C 
ATOM     13  C   UNL     1       3.697  -4.827  26.121  0.00  0.00    +0.025 C 
ATOM     14  S   UNL     1       6.395  -4.690  25.495  0.00  0.00    -0.127 S 
BRANCH  10  15
ATOM     15  C   UNL     1       4.056  -6.622  23.751  0.00  0.00    +0.327 C 
ATOM     16  OXT UNL     1       4.583  -7.445  24.484  0.00  0.00    -0.249 OA
BRANCH  15  17
ATOM     17  O   UNL     1       2.966  -6.938  23.004  0.00  0.00    -0.479 OA
ATOM     18  H   UNL     1       2.586  -7.791  23.302  0.00  0.00    +0.295 HD
ENDBRANCH  15  17
ENDBRANCH  10  15
ENDBRANCH   1   6
BRANCH   3  19
ATOM     19  CA  UNL     1       9.507  -1.329  24.961  0.00  0.00    +0.168 C 
BRANCH  19  20
ATOM     20  C   UNL     1       9.220  -0.080  24.149  0.00  0.00    -0.022 A 
ATOM     21  C   UNL     1       8.177   0.802  24.477  0.00  0.00    +0.009 A 
ATOM     22  C   UNL     1       7.958   1.958  23.726  0.00  0.00    +0.046 A 
ATOM     23  C   UNL     1       8.770   2.237  22.637  0.00  0.00    +0.117 A 
ATOM     24  C   UNL     1       9.783   1.363  22.263  0.00  0.00    +0.046 A 
ATOM     25  C   UNL     1      10.003   0.205  23.016  0.00  0.00    +0.009 A 
BRANCH  23  26
ATOM     26  O   UNL     1       8.538   3.393  21.952  0.00  0.00    -0.507 OA
ATOM     27  H   UNL     1       8.506   3.189  21.003  0.00  0.00    +0.292 HD
ENDBRANCH  23  26
ENDBRANCH  19  20
BRANCH  19  28
ATOM     28  N   UNL     1       8.713  -1.382  26.218  0.00  0.00    -0.316 NA
ATOM     29  H1  UNL     1       8.733  -2.347  26.555  0.00  0.00    +0.119 HD
ATOM     30  H2  UNL     1       9.231  -0.848  26.920  0.00  0.00    +0.119 HD
ENDBRANCH  19  28
ENDBRANCH   3  19
TORSDOF 7
ENDMDL
MODEL 7
REMARK VINA RESULT:      -6.8      2.617      7.774
REMARK  Name = 
REMARK  9 active torsions:
REMARK  status: ('A' for Active; 'I' for Inactive)
REMARK    1  A    between atoms: C_4  and  C_5
REMARK    2  A    between atoms: C_4  and  C_6
REMARK    3  A    between atoms: CA_7  and  C_27
REMARK    4  A    between atoms: CA_12  and  N_14
REMARK    5  A    between atoms: C_15  and  CA_17
REMARK    6  A    between atoms: CA_17  and  N_19
REMARK    7  A    between atoms: CA_17  and  C_20
REMARK    8  A    between atoms: C_23  and  O_24
REMARK    9  A    between atoms: C_27  and  O_28
REMARK                            x       y       z     vdW  Elec       q    Type
REMARK                         _______ _______ _______ _____ _____    ______ ____
ROOT
ATOM      1  N   UNL     1       7.225  -1.600  24.436  0.00  0.00    -0.300 N 
ATOM      2  H   UNL     1       7.499  -1.555  23.456  0.00  0.00    +0.150 HD
ATOM      3  C   UNL     1       7.939  -0.771  25.276  0.00  0.00    +0.235 C 
ATOM      4  O   UNL     1       7.648  -0.628  26.461  0.00  0.00    -0.274 OA
ENDROOT
BRANCH   1   6
ATOM      5  C   UNL     1       5.123  -2.955  23.804  0.00  0.00    +0.165 C 
ATOM      6  CA  UNL     1       5.985  -2.265  24.891  0.00  0.00    +0.190 C 
ATOM      7  C   UNL     1       6.112  -3.687  25.488  0.00  0.00    +0.240 C 
ATOM      8  O   UNL     1       6.833  -4.264  26.269  0.00  0.00    -0.273 OA
ATOM      9  N   UNL     1       5.178  -4.194  24.615  0.00  0.00    -0.271 N 
ATOM     10  CA  UNL     1       5.465  -5.444  23.888  0.00  0.00    +0.201 C 
ATOM     11  C   UNL     1       6.410  -5.085  22.715  0.00  0.00    +0.042 C 
ATOM     12  C   UNL     1       7.885  -5.020  23.162  0.00  0.00    +0.025 C 
ATOM     13  C   UNL     1       6.354  -6.025  21.505  0.00  0.00    +0.025 C 
ATOM     14  S   UNL     1       5.924  -3.376  22.201  0.00  0.00    -0.127 S 
BRANCH  10  15
ATOM     15  C   UNL     1       4.117  -6.078  23.495  0.00  0.00    +0.327 C 
ATOM     16  OXT UNL     1       3.218  -5.502  22.900  0.00  0.00    -0.249 OA
BRANCH  15  17
ATOM     17  O   UNL     1       4.030  -7.401  23.794  0.00  0.00    -0.479 OA
ATOM     18  H   UNL     1       4.893  -7.733  24.117  0.00  0.00    +0.295 HD
ENDBRANCH  15  17
ENDBRANCH  10  15
ENDBRANCH   1   6
BRANCH   3  19
ATOM     19  CA  UNL     1       9.130  -0.055  24.601  0.00  0.00    +0.168 C 
BRANCH  19  20
ATOM     20  C   UNL     1       8.672   1.156  23.810  0.00  0.00    -0.022 A 
ATOM     21  C   UNL     1       8.359   1.081  22.443  0.00  0.00    +0.009 A 
ATOM     22  C   UNL     1       7.912   2.208  21.751  0.00  0.00    +0.046 A 
ATOM     23  C   UNL     1       7.784   3.419  22.416  0.00  0.00    +0.117 A 
ATOM     24  C   UNL     1       8.125   3.533  23.758  0.00  0.00    +0.046 A 
ATOM     25  C   UNL     1       8.571   2.404  24.451  0.00  0.00    +0.009 A 
BRANCH  23  26
ATOM     26  O   UNL     1       7.314   4.485  21.707  0.00  0.00    -0.507 OA
ATOM     27  H   UNL     1       6.761   4.152  20.980  0.00  0.00    +0.292 HD
ENDBRANCH  23  26
ENDBRANCH  19  20
BRANCH  19  28
ATOM     28  N   UNL     1      10.154   0.289  25.624  0.00  0.00    -0.316 NA
ATOM     29  H1  UNL     1      10.945  -0.346  25.495  0.00  0.00    +0.119 HD
ATOM     30  H2  UNL     1      10.516   1.214  25.382  0.00  0.00    +0.119 HD
ENDBRANCH  19  28
ENDBRANCH   3  19
TORSDOF 7
ENDMDL
MODEL 8
REMARK VINA RESULT:      -6.8      2.592      8.284
REMARK  Name = 
REMARK  9 active torsions:
REMARK  status: ('A' for Active; 'I' for Inactive)
REMARK    1  A    between atoms: C_4  and  C_5
REMARK    2  A    between atoms: C_4  and  C_6
REMARK    3  A    between atoms: CA_7  and  C_27
REMARK    4  A    between atoms: CA_12  and  N_14
REMARK    5  A    between atoms: C_15  and  CA_17
REMARK    6  A    between atoms: CA_17  and  N_19
REMARK    7  A    between atoms: CA_17  and  C_20
REMARK    8  A    between atoms: C_23  and  O_24
REMARK    9  A    between atoms: C_27  and  O_28
REMARK                            x       y       z     vdW  Elec       q    Type
REMARK                         _______ _______ _______ _____ _____    ______ ____
ROOT
ATOM      1  N   UNL     1       8.590  -0.255  23.674  0.00  0.00    -0.300 N 
ATOM      2  H   UNL     1       8.694  -0.252  24.687  0.00  0.00    +0.150 HD
ATOM      3  C   UNL     1       9.586   0.408  22.987  0.00  0.00    +0.235 C 
ATOM      4  O   UNL     1       9.661   0.393  21.761  0.00  0.00    -0.274 OA
ENDROOT
BRANCH   1   6
ATOM      5  C   UNL     1       7.957  -2.646  22.940  0.00  0.00    +0.165 C 
ATOM      6  CA  UNL     1       7.630  -1.131  22.970  0.00  0.00    +0.190 C 
ATOM      7  C   UNL     1       6.361  -1.568  23.741  0.00  0.00    +0.240 C 
ATOM      8  O   UNL     1       5.530  -1.054  24.454  0.00  0.00    -0.273 OA
ATOM      9  N   UNL     1       6.609  -2.900  23.500  0.00  0.00    -0.271 N 
ATOM     10  CA  UNL     1       6.529  -3.867  24.608  0.00  0.00    +0.201 C 
ATOM     11  C   UNL     1       7.839  -3.740  25.424  0.00  0.00    +0.042 C 
ATOM     12  C   UNL     1       7.775  -2.583  26.442  0.00  0.00    +0.025 C 
ATOM     13  C   UNL     1       8.263  -4.992  26.199  0.00  0.00    +0.025 C 
ATOM     14  S   UNL     1       9.142  -3.300  24.187  0.00  0.00    -0.127 S 
BRANCH  10  15
ATOM     15  C   UNL     1       6.247  -5.255  24.001  0.00  0.00    +0.327 C 
ATOM     16  OXT UNL     1       6.842  -5.737  23.049  0.00  0.00    -0.249 OA
BRANCH  15  17
ATOM     17  O   UNL     1       5.311  -5.967  24.682  0.00  0.00    -0.479 OA
ATOM     18  H   UNL     1       4.774  -6.501  24.061  0.00  0.00    +0.295 HD
ENDBRANCH  15  17
ENDBRANCH  10  15
ENDBRANCH   1   6
BRANCH   3  19
ATOM     19  CA  UNL     1      10.581   1.171  23.891  0.00  0.00    +0.168 C 
BRANCH  19  20
ATOM     20  C   UNL     1      10.294   2.661  23.894  0.00  0.00    -0.022 A 
ATOM     21  C   UNL     1       9.066   3.184  24.330  0.00  0.00    +0.009 A 
ATOM     22  C   UNL     1       8.844   4.563  24.347  0.00  0.00    +0.046 A 
ATOM     23  C   UNL     1       9.841   5.427  23.920  0.00  0.00    +0.117 A 
ATOM     24  C   UNL     1      11.052   4.936  23.446  0.00  0.00    +0.046 A 
ATOM     25  C   UNL     1      11.274   3.556  23.429  0.00  0.00    +0.009 A 
BRANCH  23  26
ATOM     26  O   UNL     1       9.590   6.765  23.985  0.00  0.00    -0.507 OA
ATOM     27  H   UNL     1       8.867   6.974  23.370  0.00  0.00    +0.292 HD
ENDBRANCH  23  26
ENDBRANCH  19  20
BRANCH  19  28
ATOM     28  N   UNL     1      10.564   0.587  25.259  0.00  0.00    -0.316 NA
ATOM     29  H1  UNL     1      10.109   1.262  25.878  0.00  0.00    +0.119 HD
ATOM     30  H2  UNL     1       9.930  -0.215  25.233  0.00  0.00    +0.119 HD
ENDBRANCH  19  28
ENDBRANCH   3  19
TORSDOF 7
ENDMDL
MODEL 9
REMARK VINA RESULT:      -6.8      2.601      7.084
REMARK  Name = 
REMARK  9 active torsions:
REMARK  status: ('A' for Active; 'I' for Inactive)
REMARK    1  A    between atoms: C_4  and  C_5
REMARK    2  A    between atoms: C_4  and  C_6
REMARK    3  A    between atoms: CA_7  and  C_27
REMARK    4  A    between atoms: CA_12  and  N_14
REMARK    5  A    between atoms: C_15  and  CA_17
REMARK    6  A    between atoms: CA_17  and  N_19
REMARK    7  A    between atoms: CA_17  and  C_20
REMARK    8  A    between atoms: C_23  and  O_24
REMARK    9  A    between atoms: C_27  and  O_28
REMARK                            x       y       z     vdW  Elec       q    Type
REMARK                         _______ _______ _______ _____ _____    ______ ____
ROOT
ATOM      1  N   UNL     1       7.358  -2.446  26.647  0.00  0.00    -0.300 N 
ATOM      2  H   UNL     1       8.217  -2.645  26.137  0.00  0.00    +0.150 HD
ATOM      3  C   UNL     1       7.107  -1.105  26.854  0.00  0.00    +0.235 C 
ATOM      4  O   UNL     1       6.057  -0.702  27.350  0.00  0.00    -0.274 OA
ENDROOT
BRANCH   1   6
ATOM      5  C   UNL     1       5.244  -3.649  25.789  0.00  0.00    +0.165 C 
ATOM      6  CA  UNL     1       6.316  -3.466  26.892  0.00  0.00    +0.190 C 
ATOM      7  C   UNL     1       6.674  -4.941  26.588  0.00  0.00    +0.240 C 
ATOM      8  O   UNL     1       7.602  -5.690  26.783  0.00  0.00    -0.273 OA
ATOM      9  N   UNL     1       5.576  -5.093  25.773  0.00  0.00    -0.271 N 
ATOM     10  CA  UNL     1       5.736  -5.717  24.448  0.00  0.00    +0.201 C 
ATOM     11  C   UNL     1       6.325  -4.641  23.503  0.00  0.00    +0.042 C 
ATOM     12  C   UNL     1       7.860  -4.541  23.629  0.00  0.00    +0.025 C 
ATOM     13  C   UNL     1       6.013  -4.822  22.013  0.00  0.00    +0.025 C 
ATOM     14  S   UNL     1       5.628  -3.034  24.097  0.00  0.00    -0.127 S 
BRANCH  10  15
ATOM     15  C   UNL     1       4.370  -6.299  24.035  0.00  0.00    +0.327 C 
ATOM     16  OXT UNL     1       3.363  -5.640  23.824  0.00  0.00    -0.249 OA
BRANCH  15  17
ATOM     17  O   UNL     1       4.390  -7.642  23.830  0.00  0.00    -0.479 OA
ATOM     18  H   UNL     1       3.812  -7.878  23.075  0.00  0.00    +0.295 HD
ENDBRANCH  15  17
ENDBRANCH  10  15
ENDBRANCH   1   6
BRANCH   3  19
ATOM     19  CA  UNL     1       8.257  -0.168  26.421  0.00  0.00    +0.168 C 
BRANCH  19  20
ATOM     20  C   UNL     1       8.619  -0.375  24.962  0.00  0.00    -0.022 A 
ATOM     21  C   UNL     1       9.827  -0.974  24.570  0.00  0.00    +0.009 A 
ATOM     22  C   UNL     1      10.117  -1.176  23.219  0.00  0.00    +0.046 A 
ATOM     23  C   UNL     1       9.209  -0.772  22.251  0.00  0.00    +0.117 A 
ATOM     24  C   UNL     1       8.025  -0.140  22.608  0.00  0.00    +0.046 A 
ATOM     25  C   UNL     1       7.734   0.062  23.960  0.00  0.00    +0.009 A 
BRANCH  23  26
ATOM     26  O   UNL     1       9.522  -1.018  20.947  0.00  0.00    -0.507 OA
ATOM     27  H   UNL     1       8.870  -0.570  20.383  0.00  0.00    +0.292 HD
ENDBRANCH  23  26
ENDBRANCH  19  20
BRANCH  19  28
ATOM     28  N   UNL     1       7.894   1.243  26.721  0.00  0.00    -0.316 NA
ATOM     29  H1  UNL     1       8.671   1.658  27.239  0.00  0.00    +0.119 HD
ATOM     30  H2  UNL     1       7.876   1.742  25.828  0.00  0.00    +0.119 HD
ENDBRANCH  19  28
ENDBRANCH   3  19
TORSDOF 7
ENDMDL
