MODEL 1
REMARK VINA RESULT:      -7.3      0.000      0.000
REMARK  Name = 
REMARK  7 active torsions:
REMARK  status: ('A' for Active; 'I' for Inactive)
REMARK    1  A    between atoms: C_1  and  C_2
REMARK    2  A    between atoms: C_2  and  C_3
REMARK    3  A    between atoms: C_8  and  N_9
REMARK    4  A    between atoms: C_12  and  N_15
REMARK    5  A    between atoms: C_21  and  C_22
REMARK    6  A    between atoms: C_21  and  C_23
REMARK    7  A    between atoms: C_30  and  C_33
REMARK                            x       y       z     vdW  Elec       q    Type
REMARK                         _______ _______ _______ _____ _____    ______ ____
ROOT
ATOM      1  C   UNL     1       6.339  -4.446  23.294  0.00  0.00    -0.026 A 
ATOM      2  C   UNL     1       5.448  -4.193  24.363  0.00  0.00    +0.033 A 
ATOM      3  C   UNL     1       5.587  -2.931  25.004  0.00  0.00    +0.028 A 
ATOM      4  C   UNL     1       6.501  -1.921  24.604  0.00  0.00    -0.023 A 
ATOM      5  C   UNL     1       6.619  -0.596  25.393  0.00  0.00    +0.032 C 
ATOM      6  C   UNL     1       7.664   0.302  24.758  0.00  0.00    +0.038 A 
ATOM      7  N   UNL     1       8.051   1.541  25.211  0.00  0.00    -0.357 N 
ATOM      8  H   UNL     1       7.690   2.010  26.029  0.00  0.00    +0.166 HD
ATOM      9  C   UNL     1       9.012   2.071  24.371  0.00  0.00    +0.049 A 
ATOM     10  C   UNL     1       9.690   3.295  24.425  0.00  0.00    +0.045 A 
ATOM     11  C   UNL     1      10.633   3.567  23.416  0.00  0.00    +0.054 A 
ATOM     12  C   UNL     1      10.885   2.641  22.402  0.00  0.00    +0.019 A 
ATOM     13  C   UNL     1      10.204   1.422  22.369  0.00  0.00    +0.012 A 
ATOM     14  C   UNL     1       9.252   1.132  23.369  0.00  0.00    +0.011 A 
ATOM     15  C   UNL     1       8.404   0.024  23.629  0.00  0.00    +0.051 A 
ATOM     16  C   UNL     1       8.262  -1.215  22.905  0.00  0.00    +0.196 C 
ATOM     17  O   UNL     1       8.897  -1.469  21.886  0.00  0.00    -0.287 OA
ATOM     18  C   UNL     1       7.041  -0.899  26.848  0.00  0.00    +0.022 C 
ATOM     19  C   UNL     1       5.264   0.140  25.381  0.00  0.00    +0.022 C 
ATOM     20  C   UNL     1       7.292  -2.190  23.476  0.00  0.00    +0.027 A 
ATOM     21  C   UNL     1       7.213  -3.433  22.850  0.00  0.00    +0.017 A 
ENDROOT
BRANCH   2  22
ATOM     22  N   UNL     1       4.451  -5.063  24.781  0.00  0.00    -0.330 N 
ATOM     23  C   UNL     1       4.095  -5.314  26.180  0.00  0.00    +0.106 C 
ATOM     24  C   UNL     1       4.121  -6.822  26.418  0.00  0.00    +0.038 C 
ATOM     25  C   UNL     1       3.039  -7.499  25.557  0.00  0.00    +0.060 C 
ATOM     26  C   UNL     1       3.391  -7.164  24.087  0.00  0.00    +0.038 C 
ATOM     27  C   UNL     1       3.488  -5.654  23.835  0.00  0.00    +0.106 C 
BRANCH  25  28
ATOM     28  N   UNL     1       1.670  -7.066  25.954  0.00  0.00    -0.295 NA
ATOM     29  C   UNL     1       1.466  -7.037  27.426  0.00  0.00    +0.113 C 
ATOM     30  C   UNL     1       1.448  -8.437  28.061  0.00  0.00    +0.175 C 
ATOM     31  O   UNL     1       0.443  -9.269  27.464  0.00  0.00    -0.377 OA
ATOM     32  C   UNL     1       0.585  -9.333  26.039  0.00  0.00    +0.175 C 
ATOM     33  C   UNL     1       0.596  -7.929  25.413  0.00  0.00    +0.113 C 
ENDBRANCH  25  28
ENDBRANCH   2  22
BRANCH   1  35
ATOM     34  C   UNL     1       6.106  -5.599  21.097  0.00  0.00    +0.009 C 
ATOM     35  C   UNL     1       6.510  -5.759  22.564  0.00  0.00    +0.033 C 
ENDBRANCH   1  35
BRANCH  11  36
ATOM     36  C   UNL     1      11.344   4.811  23.428  0.00  0.00    +0.099 C 
ATOM     37  N   UNL     1      11.924   5.817  23.445  0.00  0.00    -0.191 NA
ENDBRANCH  11  36
TORSDOF 4
ENDMDL
MODEL 2
REMARK VINA RESULT:      -6.6      2.160      2.413
REMARK  Name = 
REMARK  7 active torsions:
REMARK  status: ('A' for Active; 'I' for Inactive)
REMARK    1  A    between atoms: C_1  and  C_2
REMARK    2  A    between atoms: C_2  and  C_3
REMARK    3  A    between atoms: C_8  and  N_9
REMARK    4  A    between atoms: C_12  and  N_15
REMARK    5  A    between atoms: C_21  and  C_22
REMARK    6  A    between atoms: C_21  and  C_23
REMARK    7  A    between atoms: C_30  and  C_33
REMARK                            x       y       z     vdW  Elec       q    Type
REMARK                         _______ _______ _______ _____ _____    ______ ____
ROOT
ATOM      1  C   UNL     1       7.225  -4.061  26.395  0.00  0.00    -0.026 A 
ATOM      2  C   UNL     1       6.007  -3.613  26.957  0.00  0.00    +0.033 A 
ATOM      3  C   UNL     1       5.798  -2.206  26.949  0.00  0.00    +0.028 A 
ATOM      4  C   UNL     1       6.689  -1.263  26.373  0.00  0.00    -0.023 A 
ATOM      5  C   UNL     1       6.404   0.255  26.456  0.00  0.00    +0.032 C 
ATOM      6  C   UNL     1       7.507   1.034  25.766  0.00  0.00    +0.038 A 
ATOM      7  N   UNL     1       7.596   2.404  25.671  0.00  0.00    -0.357 N 
ATOM      8  H   UNL     1       6.937   3.065  26.055  0.00  0.00    +0.166 HD
ATOM      9  C   UNL     1       8.726   2.755  24.957  0.00  0.00    +0.049 A 
ATOM     10  C   UNL     1       9.222   4.016  24.607  0.00  0.00    +0.045 A 
ATOM     11  C   UNL     1      10.417   4.067  23.864  0.00  0.00    +0.054 A 
ATOM     12  C   UNL     1      11.085   2.897  23.499  0.00  0.00    +0.019 A 
ATOM     13  C   UNL     1      10.578   1.647  23.865  0.00  0.00    +0.012 A 
ATOM     14  C   UNL     1       9.379   1.574  24.606  0.00  0.00    +0.011 A 
ATOM     15  C   UNL     1       8.607   0.503  25.126  0.00  0.00    +0.051 A 
ATOM     16  C   UNL     1       8.839  -0.918  25.052  0.00  0.00    +0.196 C 
ATOM     17  O   UNL     1       9.801  -1.407  24.467  0.00  0.00    -0.287 OA
ATOM     18  C   UNL     1       6.341   0.687  27.937  0.00  0.00    +0.022 C 
ATOM     19  C   UNL     1       5.066   0.573  25.758  0.00  0.00    +0.022 C 
ATOM     20  C   UNL     1       7.835  -1.774  25.743  0.00  0.00    +0.027 A 
ATOM     21  C   UNL     1       8.093  -3.142  25.770  0.00  0.00    +0.017 A 
ENDROOT
BRANCH   2  22
ATOM     22  N   UNL     1       5.019  -4.446  27.463  0.00  0.00    -0.330 N 
ATOM     23  C   UNL     1       4.830  -4.748  28.884  0.00  0.00    +0.106 C 
ATOM     24  C   UNL     1       4.792  -6.267  29.049  0.00  0.00    +0.038 C 
ATOM     25  C   UNL     1       3.567  -6.835  28.308  0.00  0.00    +0.060 C 
ATOM     26  C   UNL     1       3.749  -6.444  26.821  0.00  0.00    +0.038 C 
ATOM     27  C   UNL     1       3.907  -4.931  26.626  0.00  0.00    +0.106 C 
BRANCH  25  28
ATOM     28  N   UNL     1       2.290  -6.346  28.900  0.00  0.00    -0.295 NA
ATOM     29  C   UNL     1       2.057  -6.837  30.283  0.00  0.00    +0.113 C 
ATOM     30  C   UNL     1       1.768  -8.345  30.349  0.00  0.00    +0.175 C 
ATOM     31  O   UNL     1       0.644  -8.698  29.530  0.00  0.00    -0.377 OA
ATOM     32  C   UNL     1       0.809  -8.246  28.179  0.00  0.00    +0.175 C 
ATOM     33  C   UNL     1       1.091  -6.736  28.124  0.00  0.00    +0.113 C 
ENDBRANCH  25  28
ENDBRANCH   2  22
BRANCH   1  35
ATOM     34  C   UNL     1       8.970  -5.601  25.504  0.00  0.00    +0.009 C 
ATOM     35  C   UNL     1       7.760  -5.475  26.431  0.00  0.00    +0.033 C 
ENDBRANCH   1  35
BRANCH  11  36
ATOM     36  C   UNL     1      10.957   5.337  23.477  0.00  0.00    +0.099 C 
ATOM     37  N   UNL     1      11.400   6.362  23.159  0.00  0.00    -0.191 NA
ENDBRANCH  11  36
TORSDOF 4
ENDMDL
MODEL 3
REMARK VINA RESULT:      -6.5      2.222     11.026
REMARK  Name = 
REMARK  7 active torsions:
REMARK  status: ('A' for Active; 'I' for Inactive)
REMARK    1  A    between atoms: C_1  and  C_2
REMARK    2  A    between atoms: C_2  and  C_3
REMARK    3  A    between atoms: C_8  and  N_9
REMARK    4  A    between atoms: C_12  and  N_15
REMARK    5  A    between atoms: C_21  and  C_22
REMARK    6  A    between atoms: C_21  and  C_23
REMARK    7  A    between atoms: C_30  and  C_33
REMARK                            x       y       z     vdW  Elec       q    Type
REMARK                         _______ _______ _______ _____ _____    ______ ____
ROOT
ATOM      1  C   UNL     1       5.357  -0.334  26.214  0.00  0.00    -0.026 A 
ATOM      2  C   UNL     1       6.264  -0.406  25.131  0.00  0.00    +0.033 A 
ATOM      3  C   UNL     1       6.266  -1.625  24.400  0.00  0.00    +0.028 A 
ATOM      4  C   UNL     1       5.395  -2.717  24.653  0.00  0.00    -0.023 A 
ATOM      5  C   UNL     1       5.502  -4.027  23.838  0.00  0.00    +0.032 C 
ATOM      6  C   UNL     1       4.462  -5.025  24.309  0.00  0.00    +0.038 A 
ATOM      7  N   UNL     1       4.288  -6.303  23.830  0.00  0.00    -0.357 N 
ATOM      8  H   UNL     1       4.836  -6.740  23.103  0.00  0.00    +0.166 HD
ATOM      9  C   UNL     1       3.233  -6.912  24.483  0.00  0.00    +0.049 A 
ATOM     10  C   UNL     1       2.690  -8.193  24.330  0.00  0.00    +0.045 A 
ATOM     11  C   UNL     1       1.600  -8.544  25.149  0.00  0.00    +0.054 A 
ATOM     12  C   UNL     1       1.087  -7.645  26.085  0.00  0.00    +0.019 A 
ATOM     13  C   UNL     1       1.648  -6.373  26.228  0.00  0.00    +0.012 A 
ATOM     14  C   UNL     1       2.738  -6.000  25.414  0.00  0.00    +0.011 A 
ATOM     15  C   UNL     1       3.524  -4.823  25.298  0.00  0.00    +0.051 A 
ATOM     16  C   UNL     1       3.437  -3.585  26.032  0.00  0.00    +0.196 C 
ATOM     17  O   UNL     1       2.594  -3.381  26.900  0.00  0.00    -0.287 OA
ATOM     18  C   UNL     1       6.906  -4.642  24.035  0.00  0.00    +0.022 C 
ATOM     19  C   UNL     1       5.262  -3.733  22.344  0.00  0.00    +0.022 C 
ATOM     20  C   UNL     1       4.450  -2.552  25.678  0.00  0.00    +0.027 A 
ATOM     21  C   UNL     1       4.448  -1.387  26.443  0.00  0.00    +0.017 A 
ENDROOT
BRANCH   2  22
ATOM     22  N   UNL     1       7.095   0.631  24.730  0.00  0.00    -0.330 N 
ATOM     23  C   UNL     1       8.391   0.453  24.070  0.00  0.00    +0.106 C 
ATOM     24  C   UNL     1       9.437   1.252  24.845  0.00  0.00    +0.038 C 
ATOM     25  C   UNL     1       9.101   2.752  24.766  0.00  0.00    +0.060 C 
ATOM     26  C   UNL     1       7.699   2.911  25.403  0.00  0.00    +0.038 C 
ATOM     27  C   UNL     1       6.642   2.033  24.722  0.00  0.00    +0.106 C 
BRANCH  25  28
ATOM     28  N   UNL     1       9.181   3.261  23.368  0.00  0.00    -0.295 NA
ATOM     29  C   UNL     1      10.536   3.134  22.772  0.00  0.00    +0.113 C 
ATOM     30  C   UNL     1      11.568   4.078  23.410  0.00  0.00    +0.175 C 
ATOM     31  O   UNL     1      11.146   5.447  23.326  0.00  0.00    -0.377 OA
ATOM     32  C   UNL     1       9.837   5.633  23.883  0.00  0.00    +0.175 C 
ATOM     33  C   UNL     1       8.813   4.689  23.236  0.00  0.00    +0.113 C 
ENDBRANCH  25  28
ENDBRANCH   2  22
BRANCH   1  35
ATOM     34  C   UNL     1       6.461   0.682  28.204  0.00  0.00    +0.009 C 
ATOM     35  C   UNL     1       5.276   0.773  27.241  0.00  0.00    +0.033 C 
ENDBRANCH   1  35
BRANCH  11  36
ATOM     36  C   UNL     1       1.007  -9.843  25.021  0.00  0.00    +0.099 C 
ATOM     37  N   UNL     1       0.521 -10.892  24.912  0.00  0.00    -0.191 NA
ENDBRANCH  11  36
TORSDOF 4
ENDMDL
MODEL 4
REMARK VINA RESULT:      -6.4      2.369      3.972
REMARK  Name = 
REMARK  7 active torsions:
REMARK  status: ('A' for Active; 'I' for Inactive)
REMARK    1  A    between atoms: C_1  and  C_2
REMARK    2  A    between atoms: C_2  and  C_3
REMARK    3  A    between atoms: C_8  and  N_9
REMARK    4  A    between atoms: C_12  and  N_15
REMARK    5  A    between atoms: C_21  and  C_22
REMARK    6  A    between atoms: C_21  and  C_23
REMARK    7  A    between atoms: C_30  and  C_33
REMARK                            x       y       z     vdW  Elec       q    Type
REMARK                         _______ _______ _______ _____ _____    ______ ____
ROOT
ATOM      1  C   UNL     1       4.653  -0.067  26.479  0.00  0.00    -0.026 A 
ATOM      2  C   UNL     1       5.075  -1.352  26.064  0.00  0.00    +0.033 A 
ATOM      3  C   UNL     1       6.284  -1.399  25.318  0.00  0.00    +0.028 A 
ATOM      4  C   UNL     1       7.096  -0.272  25.029  0.00  0.00    -0.023 A 
ATOM      5  C   UNL     1       8.373  -0.410  24.166  0.00  0.00    +0.032 C 
ATOM      6  C   UNL     1       9.050   0.938  24.010  0.00  0.00    +0.038 A 
ATOM      7  N   UNL     1      10.190   1.194  23.284  0.00  0.00    -0.357 N 
ATOM      8  H   UNL     1      10.719   0.514  22.758  0.00  0.00    +0.166 HD
ATOM      9  C   UNL     1      10.522   2.532  23.385  0.00  0.00    +0.049 A 
ATOM     10  C   UNL     1      11.590   3.245  22.828  0.00  0.00    +0.045 A 
ATOM     11  C   UNL     1      11.674   4.622  23.107  0.00  0.00    +0.054 A 
ATOM     12  C   UNL     1      10.718   5.252  23.906  0.00  0.00    +0.019 A 
ATOM     13  C   UNL     1       9.655   4.524  24.446  0.00  0.00    +0.012 A 
ATOM     14  C   UNL     1       9.555   3.141  24.182  0.00  0.00    +0.011 A 
ATOM     15  C   UNL     1       8.634   2.131  24.561  0.00  0.00    +0.051 A 
ATOM     16  C   UNL     1       7.447   2.227  25.375  0.00  0.00    +0.196 C 
ATOM     17  O   UNL     1       7.075   3.276  25.891  0.00  0.00    -0.287 OA
ATOM     18  C   UNL     1       7.992  -0.941  22.766  0.00  0.00    +0.022 C 
ATOM     19  C   UNL     1       9.359  -1.381  24.845  0.00  0.00    +0.022 C 
ATOM     20  C   UNL     1       6.679   0.963  25.550  0.00  0.00    +0.027 A 
ATOM     21  C   UNL     1       5.477   1.054  26.248  0.00  0.00    +0.017 A 
ENDROOT
BRANCH   2  22
ATOM     22  N   UNL     1       4.415  -2.534  26.369  0.00  0.00    -0.330 N 
ATOM     23  C   UNL     1       3.627  -3.320  25.416  0.00  0.00    +0.106 C 
ATOM     24  C   UNL     1       2.247  -3.565  26.023  0.00  0.00    +0.038 C 
ATOM     25  C   UNL     1       2.389  -4.423  27.294  0.00  0.00    +0.060 C 
ATOM     26  C   UNL     1       3.283  -3.609  28.261  0.00  0.00    +0.038 C 
ATOM     27  C   UNL     1       4.637  -3.243  27.642  0.00  0.00    +0.106 C 
BRANCH  25  28
ATOM     28  N   UNL     1       2.926  -5.778  26.986  0.00  0.00    -0.295 NA
ATOM     29  C   UNL     1       2.025  -6.586  26.124  0.00  0.00    +0.113 C 
ATOM     30  C   UNL     1       0.732  -7.017  26.836  0.00  0.00    +0.175 C 
ATOM     31  O   UNL     1       1.016  -7.751  28.035  0.00  0.00    -0.377 OA
ATOM     32  C   UNL     1       1.889  -7.023  28.910  0.00  0.00    +0.175 C 
ATOM     33  C   UNL     1       3.180  -6.601  28.190  0.00  0.00    +0.113 C 
ENDBRANCH  25  28
ENDBRANCH   2  22
BRANCH   1  35
ATOM     34  C   UNL     1       3.471   0.219  28.655  0.00  0.00    +0.009 C 
ATOM     35  C   UNL     1       3.333   0.274  27.132  0.00  0.00    +0.033 C 
ENDBRANCH   1  35
BRANCH  11  36
ATOM     36  C   UNL     1      12.756   5.391  22.564  0.00  0.00    +0.099 C 
ATOM     37  N   UNL     1      13.635   6.006  22.121  0.00  0.00    -0.191 NA
ENDBRANCH  11  36
TORSDOF 4
ENDMDL
MODEL 5
REMARK VINA RESULT:      -6.4      2.519      3.992
REMARK  Name = 
REMARK  7 active torsions:
REMARK  status: ('A' for Active; 'I' for Inactive)
REMARK    1  A    between atoms: C_1  and  C_2
REMARK    2  A    between atoms: C_2  and  C_3
REMARK    3  A    between atoms: C_8  and  N_9
REMARK    4  A    between atoms: C_12  and  N_15
REMARK    5  A    between atoms: C_21  and  C_22
REMARK    6  A    between atoms: C_21  and  C_23
REMARK    7  A    between atoms: C_30  and  C_33
REMARK                            x       y       z     vdW  Elec       q    Type
REMARK                         _______ _______ _______ _____ _____    ______ ____
ROOT
ATOM      1  C   UNL     1       4.411   0.294  26.660  0.00  0.00    -0.026 A 
ATOM      2  C   UNL     1       4.873  -1.025  26.445  0.00  0.00    +0.033 A 
ATOM      3  C   UNL     1       6.135  -1.146  25.802  0.00  0.00    +0.028 A 
ATOM      4  C   UNL     1       6.957  -0.051  25.429  0.00  0.00    -0.023 A 
ATOM      5  C   UNL     1       8.295  -0.276  24.686  0.00  0.00    +0.032 C 
ATOM      6  C   UNL     1       8.970   1.053  24.407  0.00  0.00    +0.038 A 
ATOM      7  N   UNL     1      10.159   1.235  23.739  0.00  0.00    -0.357 N 
ATOM      8  H   UNL     1      10.732   0.503  23.345  0.00  0.00    +0.166 HD
ATOM      9  C   UNL     1      10.472   2.580  23.690  0.00  0.00    +0.049 A 
ATOM     10  C   UNL     1      11.572   3.236  23.125  0.00  0.00    +0.045 A 
ATOM     11  C   UNL     1      11.623   4.639  23.230  0.00  0.00    +0.054 A 
ATOM     12  C   UNL     1      10.605   5.348  23.869  0.00  0.00    +0.019 A 
ATOM     13  C   UNL     1       9.511   4.677  24.421  0.00  0.00    +0.012 A 
ATOM     14  C   UNL     1       9.443   3.270  24.330  0.00  0.00    +0.011 A 
ATOM     15  C   UNL     1       8.504   2.299  24.768  0.00  0.00    +0.051 A 
ATOM     16  C   UNL     1       7.260   2.478  25.474  0.00  0.00    +0.196 C 
ATOM     17  O   UNL     1       6.842   3.578  25.823  0.00  0.00    -0.287 OA
ATOM     18  C   UNL     1       8.024  -0.988  23.342  0.00  0.00    +0.022 C 
ATOM     19  C   UNL     1       9.236  -1.134  25.555  0.00  0.00    +0.022 C 
ATOM     20  C   UNL     1       6.492   1.233  25.755  0.00  0.00    +0.027 A 
ATOM     21  C   UNL     1       5.240   1.391  26.346  0.00  0.00    +0.017 A 
ENDROOT
BRANCH   2  22
ATOM     22  N   UNL     1       4.202  -2.171  26.851  0.00  0.00    -0.330 N 
ATOM     23  C   UNL     1       4.192  -2.689  28.222  0.00  0.00    +0.106 C 
ATOM     24  C   UNL     1       4.609  -4.158  28.181  0.00  0.00    +0.038 C 
ATOM     25  C   UNL     1       3.564  -4.968  27.392  0.00  0.00    +0.060 C 
ATOM     26  C   UNL     1       3.537  -4.361  25.969  0.00  0.00    +0.038 C 
ATOM     27  C   UNL     1       3.235  -2.857  25.977  0.00  0.00    +0.106 C 
BRANCH  25  28
ATOM     28  N   UNL     1       2.236  -4.959  28.068  0.00  0.00    -0.295 NA
ATOM     29  C   UNL     1       2.250  -5.614  29.402  0.00  0.00    +0.113 C 
ATOM     30  C   UNL     1       2.449  -7.136  29.326  0.00  0.00    +0.175 C 
ATOM     31  O   UNL     1       1.443  -7.754  28.511  0.00  0.00    -0.377 OA
ATOM     32  C   UNL     1       1.378  -7.160  27.208  0.00  0.00    +0.175 C 
ATOM     33  C   UNL     1       1.174  -5.640  27.294  0.00  0.00    +0.113 C 
ENDBRANCH  25  28
ENDBRANCH   2  22
BRANCH   1  35
ATOM     34  C   UNL     1       3.083   0.894  28.681  0.00  0.00    +0.009 C 
ATOM     35  C   UNL     1       3.043   0.692  27.166  0.00  0.00    +0.033 C 
ENDBRANCH   1  35
BRANCH  11  36
ATOM     36  C   UNL     1      12.736   5.350  22.672  0.00  0.00    +0.099 C 
ATOM     37  N   UNL     1      13.639   5.920  22.217  0.00  0.00    -0.191 NA
ENDBRANCH  11  36
TORSDOF 4
ENDMDL
MODEL 6
REMARK VINA RESULT:      -5.8      1.910      3.209
REMARK  Name = 
REMARK  7 active torsions:
REMARK  status: ('A' for Active; 'I' for Inactive)
REMARK    1  A    between atoms: C_1  and  C_2
REMARK    2  A    between atoms: C_2  and  C_3
REMARK    3  A    between atoms: C_8  and  N_9
REMARK    4  A    between atoms: C_12  and  N_15
REMARK    5  A    between atoms: C_21  and  C_22
REMARK    6  A    between atoms: C_21  and  C_23
REMARK    7  A    between atoms: C_30  and  C_33
REMARK                            x       y       z     vdW  Elec       q    Type
REMARK                         _______ _______ _______ _____ _____    ______ ____
ROOT
ATOM      1  C   UNL     1       3.378  -1.975  26.371  0.00  0.00    -0.026 A 
ATOM      2  C   UNL     1       3.787  -3.175  25.743  0.00  0.00    +0.033 A 
ATOM      3  C   UNL     1       4.984  -3.101  24.981  0.00  0.00    +0.028 A 
ATOM      4  C   UNL     1       5.797  -1.943  24.868  0.00  0.00    -0.023 A 
ATOM      5  C   UNL     1       7.059  -1.940  23.973  0.00  0.00    +0.032 C 
ATOM      6  C   UNL     1       7.739  -0.585  24.030  0.00  0.00    +0.038 A 
ATOM      7  N   UNL     1       8.869  -0.215  23.338  0.00  0.00    -0.357 N 
ATOM      8  H   UNL     1       9.387  -0.800  22.699  0.00  0.00    +0.166 HD
ATOM      9  C   UNL     1       9.209   1.087  23.652  0.00  0.00    +0.049 A 
ATOM     10  C   UNL     1      10.271   1.881  23.203  0.00  0.00    +0.045 A 
ATOM     11  C   UNL     1      10.365   3.194  23.703  0.00  0.00    +0.054 A 
ATOM     12  C   UNL     1       9.424   3.685  24.610  0.00  0.00    +0.019 A 
ATOM     13  C   UNL     1       8.366   2.880  25.041  0.00  0.00    +0.012 A 
ATOM     14  C   UNL     1       8.257   1.559  24.555  0.00  0.00    +0.011 A 
ATOM     15  C   UNL     1       7.337   0.502  24.777  0.00  0.00    +0.051 A 
ATOM     16  C   UNL     1       6.163   0.465  25.614  0.00  0.00    +0.196 C 
ATOM     17  O   UNL     1       5.804   1.415  26.302  0.00  0.00    -0.287 OA
ATOM     18  C   UNL     1       6.654  -2.232  22.511  0.00  0.00    +0.022 C 
ATOM     19  C   UNL     1       8.052  -3.011  24.468  0.00  0.00    +0.022 C 
ATOM     20  C   UNL     1       5.393  -0.810  25.591  0.00  0.00    +0.027 A 
ATOM     21  C   UNL     1       4.202  -0.833  26.314  0.00  0.00    +0.017 A 
ENDROOT
BRANCH   2  22
ATOM     22  N   UNL     1       3.127  -4.390  25.861  0.00  0.00    -0.330 N 
ATOM     23  C   UNL     1       2.398  -4.832  27.053  0.00  0.00    +0.106 C 
ATOM     24  C   UNL     1       2.915  -6.215  27.444  0.00  0.00    +0.038 C 
ATOM     25  C   UNL     1       2.588  -7.222  26.326  0.00  0.00    +0.060 C 
ATOM     26  C   UNL     1       3.307  -6.701  25.058  0.00  0.00    +0.038 C 
ATOM     27  C   UNL     1       2.899  -5.267  24.699  0.00  0.00    +0.106 C 
BRANCH  25  28
ATOM     28  N   UNL     1       1.119  -7.391  26.150  0.00  0.00    -0.295 NA
ATOM     29  C   UNL     1       0.443  -7.952  27.349  0.00  0.00    +0.113 C 
ATOM     30  C   UNL     1       0.804  -9.423  27.614  0.00  0.00    +0.175 C 
ATOM     31  O   UNL     1       0.505 -10.247  26.478  0.00  0.00    -0.377 OA
ATOM     32  C   UNL     1       1.127  -9.752  25.285  0.00  0.00    +0.175 C 
ATOM     33  C   UNL     1       0.756  -8.284  25.026  0.00  0.00    +0.113 C 
ENDBRANCH  25  28
ENDBRANCH   2  22
BRANCH   1  35
ATOM     34  C   UNL     1       2.330  -1.442  28.569  0.00  0.00    +0.009 C 
ATOM     35  C   UNL     1       2.069  -1.744  27.092  0.00  0.00    +0.033 C 
ENDBRANCH   1  35
BRANCH  11  36
ATOM     36  C   UNL     1      11.441   4.039  23.277  0.00  0.00    +0.099 C 
ATOM     37  N   UNL     1      12.313   4.727  22.939  0.00  0.00    -0.191 NA
ENDBRANCH  11  36
TORSDOF 4
ENDMDL
MODEL 7
REMARK VINA RESULT:      -5.0      2.547     10.749
REMARK  Name = 
REMARK  7 active torsions:
REMARK  status: ('A' for Active; 'I' for Inactive)
REMARK    1  A    between atoms: C_1  and  C_2
REMARK    2  A    between atoms: C_2  and  C_3
REMARK    3  A    between atoms: C_8  and  N_9
REMARK    4  A    between atoms: C_12  and  N_15
REMARK    5  A    between atoms: C_21  and  C_22
REMARK    6  A    between atoms: C_21  and  C_23
REMARK    7  A    between atoms: C_30  and  C_33
REMARK                            x       y       z     vdW  Elec       q    Type
REMARK                         _______ _______ _______ _____ _____    ______ ____
ROOT
ATOM      1  C   UNL     1       6.719  -1.160  23.385  0.00  0.00    -0.026 A 
ATOM      2  C   UNL     1       6.366  -0.187  24.348  0.00  0.00    +0.033 A 
ATOM      3  C   UNL     1       5.445  -0.606  25.348  0.00  0.00    +0.028 A 
ATOM      4  C   UNL     1       4.925  -1.921  25.463  0.00  0.00    -0.023 A 
ATOM      5  C   UNL     1       3.887  -2.274  26.554  0.00  0.00    +0.032 C 
ATOM      6  C   UNL     1       3.499  -3.737  26.455  0.00  0.00    +0.038 A 
ATOM      7  N   UNL     1       2.580  -4.388  27.246  0.00  0.00    -0.357 N 
ATOM      8  H   UNL     1       2.044  -3.970  27.992  0.00  0.00    +0.166 HD
ATOM      9  C   UNL     1       2.499  -5.717  26.878  0.00  0.00    +0.049 A 
ATOM     10  C   UNL     1       1.715  -6.755  27.395  0.00  0.00    +0.045 A 
ATOM     11  C   UNL     1       1.846  -8.029  26.809  0.00  0.00    +0.054 A 
ATOM     12  C   UNL     1       2.723  -8.242  25.744  0.00  0.00    +0.019 A 
ATOM     13  C   UNL     1       3.492  -7.192  25.238  0.00  0.00    +0.012 A 
ATOM     14  C   UNL     1       3.379  -5.909  25.814  0.00  0.00    +0.011 A 
ATOM     15  C   UNL     1       3.994  -4.656  25.555  0.00  0.00    +0.051 A 
ATOM     16  C   UNL     1       4.973  -4.301  24.557  0.00  0.00    +0.196 C 
ATOM     17  O   UNL     1       5.440  -5.111  23.763  0.00  0.00    -0.287 OA
ATOM     18  C   UNL     1       2.622  -1.409  26.360  0.00  0.00    +0.022 C 
ATOM     19  C   UNL     1       4.490  -2.018  27.950  0.00  0.00    +0.022 C 
ATOM     20  C   UNL     1       5.387  -2.870  24.538  0.00  0.00    +0.027 A 
ATOM     21  C   UNL     1       6.255  -2.485  23.519  0.00  0.00    +0.017 A 
ENDROOT
BRANCH   2  22
ATOM     22  N   UNL     1       6.882   1.100  24.393  0.00  0.00    -0.330 N 
ATOM     23  C   UNL     1       6.442   2.207  23.540  0.00  0.00    +0.106 C 
ATOM     24  C   UNL     1       7.673   2.813  22.868  0.00  0.00    +0.038 C 
ATOM     25  C   UNL     1       8.597   3.421  23.940  0.00  0.00    +0.060 C 
ATOM     26  C   UNL     1       8.995   2.252  24.874  0.00  0.00    +0.038 C 
ATOM     27  C   UNL     1       7.777   1.542  25.478  0.00  0.00    +0.106 C 
BRANCH  25  28
ATOM     28  N   UNL     1       7.943   4.555  24.651  0.00  0.00    -0.295 NA
ATOM     29  C   UNL     1       7.382   5.580  23.733  0.00  0.00    +0.113 C 
ATOM     30  C   UNL     1       8.462   6.380  22.988  0.00  0.00    +0.175 C 
ATOM     31  O   UNL     1       9.367   7.014  23.903  0.00  0.00    -0.377 OA
ATOM     32  C   UNL     1       9.940   6.074  24.821  0.00  0.00    +0.175 C 
ATOM     33  C   UNL     1       8.852   5.283  25.565  0.00  0.00    +0.113 C 
ENDBRANCH  25  28
ENDBRANCH   2  22
BRANCH   1  35
ATOM     34  C   UNL     1       8.966  -1.437  22.342  0.00  0.00    +0.009 C 
ATOM     35  C   UNL     1       7.539  -0.927  22.136  0.00  0.00    +0.033 C 
ENDBRANCH   1  35
BRANCH  11  36
ATOM     36  C   UNL     1       1.067  -9.123  27.312  0.00  0.00    +0.099 C 
ATOM     37  N   UNL     1       0.443 -10.014  27.717  0.00  0.00    -0.191 NA
ENDBRANCH  11  36
TORSDOF 4
ENDMDL
MODEL 8
REMARK VINA RESULT:      -4.9      1.631      2.330
REMARK  Name = 
REMARK  7 active torsions:
REMARK  status: ('A' for Active; 'I' for Inactive)
REMARK    1  A    between atoms: C_1  and  C_2
REMARK    2  A    between atoms: C_2  and  C_3
REMARK    3  A    between atoms: C_8  and  N_9
REMARK    4  A    between atoms: C_12  and  N_15
REMARK    5  A    between atoms: C_21  and  C_22
REMARK    6  A    between atoms: C_21  and  C_23
REMARK    7  A    between atoms: C_30  and  C_33
REMARK                            x       y       z     vdW  Elec       q    Type
REMARK                         _______ _______ _______ _____ _____    ______ ____
ROOT
ATOM      1  C   UNL     1       7.893  -3.618  24.541  0.00  0.00    -0.026 A 
ATOM      2  C   UNL     1       6.555  -3.237  24.798  0.00  0.00    +0.033 A 
ATOM      3  C   UNL     1       6.312  -1.839  24.879  0.00  0.00    +0.028 A 
ATOM      4  C   UNL     1       7.293  -0.836  24.665  0.00  0.00    -0.023 A 
ATOM      5  C   UNL     1       6.949   0.663  24.824  0.00  0.00    +0.032 C 
ATOM      6  C   UNL     1       8.171   1.516  24.540  0.00  0.00    +0.038 A 
ATOM      7  N   UNL     1       8.238   2.887  24.616  0.00  0.00    -0.357 N 
ATOM      8  H   UNL     1       7.480   3.502  24.874  0.00  0.00    +0.166 HD
ATOM      9  C   UNL     1       9.506   3.317  24.272  0.00  0.00    +0.049 A 
ATOM     10  C   UNL     1      10.037   4.610  24.200  0.00  0.00    +0.045 A 
ATOM     11  C   UNL     1      11.384   4.744  23.815  0.00  0.00    +0.054 A 
ATOM     12  C   UNL     1      12.162   3.622  23.524  0.00  0.00    +0.019 A 
ATOM     13  C   UNL     1      11.616   2.339  23.608  0.00  0.00    +0.012 A 
ATOM     14  C   UNL     1      10.266   2.183  23.988  0.00  0.00    +0.011 A 
ATOM     15  C   UNL     1       9.417   1.060  24.168  0.00  0.00    +0.051 A 
ATOM     16  C   UNL     1       9.706  -0.344  24.013  0.00  0.00    +0.196 C 
ATOM     17  O   UNL     1      10.803  -0.765  23.660  0.00  0.00    -0.287 OA
ATOM     18  C   UNL     1       6.479   0.932  26.271  0.00  0.00    +0.022 C 
ATOM     19  C   UNL     1       5.836   1.051  23.830  0.00  0.00    +0.022 C 
ATOM     20  C   UNL     1       8.581  -1.272  24.316  0.00  0.00    +0.027 A 
ATOM     21  C   UNL     1       8.866  -2.635  24.270  0.00  0.00    +0.017 A 
ENDROOT
BRANCH   2  22
ATOM     22  N   UNL     1       5.495  -4.123  24.930  0.00  0.00    -0.330 N 
ATOM     23  C   UNL     1       5.412  -5.429  24.272  0.00  0.00    +0.106 C 
ATOM     24  C   UNL     1       4.078  -5.508  23.531  0.00  0.00    +0.038 C 
ATOM     25  C   UNL     1       2.922  -5.449  24.546  0.00  0.00    +0.060 C 
ATOM     26  C   UNL     1       3.067  -4.094  25.282  0.00  0.00    +0.038 C 
ATOM     27  C   UNL     1       4.442  -3.930  25.943  0.00  0.00    +0.106 C 
BRANCH  25  28
ATOM     28  N   UNL     1       2.930  -6.626  25.459  0.00  0.00    -0.295 NA
ATOM     29  C   UNL     1       2.878  -7.926  24.742  0.00  0.00    +0.113 C 
ATOM     30  C   UNL     1       1.525  -8.187  24.060  0.00  0.00    +0.175 C 
ATOM     31  O   UNL     1       0.445  -8.126  25.001  0.00  0.00    -0.377 OA
ATOM     32  C   UNL     1       0.445  -6.891  25.730  0.00  0.00    +0.175 C 
ATOM     33  C   UNL     1       1.799  -6.643  26.413  0.00  0.00    +0.113 C 
ENDBRANCH  25  28
ENDBRANCH   2  22
BRANCH   1  35
ATOM     34  C   UNL     1       9.223  -5.256  25.867  0.00  0.00    +0.009 C 
ATOM     35  C   UNL     1       8.443  -5.027  24.572  0.00  0.00    +0.033 C 
ENDBRANCH   1  35
BRANCH  11  36
ATOM     36  C   UNL     1      11.967   6.051  23.720  0.00  0.00    +0.099 C 
ATOM     37  N   UNL     1      12.441   7.108  23.651  0.00  0.00    -0.191 NA
ENDBRANCH  11  36
TORSDOF 4
ENDMDL
MODEL 9
REMARK VINA RESULT:      -4.6      2.210     10.727
REMARK  Name = 
REMARK  7 active torsions:
REMARK  status: ('A' for Active; 'I' for Inactive)
REMARK    1  A    between atoms: C_1  and  C_2
REMARK    2  A    between atoms: C_2  and  C_3
REMARK    3  A    between atoms: C_8  and  N_9
REMARK    4  A    between atoms: C_12  and  N_15
REMARK    5  A    between atoms: C_21  and  C_22
REMARK    6  A    between atoms: C_21  and  C_23
REMARK    7  A    between atoms: C_30  and  C_33
REMARK                            x       y       z     vdW  Elec       q    Type
REMARK                         _______ _______ _______ _____ _____    ______ ____
ROOT
ATOM      1  C   UNL     1       7.611  -1.095  22.875  0.00  0.00    -0.026 A 
ATOM      2  C   UNL     1       7.445  -0.072  23.838  0.00  0.00    +0.033 A 
ATOM      3  C   UNL     1       6.533  -0.351  24.892  0.00  0.00    +0.028 A 
ATOM      4  C   UNL     1       5.847  -1.582  25.058  0.00  0.00    -0.023 A 
ATOM      5  C   UNL     1       4.832  -1.780  26.209  0.00  0.00    +0.032 C 
ATOM      6  C   UNL     1       4.245  -3.177  26.157  0.00  0.00    +0.038 A 
ATOM      7  N   UNL     1       3.292  -3.689  27.007  0.00  0.00    -0.357 N 
ATOM      8  H   UNL     1       2.858  -3.194  27.773  0.00  0.00    +0.166 HD
ATOM      9  C   UNL     1       3.012  -4.999  26.668  0.00  0.00    +0.049 A 
ATOM     10  C   UNL     1       2.124  -5.915  27.244  0.00  0.00    +0.045 A 
ATOM     11  C   UNL     1       2.049  -7.201  26.676  0.00  0.00    +0.054 A 
ATOM     12  C   UNL     1       2.830  -7.543  25.570  0.00  0.00    +0.019 A 
ATOM     13  C   UNL     1       3.705  -6.612  25.004  0.00  0.00    +0.012 A 
ATOM     14  C   UNL     1       3.798  -5.319  25.562  0.00  0.00    +0.011 A 
ATOM     15  C   UNL     1       4.561  -4.164  25.249  0.00  0.00    +0.051 A 
ATOM     16  C   UNL     1       5.523  -3.957  24.194  0.00  0.00    +0.196 C 
ATOM     17  O   UNL     1       5.832  -4.831  23.391  0.00  0.00    -0.287 OA
ATOM     18  C   UNL     1       3.687  -0.753  26.067  0.00  0.00    +0.022 C 
ATOM     19  C   UNL     1       5.540  -1.593  27.566  0.00  0.00    +0.022 C 
ATOM     20  C   UNL     1       6.125  -2.595  24.127  0.00  0.00    +0.027 A 
ATOM     21  C   UNL     1       6.980  -2.342  23.057  0.00  0.00    +0.017 A 
ENDROOT
BRANCH   2  22
ATOM     22  N   UNL     1       8.133   1.134  23.833  0.00  0.00    -0.330 N 
ATOM     23  C   UNL     1       9.488   1.319  23.307  0.00  0.00    +0.106 C 
ATOM     24  C   UNL     1      10.333   1.991  24.387  0.00  0.00    +0.038 C 
ATOM     25  C   UNL     1       9.774   3.397  24.678  0.00  0.00    +0.060 C 
ATOM     26  C   UNL     1       8.319   3.186  25.164  0.00  0.00    +0.038 C 
ATOM     27  C   UNL     1       7.468   2.410  24.151  0.00  0.00    +0.106 C 
BRANCH  25  28
ATOM     28  N   UNL     1       9.881   4.288  23.489  0.00  0.00    -0.295 NA
ATOM     29  C   UNL     1      11.281   4.503  23.039  0.00  0.00    +0.113 C 
ATOM     30  C   UNL     1      12.108   5.347  24.022  0.00  0.00    +0.175 C 
ATOM     31  O   UNL     1      11.493   6.619  24.266  0.00  0.00    -0.377 OA
ATOM     32  C   UNL     1      10.133   6.477  24.700  0.00  0.00    +0.175 C 
ATOM     33  C   UNL     1       9.313   5.637  23.708  0.00  0.00    +0.113 C 
ENDBRANCH  25  28
ENDBRANCH   2  22
BRANCH   1  35
ATOM     34  C   UNL     1       9.806  -1.517  21.774  0.00  0.00    +0.009 C 
ATOM     35  C   UNL     1       8.384  -0.988  21.580  0.00  0.00    +0.033 C 
ENDBRANCH   1  35
BRANCH  11  36
ATOM     36  C   UNL     1       1.159  -8.174  27.238  0.00  0.00    +0.099 C 
ATOM     37  N   UNL     1       0.445  -8.967  27.694  0.00  0.00    -0.191 NA
ENDBRANCH  11  36
TORSDOF 4
ENDMDL
