MODEL 1
REMARK VINA RESULT:      -3.7      0.000      0.000
REMARK  Name = 
REMARK  6 active torsions:
REMARK  status: ('A' for Active; 'I' for Inactive)
REMARK    1  A    between atoms: C_1  and  C_2
REMARK    2  A    between atoms: C_2  and  C_3
REMARK    3  A    between atoms: C_3  and  C_4
REMARK    4  A    between atoms: C_3  and  N_5
REMARK    5  A    between atoms: C_3  and  C_6
REMARK    6  A    between atoms: C_6  and  O_7
REMARK                            x       y       z     vdW  Elec       q    Type
REMARK                         _______ _______ _______ _____ _____    ______ ____
ROOT
ATOM      1  C   UNL     1       9.768  -0.017  23.234  0.00  0.00    +0.111 C 
ATOM      2  C   UNL     1      10.742   0.440  24.324  0.00  0.00    +0.039 C 
ENDROOT
BRANCH   1   3
ATOM      3  N   UNL     1       8.372  -0.006  23.776  0.00  0.00    -0.316 NA
ATOM      4  H   UNL     1       7.744   0.306  23.026  0.00  0.00    +0.119 HD
ATOM      5  H   UNL     1       8.086  -0.975  23.942  0.00  0.00    +0.119 HD
ENDBRANCH   1   3
BRANCH   1   7
ATOM      6  C   UNL     1       8.582   1.574  21.557  0.00  0.00    +0.006 C 
ATOM      7  C   UNL     1       9.858   0.836  21.952  0.00  0.00    +0.030 C 
ENDBRANCH   1   7
BRANCH   1   8
ATOM      8  C   UNL     1      10.093  -1.479  22.831  0.00  0.00    +0.325 C 
ATOM      9  O   UNL     1      10.214  -2.422  23.595  0.00  0.00    -0.249 OA
BRANCH   8  10
ATOM     10  O   UNL     1      10.255  -1.583  21.484  0.00  0.00    -0.479 OA
ATOM     11  H   UNL     1       9.355  -1.767  21.117  0.00  0.00    +0.295 HD
ENDBRANCH   8  10
ENDBRANCH   1   8
TORSDOF 4
ENDMDL
MODEL 2
REMARK VINA RESULT:      -3.7      5.247      6.011
REMARK  Name = 
REMARK  6 active torsions:
REMARK  status: ('A' for Active; 'I' for Inactive)
REMARK    1  A    between atoms: C_1  and  C_2
REMARK    2  A    between atoms: C_2  and  C_3
REMARK    3  A    between atoms: C_3  and  C_4
REMARK    4  A    between atoms: C_3  and  N_5
REMARK    5  A    between atoms: C_3  and  C_6
REMARK    6  A    between atoms: C_6  and  O_7
REMARK                            x       y       z     vdW  Elec       q    Type
REMARK                         _______ _______ _______ _____ _____    ______ ____
ROOT
ATOM      1  C   UNL     1       8.088  -4.685  25.999  0.00  0.00    +0.111 C 
ATOM      2  C   UNL     1       7.855  -3.266  26.523  0.00  0.00    +0.039 C 
ENDROOT
BRANCH   1   3
ATOM      3  N   UNL     1       8.147  -5.639  27.152  0.00  0.00    -0.316 NA
ATOM      4  H   UNL     1       7.198  -5.733  27.534  0.00  0.00    +0.119 HD
ATOM      5  H   UNL     1       8.352  -6.572  26.785  0.00  0.00    +0.119 HD
ENDBRANCH   1   3
BRANCH   1   7
ATOM      6  C   UNL     1       5.755  -5.747  25.575  0.00  0.00    +0.006 C 
ATOM      7  C   UNL     1       7.019  -5.133  24.981  0.00  0.00    +0.030 C 
ENDBRANCH   1   7
BRANCH   1   8
ATOM      8  C   UNL     1       9.459  -4.751  25.277  0.00  0.00    +0.325 C 
ATOM      9  O   UNL     1       9.859  -3.972  24.428  0.00  0.00    -0.249 OA
BRANCH   8  10
ATOM     10  O   UNL     1      10.176  -5.827  25.702  0.00  0.00    -0.479 OA
ATOM     11  H   UNL     1      10.674  -5.522  26.500  0.00  0.00    +0.295 HD
ENDBRANCH   8  10
ENDBRANCH   1   8
TORSDOF 4
ENDMDL
MODEL 3
REMARK VINA RESULT:      -3.6      4.792      5.917
REMARK  Name = 
REMARK  6 active torsions:
REMARK  status: ('A' for Active; 'I' for Inactive)
REMARK    1  A    between atoms: C_1  and  C_2
REMARK    2  A    between atoms: C_2  and  C_3
REMARK    3  A    between atoms: C_3  and  C_4
REMARK    4  A    between atoms: C_3  and  N_5
REMARK    5  A    between atoms: C_3  and  C_6
REMARK    6  A    between atoms: C_6  and  O_7
REMARK                            x       y       z     vdW  Elec       q    Type
REMARK                         _______ _______ _______ _____ _____    ______ ____
ROOT
ATOM      1  C   UNL     1       8.582  -4.957  25.017  0.00  0.00    +0.111 C 
ATOM      2  C   UNL     1       7.961  -5.234  23.646  0.00  0.00    +0.039 C 
ENDROOT
BRANCH   1   3
ATOM      3  N   UNL     1       9.811  -5.796  25.187  0.00  0.00    -0.316 NA
ATOM      4  H   UNL     1      10.623  -5.226  24.922  0.00  0.00    +0.119 HD
ATOM      5  H   UNL     1       9.950  -5.961  26.188  0.00  0.00    +0.119 HD
ENDBRANCH   1   3
BRANCH   1   7
ATOM      6  C   UNL     1       9.655  -2.776  24.099  0.00  0.00    +0.006 C 
ATOM      7  C   UNL     1       8.910  -3.466  25.238  0.00  0.00    +0.030 C 
ENDBRANCH   1   7
BRANCH   1   8
ATOM      8  C   UNL     1       7.585  -5.372  26.130  0.00  0.00    +0.325 C 
ATOM      9  O   UNL     1       6.369  -5.387  26.032  0.00  0.00    -0.249 OA
BRANCH   8  10
ATOM     10  O   UNL     1       8.247  -5.706  27.271  0.00  0.00    -0.479 OA
ATOM     11  H   UNL     1       9.182  -5.414  27.136  0.00  0.00    +0.295 HD
ENDBRANCH   8  10
ENDBRANCH   1   8
TORSDOF 4
ENDMDL
MODEL 4
REMARK VINA RESULT:      -3.5      2.594      3.246
REMARK  Name = 
REMARK  6 active torsions:
REMARK  status: ('A' for Active; 'I' for Inactive)
REMARK    1  A    between atoms: C_1  and  C_2
REMARK    2  A    between atoms: C_2  and  C_3
REMARK    3  A    between atoms: C_3  and  C_4
REMARK    4  A    between atoms: C_3  and  N_5
REMARK    5  A    between atoms: C_3  and  C_6
REMARK    6  A    between atoms: C_6  and  O_7
REMARK                            x       y       z     vdW  Elec       q    Type
REMARK                         _______ _______ _______ _____ _____    ______ ____
ROOT
ATOM      1  C   UNL     1       9.331   0.019  22.350  0.00  0.00    +0.111 C 
ATOM      2  C   UNL     1      10.453   0.181  23.378  0.00  0.00    +0.039 C 
ENDROOT
BRANCH   1   3
ATOM      3  N   UNL     1       9.789  -0.886  21.249  0.00  0.00    -0.316 NA
ATOM      4  H   UNL     1      10.702  -0.549  20.921  0.00  0.00    +0.119 HD
ATOM      5  H   UNL     1      10.001  -1.801  21.654  0.00  0.00    +0.119 HD
ENDBRANCH   1   3
BRANCH   1   7
ATOM      6  C   UNL     1       7.653  -1.945  22.627  0.00  0.00    +0.006 C 
ATOM      7  C   UNL     1       8.019  -0.504  22.970  0.00  0.00    +0.030 C 
ENDBRANCH   1   7
BRANCH   1   8
ATOM      8  C   UNL     1       9.014   1.397  21.711  0.00  0.00    +0.325 C 
ATOM      9  O   UNL     1       7.913   1.786  21.359  0.00  0.00    -0.249 OA
BRANCH   8  10
ATOM     10  O   UNL     1      10.149   2.133  21.566  0.00  0.00    -0.479 OA
ATOM     11  H   UNL     1      10.859   1.489  21.323  0.00  0.00    +0.295 HD
ENDBRANCH   8  10
ENDBRANCH   1   8
TORSDOF 4
ENDMDL
MODEL 5
REMARK VINA RESULT:      -3.5      2.273      2.681
REMARK  Name = 
REMARK  6 active torsions:
REMARK  status: ('A' for Active; 'I' for Inactive)
REMARK    1  A    between atoms: C_1  and  C_2
REMARK    2  A    between atoms: C_2  and  C_3
REMARK    3  A    between atoms: C_3  and  C_4
REMARK    4  A    between atoms: C_3  and  N_5
REMARK    5  A    between atoms: C_3  and  C_6
REMARK    6  A    between atoms: C_6  and  O_7
REMARK                            x       y       z     vdW  Elec       q    Type
REMARK                         _______ _______ _______ _____ _____    ______ ____
ROOT
ATOM      1  C   UNL     1       9.770   1.332  23.696  0.00  0.00    +0.111 C 
ATOM      2  C   UNL     1      10.947   0.690  24.435  0.00  0.00    +0.039 C 
ENDROOT
BRANCH   1   3
ATOM      3  N   UNL     1       8.499   0.647  24.092  0.00  0.00    -0.316 NA
ATOM      4  H   UNL     1       8.010   0.367  23.233  0.00  0.00    +0.119 HD
ATOM      5  H   UNL     1       8.740  -0.246  24.532  0.00  0.00    +0.119 HD
ENDBRANCH   1   3
BRANCH   1   7
ATOM      6  C   UNL     1       8.534   3.296  24.864  0.00  0.00    +0.006 C 
ATOM      7  C   UNL     1       9.664   2.852  23.941  0.00  0.00    +0.030 C 
ENDBRANCH   1   7
BRANCH   1   8
ATOM      8  C   UNL     1       9.946   1.130  22.169  0.00  0.00    +0.325 C 
ATOM      9  O   UNL     1       9.855   0.070  21.572  0.00  0.00    -0.249 OA
BRANCH   8  10
ATOM     10  O   UNL     1      10.247   2.308  21.557  0.00  0.00    -0.479 OA
ATOM     11  H   UNL     1      10.240   2.118  20.587  0.00  0.00    +0.295 HD
ENDBRANCH   8  10
ENDBRANCH   1   8
TORSDOF 4
ENDMDL
MODEL 6
REMARK VINA RESULT:      -3.5      1.642      2.364
REMARK  Name = 
REMARK  6 active torsions:
REMARK  status: ('A' for Active; 'I' for Inactive)
REMARK    1  A    between atoms: C_1  and  C_2
REMARK    2  A    between atoms: C_2  and  C_3
REMARK    3  A    between atoms: C_3  and  C_4
REMARK    4  A    between atoms: C_3  and  N_5
REMARK    5  A    between atoms: C_3  and  C_6
REMARK    6  A    between atoms: C_6  and  O_7
REMARK                            x       y       z     vdW  Elec       q    Type
REMARK                         _______ _______ _______ _____ _____    ______ ____
ROOT
ATOM      1  C   UNL     1       9.051   0.251  22.407  0.00  0.00    +0.111 C 
ATOM      2  C   UNL     1       7.773   0.505  23.210  0.00  0.00    +0.039 C 
ENDROOT
BRANCH   1   3
ATOM      3  N   UNL     1       9.026   1.075  21.157  0.00  0.00    -0.316 NA
ATOM      4  H   UNL     1       8.894   0.440  20.361  0.00  0.00    +0.119 HD
ATOM      5  H   UNL     1       8.170   1.637  21.161  0.00  0.00    +0.119 HD
ENDBRANCH   1   3
BRANCH   1   7
ATOM      6  C   UNL     1      10.281   0.159  24.693  0.00  0.00    +0.006 C 
ATOM      7  C   UNL     1      10.334   0.531  23.214  0.00  0.00    +0.030 C 
ENDBRANCH   1   7
BRANCH   1   8
ATOM      8  C   UNL     1       9.101  -1.238  21.975  0.00  0.00    +0.325 C 
ATOM      9  O   UNL     1       8.192  -2.044  22.078  0.00  0.00    -0.249 OA
BRANCH   8  10
ATOM     10  O   UNL     1      10.326  -1.552  21.472  0.00  0.00    -0.479 OA
ATOM     11  H   UNL     1      10.443  -2.521  21.632  0.00  0.00    +0.295 HD
ENDBRANCH   8  10
ENDBRANCH   1   8
TORSDOF 4
ENDMDL
MODEL 7
REMARK VINA RESULT:      -3.5      2.365      3.266
REMARK  Name = 
REMARK  6 active torsions:
REMARK  status: ('A' for Active; 'I' for Inactive)
REMARK    1  A    between atoms: C_1  and  C_2
REMARK    2  A    between atoms: C_2  and  C_3
REMARK    3  A    between atoms: C_3  and  C_4
REMARK    4  A    between atoms: C_3  and  N_5
REMARK    5  A    between atoms: C_3  and  C_6
REMARK    6  A    between atoms: C_6  and  O_7
REMARK                            x       y       z     vdW  Elec       q    Type
REMARK                         _______ _______ _______ _____ _____    ______ ____
ROOT
ATOM      1  C   UNL     1       9.264   0.205  22.588  0.00  0.00    +0.111 C 
ATOM      2  C   UNL     1       9.423  -0.969  21.619  0.00  0.00    +0.039 C 
ENDROOT
BRANCH   1   3
ATOM      3  N   UNL     1       8.079  -0.033  23.471  0.00  0.00    -0.316 NA
ATOM      4  H   UNL     1       7.354  -0.497  22.910  0.00  0.00    +0.119 HD
ATOM      5  H   UNL     1       8.334  -0.740  24.166  0.00  0.00    +0.119 HD
ENDBRANCH   1   3
BRANCH   1   7
ATOM      6  C   UNL     1      10.366   0.262  24.940  0.00  0.00    +0.006 C 
ATOM      7  C   UNL     1      10.527   0.460  23.436  0.00  0.00    +0.030 C 
ENDBRANCH   1   7
BRANCH   1   8
ATOM      8  C   UNL     1       8.986   1.503  21.786  0.00  0.00    +0.325 C 
ATOM      9  O   UNL     1       7.900   1.866  21.366  0.00  0.00    -0.249 OA
BRANCH   8  10
ATOM     10  O   UNL     1      10.138   2.198  21.580  0.00  0.00    -0.479 OA
ATOM     11  H   UNL     1      10.089   2.534  20.650  0.00  0.00    +0.295 HD
ENDBRANCH   8  10
ENDBRANCH   1   8
TORSDOF 4
ENDMDL
MODEL 8
REMARK VINA RESULT:      -3.4      3.747      4.258
REMARK  Name = 
REMARK  6 active torsions:
REMARK  status: ('A' for Active; 'I' for Inactive)
REMARK    1  A    between atoms: C_1  and  C_2
REMARK    2  A    between atoms: C_2  and  C_3
REMARK    3  A    between atoms: C_3  and  C_4
REMARK    4  A    between atoms: C_3  and  N_5
REMARK    5  A    between atoms: C_3  and  C_6
REMARK    6  A    between atoms: C_6  and  O_7
REMARK                            x       y       z     vdW  Elec       q    Type
REMARK                         _______ _______ _______ _____ _____    ______ ____
ROOT
ATOM      1  C   UNL     1      10.416   2.718  23.228  0.00  0.00    +0.111 C 
ATOM      2  C   UNL     1      11.509   3.786  23.312  0.00  0.00    +0.039 C 
ENDROOT
BRANCH   1   3
ATOM      3  N   UNL     1      10.230   2.306  21.801  0.00  0.00    -0.316 NA
ATOM      4  H   UNL     1      10.779   2.944  21.212  0.00  0.00    +0.119 HD
ATOM      5  H   UNL     1      10.689   1.400  21.666  0.00  0.00    +0.119 HD
ENDBRANCH   1   3
BRANCH   1   7
ATOM      6  C   UNL     1      10.466   0.131  23.460  0.00  0.00    +0.006 C 
ATOM      7  C   UNL     1      10.709   1.488  24.112  0.00  0.00    +0.030 C 
ENDBRANCH   1   7
BRANCH   1   8
ATOM      8  C   UNL     1       9.070   3.316  23.714  0.00  0.00    +0.325 C 
ATOM      9  O   UNL     1       8.554   3.128  24.803  0.00  0.00    -0.249 OA
BRANCH   8  10
ATOM     10  O   UNL     1       8.504   4.081  22.741  0.00  0.00    -0.479 OA
ATOM     11  H   UNL     1       7.634   4.380  23.104  0.00  0.00    +0.295 HD
ENDBRANCH   8  10
ENDBRANCH   1   8
TORSDOF 4
ENDMDL
MODEL 9
REMARK VINA RESULT:      -3.4      2.381      3.230
REMARK  Name = 
REMARK  6 active torsions:
REMARK  status: ('A' for Active; 'I' for Inactive)
REMARK    1  A    between atoms: C_1  and  C_2
REMARK    2  A    between atoms: C_2  and  C_3
REMARK    3  A    between atoms: C_3  and  C_4
REMARK    4  A    between atoms: C_3  and  N_5
REMARK    5  A    between atoms: C_3  and  C_6
REMARK    6  A    between atoms: C_6  and  O_7
REMARK                            x       y       z     vdW  Elec       q    Type
REMARK                         _______ _______ _______ _____ _____    ______ ____
ROOT
ATOM      1  C   UNL     1       9.427   0.346  22.835  0.00  0.00    +0.111 C 
ATOM      2  C   UNL     1       9.428  -0.230  21.417  0.00  0.00    +0.039 C 
ENDROOT
BRANCH   1   3
ATOM      3  N   UNL     1       8.020   0.646  23.251  0.00  0.00    -0.316 NA
ATOM      4  H   UNL     1       7.391   0.071  22.679  0.00  0.00    +0.119 HD
ATOM      5  H   UNL     1       7.882   0.284  24.199  0.00  0.00    +0.119 HD
ENDBRANCH   1   3
BRANCH   1   7
ATOM      6  C   UNL     1       9.970  -2.079  23.594  0.00  0.00    +0.006 C 
ATOM      7  C   UNL     1      10.108  -0.583  23.861  0.00  0.00    +0.030 C 
ENDBRANCH   1   7
BRANCH   1   8
ATOM      8  C   UNL     1      10.207   1.687  22.849  0.00  0.00    +0.325 C 
ATOM      9  O   UNL     1      10.757   2.185  23.817  0.00  0.00    -0.249 OA
BRANCH   8  10
ATOM     10  O   UNL     1      10.184   2.270  21.619  0.00  0.00    -0.479 OA
ATOM     11  H   UNL     1       9.258   2.167  21.288  0.00  0.00    +0.295 HD
ENDBRANCH   8  10
ENDBRANCH   1   8
TORSDOF 4
ENDMDL
