MODEL 1
REMARK VINA RESULT:      -3.1      0.000      0.000
REMARK  Name = 
REMARK  6 active torsions:
REMARK  status: ('A' for Active; 'I' for Inactive)
REMARK    1  A    between atoms: C_1  and  N_2
REMARK    2  A    between atoms: N_2  and  C_3
REMARK    3  A    between atoms: N_2  and  C_4
REMARK    4  A    between atoms: N_2  and  C_5
REMARK    5  A    between atoms: C_5  and  C_6
REMARK    6  A    between atoms: C_6  and  O_7
REMARK                            x       y       z     vdW  Elec       q    Type
REMARK                         _______ _______ _______ _____ _____    ______ ____
ROOT
ATOM      1  C   UNL     1      10.481   0.103  24.381  0.00  0.00    +0.192 C 
ATOM      2  N   UNL     1       9.584  -0.707  23.446  0.00  0.00    +0.238 N 
ATOM      3  C   UNL     1       8.133  -0.467  23.830  0.00  0.00    +0.192 C 
ATOM      4  C   UNL     1       9.912  -2.188  23.635  0.00  0.00    +0.192 C 
ENDROOT
BRANCH   2   5
ATOM      5  C   UNL     1       9.869  -0.238  21.997  0.00  0.00    +0.160 C 
BRANCH   5   6
ATOM      6  C   UNL     1       9.113   1.028  21.564  0.00  0.00    +0.206 C 
BRANCH   6   7
ATOM      7  O   UNL     1       9.988   2.148  21.513  0.00  0.00    -0.390 OA
ATOM      8  H   UNL     1      10.051   2.531  22.410  0.00  0.00    +0.210 HD
ENDBRANCH   6   7
ENDBRANCH   5   6
ENDBRANCH   2   5
TORSDOF 3
ENDMDL
MODEL 2
REMARK VINA RESULT:      -3.1      0.127      1.611
REMARK  Name = 
REMARK  6 active torsions:
REMARK  status: ('A' for Active; 'I' for Inactive)
REMARK    1  A    between atoms: C_1  and  N_2
REMARK    2  A    between atoms: N_2  and  C_3
REMARK    3  A    between atoms: N_2  and  C_4
REMARK    4  A    between atoms: N_2  and  C_5
REMARK    5  A    between atoms: C_5  and  C_6
REMARK    6  A    between atoms: C_6  and  O_7
REMARK                            x       y       z     vdW  Elec       q    Type
REMARK                         _______ _______ _______ _____ _____    ______ ____
ROOT
ATOM      1  C   UNL     1       8.185  -0.269  23.836  0.00  0.00    +0.192 C 
ATOM      2  N   UNL     1       9.642  -0.602  23.516  0.00  0.00    +0.238 N 
ATOM      3  C   UNL     1       9.871  -2.084  23.762  0.00  0.00    +0.192 C 
ATOM      4  C   UNL     1      10.534   0.205  24.461  0.00  0.00    +0.192 C 
ENDROOT
BRANCH   2   5
ATOM      5  C   UNL     1       9.895  -0.229  22.034  0.00  0.00    +0.160 C 
BRANCH   5   6
ATOM      6  C   UNL     1       9.137   1.013  21.539  0.00  0.00    +0.206 C 
BRANCH   6   7
ATOM      7  O   UNL     1       9.991   2.150  21.513  0.00  0.00    -0.390 OA
ATOM      8  H   UNL     1      10.581   2.110  22.291  0.00  0.00    +0.210 HD
ENDBRANCH   6   7
ENDBRANCH   5   6
ENDBRANCH   2   5
TORSDOF 3
ENDMDL
MODEL 3
REMARK VINA RESULT:      -2.9      1.961      2.268
REMARK  Name = 
REMARK  6 active torsions:
REMARK  status: ('A' for Active; 'I' for Inactive)
REMARK    1  A    between atoms: C_1  and  N_2
REMARK    2  A    between atoms: N_2  and  C_3
REMARK    3  A    between atoms: N_2  and  C_4
REMARK    4  A    between atoms: N_2  and  C_5
REMARK    5  A    between atoms: C_5  and  C_6
REMARK    6  A    between atoms: C_6  and  O_7
REMARK                            x       y       z     vdW  Elec       q    Type
REMARK                         _______ _______ _______ _____ _____    ______ ____
ROOT
ATOM      1  C   UNL     1       9.387   2.452  24.018  0.00  0.00    +0.192 C 
ATOM      2  N   UNL     1       9.658   0.973  23.742  0.00  0.00    +0.238 N 
ATOM      3  C   UNL     1       8.413   0.174  24.091  0.00  0.00    +0.192 C 
ATOM      4  C   UNL     1      10.808   0.523  24.644  0.00  0.00    +0.192 C 
ENDROOT
BRANCH   2   5
ATOM      5  C   UNL     1      10.018   0.832  22.242  0.00  0.00    +0.160 C 
BRANCH   5   6
ATOM      6  C   UNL     1       9.371  -0.366  21.529  0.00  0.00    +0.206 C 
BRANCH   6   7
ATOM      7  O   UNL     1      10.250  -1.485  21.521  0.00  0.00    -0.390 OA
ATOM      8  H   UNL     1      10.903  -1.369  22.238  0.00  0.00    +0.210 HD
ENDBRANCH   6   7
ENDBRANCH   5   6
ENDBRANCH   2   5
TORSDOF 3
ENDMDL
MODEL 4
REMARK VINA RESULT:      -2.7      4.110      5.147
REMARK  Name = 
REMARK  6 active torsions:
REMARK  status: ('A' for Active; 'I' for Inactive)
REMARK    1  A    between atoms: C_1  and  N_2
REMARK    2  A    between atoms: N_2  and  C_3
REMARK    3  A    between atoms: N_2  and  C_4
REMARK    4  A    between atoms: N_2  and  C_5
REMARK    5  A    between atoms: C_5  and  C_6
REMARK    6  A    between atoms: C_6  and  O_7
REMARK                            x       y       z     vdW  Elec       q    Type
REMARK                         _______ _______ _______ _____ _____    ______ ____
ROOT
ATOM      1  C   UNL     1       7.899  -1.523  24.867  0.00  0.00    +0.192 C 
ATOM      2  N   UNL     1       8.600  -2.787  24.369  0.00  0.00    +0.238 N 
ATOM      3  C   UNL     1       9.941  -2.399  23.767  0.00  0.00    +0.192 C 
ATOM      4  C   UNL     1       7.729  -3.419  23.283  0.00  0.00    +0.192 C 
ENDROOT
BRANCH   2   5
ATOM      5  C   UNL     1       8.780  -3.734  25.582  0.00  0.00    +0.160 C 
BRANCH   5   6
ATOM      6  C   UNL     1       9.017  -5.210  25.224  0.00  0.00    +0.206 C 
BRANCH   6   7
ATOM      7  O   UNL     1      10.308  -5.632  25.649  0.00  0.00    -0.390 OA
ATOM      8  H   UNL     1      10.460  -6.539  25.317  0.00  0.00    +0.210 HD
ENDBRANCH   6   7
ENDBRANCH   5   6
ENDBRANCH   2   5
TORSDOF 3
ENDMDL
MODEL 5
REMARK VINA RESULT:      -2.7      5.196      6.282
REMARK  Name = 
REMARK  6 active torsions:
REMARK  status: ('A' for Active; 'I' for Inactive)
REMARK    1  A    between atoms: C_1  and  N_2
REMARK    2  A    between atoms: N_2  and  C_3
REMARK    3  A    between atoms: N_2  and  C_4
REMARK    4  A    between atoms: N_2  and  C_5
REMARK    5  A    between atoms: C_5  and  C_6
REMARK    6  A    between atoms: C_6  and  O_7
REMARK                            x       y       z     vdW  Elec       q    Type
REMARK                         _______ _______ _______ _____ _____    ______ ____
ROOT
ATOM      1  C   UNL     1       7.051  -3.092  24.945  0.00  0.00    +0.192 C 
ATOM      2  N   UNL     1       8.295  -3.968  24.791  0.00  0.00    +0.238 N 
ATOM      3  C   UNL     1       9.437  -3.110  24.273  0.00  0.00    +0.192 C 
ATOM      4  C   UNL     1       7.985  -5.059  23.765  0.00  0.00    +0.192 C 
ENDROOT
BRANCH   2   5
ATOM      5  C   UNL     1       8.623  -4.567  26.181  0.00  0.00    +0.160 C 
BRANCH   5   6
ATOM      6  C   UNL     1       7.400  -4.901  27.049  0.00  0.00    +0.206 C 
BRANCH   6   7
ATOM      7  O   UNL     1       7.618  -6.093  27.794  0.00  0.00    -0.390 OA
ATOM      8  H   UNL     1       7.417  -6.857  27.219  0.00  0.00    +0.210 HD
ENDBRANCH   6   7
ENDBRANCH   5   6
ENDBRANCH   2   5
TORSDOF 3
ENDMDL
MODEL 6
REMARK VINA RESULT:      -2.7      4.635      5.729
REMARK  Name = 
REMARK  6 active torsions:
REMARK  status: ('A' for Active; 'I' for Inactive)
REMARK    1  A    between atoms: C_1  and  N_2
REMARK    2  A    between atoms: N_2  and  C_3
REMARK    3  A    between atoms: N_2  and  C_4
REMARK    4  A    between atoms: N_2  and  C_5
REMARK    5  A    between atoms: C_5  and  C_6
REMARK    6  A    between atoms: C_6  and  O_7
REMARK                            x       y       z     vdW  Elec       q    Type
REMARK                         _______ _______ _______ _____ _____    ______ ____
ROOT
ATOM      1  C   UNL     1       8.752  -3.018  23.810  0.00  0.00    +0.192 C 
ATOM      2  N   UNL     1       7.563  -3.945  24.063  0.00  0.00    +0.238 N 
ATOM      3  C   UNL     1       7.392  -4.861  22.862  0.00  0.00    +0.192 C 
ATOM      4  C   UNL     1       6.310  -3.083  24.216  0.00  0.00    +0.192 C 
ENDROOT
BRANCH   2   5
ATOM      5  C   UNL     1       7.863  -4.752  25.351  0.00  0.00    +0.160 C 
BRANCH   5   6
ATOM      6  C   UNL     1       9.342  -4.786  25.766  0.00  0.00    +0.206 C 
BRANCH   6   7
ATOM      7  O   UNL     1       9.983  -5.951  25.260  0.00  0.00    -0.390 OA
ATOM      8  H   UNL     1       9.323  -6.478  24.769  0.00  0.00    +0.210 HD
ENDBRANCH   6   7
ENDBRANCH   5   6
ENDBRANCH   2   5
TORSDOF 3
ENDMDL
MODEL 7
REMARK VINA RESULT:      -2.7      1.559      1.936
REMARK  Name = 
REMARK  6 active torsions:
REMARK  status: ('A' for Active; 'I' for Inactive)
REMARK    1  A    between atoms: C_1  and  N_2
REMARK    2  A    between atoms: N_2  and  C_3
REMARK    3  A    between atoms: N_2  and  C_4
REMARK    4  A    between atoms: N_2  and  C_5
REMARK    5  A    between atoms: C_5  and  C_6
REMARK    6  A    between atoms: C_6  and  O_7
REMARK                            x       y       z     vdW  Elec       q    Type
REMARK                         _______ _______ _______ _____ _____    ______ ____
ROOT
ATOM      1  C   UNL     1       8.137   1.749  25.279  0.00  0.00    +0.192 C 
ATOM      2  N   UNL     1       8.824   0.631  24.495  0.00  0.00    +0.238 N 
ATOM      3  C   UNL     1       7.815   0.007  23.545  0.00  0.00    +0.192 C 
ATOM      4  C   UNL     1       9.295  -0.431  25.490  0.00  0.00    +0.192 C 
ENDROOT
BRANCH   2   5
ATOM      5  C   UNL     1      10.012   1.259  23.724  0.00  0.00    +0.160 C 
BRANCH   5   6
ATOM      6  C   UNL     1       9.995   1.026  22.204  0.00  0.00    +0.206 C 
BRANCH   6   7
ATOM      7  O   UNL     1      10.097   2.259  21.502  0.00  0.00    -0.390 OA
ATOM      8  H   UNL     1      10.543   2.908  22.081  0.00  0.00    +0.210 HD
ENDBRANCH   6   7
ENDBRANCH   5   6
ENDBRANCH   2   5
TORSDOF 3
ENDMDL
MODEL 8
REMARK VINA RESULT:      -2.6      2.489      3.325
REMARK  Name = 
REMARK  6 active torsions:
REMARK  status: ('A' for Active; 'I' for Inactive)
REMARK    1  A    between atoms: C_1  and  N_2
REMARK    2  A    between atoms: N_2  and  C_3
REMARK    3  A    between atoms: N_2  and  C_4
REMARK    4  A    between atoms: N_2  and  C_5
REMARK    5  A    between atoms: C_5  and  C_6
REMARK    6  A    between atoms: C_6  and  O_7
REMARK                            x       y       z     vdW  Elec       q    Type
REMARK                         _______ _______ _______ _____ _____    ______ ____
ROOT
ATOM      1  C   UNL     1      10.511   1.450  24.112  0.00  0.00    +0.192 C 
ATOM      2  N   UNL     1       9.460   0.576  23.429  0.00  0.00    +0.238 N 
ATOM      3  C   UNL     1       9.779   0.495  21.945  0.00  0.00    +0.192 C 
ATOM      4  C   UNL     1       8.095   1.241  23.610  0.00  0.00    +0.192 C 
ENDROOT
BRANCH   2   5
ATOM      5  C   UNL     1       9.508  -0.823  24.093  0.00  0.00    +0.160 C 
BRANCH   5   6
ATOM      6  C   UNL     1      10.147  -1.927  23.236  0.00  0.00    +0.206 C 
BRANCH   6   7
ATOM      7  O   UNL     1      10.177  -3.162  23.941  0.00  0.00    -0.390 OA
ATOM      8  H   UNL     1      10.221  -3.889  23.289  0.00  0.00    +0.210 HD
ENDBRANCH   6   7
ENDBRANCH   5   6
ENDBRANCH   2   5
TORSDOF 3
ENDMDL
MODEL 9
REMARK VINA RESULT:      -2.6      1.924      2.735
REMARK  Name = 
REMARK  6 active torsions:
REMARK  status: ('A' for Active; 'I' for Inactive)
REMARK    1  A    between atoms: C_1  and  N_2
REMARK    2  A    between atoms: N_2  and  C_3
REMARK    3  A    between atoms: N_2  and  C_4
REMARK    4  A    between atoms: N_2  and  C_5
REMARK    5  A    between atoms: C_5  and  C_6
REMARK    6  A    between atoms: C_6  and  O_7
REMARK                            x       y       z     vdW  Elec       q    Type
REMARK                         _______ _______ _______ _____ _____    ______ ____
ROOT
ATOM      1  C   UNL     1       7.915  -1.374  23.343  0.00  0.00    +0.192 C 
ATOM      2  N   UNL     1       9.338  -1.661  23.822  0.00  0.00    +0.238 N 
ATOM      3  C   UNL     1      10.302  -1.402  22.676  0.00  0.00    +0.192 C 
ATOM      4  C   UNL     1       9.419  -3.135  24.219  0.00  0.00    +0.192 C 
ENDROOT
BRANCH   2   5
ATOM      5  C   UNL     1       9.626  -0.728  25.025  0.00  0.00    +0.160 C 
BRANCH   5   6
ATOM      6  C   UNL     1      10.517   0.484  24.707  0.00  0.00    +0.206 C 
BRANCH   6   7
ATOM      7  O   UNL     1       9.792   1.698  24.856  0.00  0.00    -0.390 OA
ATOM      8  H   UNL     1       9.172   1.781  24.104  0.00  0.00    +0.210 HD
ENDBRANCH   6   7
ENDBRANCH   5   6
ENDBRANCH   2   5
TORSDOF 3
ENDMDL
