MODEL 1
REMARK VINA RESULT:      -6.2      0.000      0.000
REMARK  Name = 
REMARK  6 active torsions:
REMARK  status: ('A' for Active; 'I' for Inactive)
REMARK    1  A    between atoms: C_1  and  C_2
REMARK    2  A    between atoms: C_2  and  C_3
REMARK    3  A    between atoms: C_2  and  C_6
REMARK    4  A    between atoms: C_3  and  O_4
REMARK    5  A    between atoms: C_9  and  C_11
REMARK    6  A    between atoms: C_11  and  C_13
REMARK                            x       y       z     vdW  Elec       q    Type
REMARK                         _______ _______ _______ _____ _____    ______ ____
ROOT
ATOM      1  C   UNL     1       6.054  -4.034  23.040  0.00  0.00    +0.004 A 
ATOM      2  S   UNL     1       7.732  -4.133  22.690  0.00  0.00    -0.089 S 
ATOM      3  C   UNL     1       8.047  -2.595  23.371  0.00  0.00    +0.060 A 
ATOM      4  C   UNL     1       6.871  -1.956  23.715  0.00  0.00    +0.019 A 
ATOM      5  C   UNL     1       5.726  -2.791  23.545  0.00  0.00    +0.013 A 
ENDROOT
BRANCH   1   7
ATOM      6  C   UNL     1       5.704  -6.045  21.614  0.00  0.00    +0.025 C 
ATOM      7  C   UNL     1       5.183  -5.250  22.814  0.00  0.00    +0.131 C 
BRANCH   7   8
ATOM      8  C   UNL     1       5.121  -6.129  24.058  0.00  0.00    +0.312 C 
ATOM      9  O   UNL     1       5.539  -5.810  25.162  0.00  0.00    -0.250 OA
BRANCH   8  10
ATOM     10  O   UNL     1       4.586  -7.355  23.834  0.00  0.00    -0.480 OA
ATOM     11  H   UNL     1       5.162  -7.949  23.319  0.00  0.00    +0.295 HD
ENDBRANCH   8  10
ENDBRANCH   7   8
ENDBRANCH   1   7
BRANCH   3  12
ATOM     12  C   UNL     1       9.429  -2.149  23.495  0.00  0.00    +0.200 C 
ATOM     13  O   UNL     1      10.360  -2.901  23.780  0.00  0.00    -0.286 OA
BRANCH  12  14
ATOM     14  C   UNL     1       9.754  -0.704  23.294  0.00  0.00    +0.023 A 
ATOM     15  C   UNL     1       9.599  -0.071  22.051  0.00  0.00    +0.012 A 
ATOM     16  C   UNL     1       9.873   1.293  21.917  0.00  0.00    +0.001 A 
ATOM     17  C   UNL     1      10.287   2.034  23.023  0.00  0.00    +0.000 A 
ATOM     18  C   UNL     1      10.428   1.416  24.265  0.00  0.00    +0.001 A 
ATOM     19  C   UNL     1      10.161   0.053  24.402  0.00  0.00    +0.012 A 
ENDBRANCH  12  14
ENDBRANCH   3  12
TORSDOF 5
ENDMDL
MODEL 2
REMARK VINA RESULT:      -6.2      2.162      2.550
REMARK  Name = 
REMARK  6 active torsions:
REMARK  status: ('A' for Active; 'I' for Inactive)
REMARK    1  A    between atoms: C_1  and  C_2
REMARK    2  A    between atoms: C_2  and  C_3
REMARK    3  A    between atoms: C_2  and  C_6
REMARK    4  A    between atoms: C_3  and  O_4
REMARK    5  A    between atoms: C_9  and  C_11
REMARK    6  A    between atoms: C_11  and  C_13
REMARK                            x       y       z     vdW  Elec       q    Type
REMARK                         _______ _______ _______ _____ _____    ______ ____
ROOT
ATOM      1  C   UNL     1       7.100  -3.475  25.898  0.00  0.00    +0.004 A 
ATOM      2  S   UNL     1       7.927  -3.624  24.401  0.00  0.00    -0.089 S 
ATOM      3  C   UNL     1       8.803  -2.174  24.649  0.00  0.00    +0.060 A 
ATOM      4  C   UNL     1       8.355  -1.513  25.777  0.00  0.00    +0.019 A 
ATOM      5  C   UNL     1       7.391  -2.271  26.507  0.00  0.00    +0.013 A 
ENDROOT
BRANCH   1   7
ATOM      6  C   UNL     1       5.931  -5.564  25.209  0.00  0.00    +0.025 C 
ATOM      7  C   UNL     1       6.234  -4.621  26.376  0.00  0.00    +0.131 C 
BRANCH   7   8
ATOM      8  C   UNL     1       6.895  -5.376  27.523  0.00  0.00    +0.312 C 
ATOM      9  O   UNL     1       6.497  -5.381  28.679  0.00  0.00    -0.250 OA
BRANCH   8  10
ATOM     10  O   UNL     1       8.025  -6.034  27.163  0.00  0.00    -0.480 OA
ATOM     11  H   UNL     1       7.862  -6.889  26.726  0.00  0.00    +0.295 HD
ENDBRANCH   8  10
ENDBRANCH   7   8
ENDBRANCH   1   7
BRANCH   3  12
ATOM     12  C   UNL     1       9.847  -1.811  23.700  0.00  0.00    +0.200 C 
ATOM     13  O   UNL     1      10.615  -2.627  23.192  0.00  0.00    -0.286 OA
BRANCH  12  14
ATOM     14  C   UNL     1      10.031  -0.375  23.325  0.00  0.00    +0.023 A 
ATOM     15  C   UNL     1       9.579   0.140  22.101  0.00  0.00    +0.012 A 
ATOM     16  C   UNL     1       9.732   1.498  21.810  0.00  0.00    +0.001 A 
ATOM     17  C   UNL     1      10.321   2.351  22.742  0.00  0.00    +0.000 A 
ATOM     18  C   UNL     1      10.759   1.850  23.968  0.00  0.00    +0.001 A 
ATOM     19  C   UNL     1      10.612   0.493  24.261  0.00  0.00    +0.012 A 
ENDBRANCH  12  14
ENDBRANCH   3  12
TORSDOF 5
ENDMDL
MODEL 3
REMARK VINA RESULT:      -6.2      2.874      6.828
REMARK  Name = 
REMARK  6 active torsions:
REMARK  status: ('A' for Active; 'I' for Inactive)
REMARK    1  A    between atoms: C_1  and  C_2
REMARK    2  A    between atoms: C_2  and  C_3
REMARK    3  A    between atoms: C_2  and  C_6
REMARK    4  A    between atoms: C_3  and  O_4
REMARK    5  A    between atoms: C_9  and  C_11
REMARK    6  A    between atoms: C_11  and  C_13
REMARK                            x       y       z     vdW  Elec       q    Type
REMARK                         _______ _______ _______ _____ _____    ______ ____
ROOT
ATOM      1  C   UNL     1       8.978  -0.256  23.418  0.00  0.00    +0.004 A 
ATOM      2  S   UNL     1       9.056  -1.232  24.828  0.00  0.00    -0.089 S 
ATOM      3  C   UNL     1       8.959  -2.684  23.926  0.00  0.00    +0.060 A 
ATOM      4  C   UNL     1       8.715  -2.421  22.591  0.00  0.00    +0.019 A 
ATOM      5  C   UNL     1       8.747  -1.026  22.295  0.00  0.00    +0.013 A 
ENDROOT
BRANCH   1   7
ATOM      6  C   UNL     1      10.590   1.506  24.125  0.00  0.00    +0.025 C 
ATOM      7  C   UNL     1       9.200   1.235  23.544  0.00  0.00    +0.131 C 
BRANCH   7   8
ATOM      8  C   UNL     1       9.030   1.937  22.201  0.00  0.00    +0.312 C 
ATOM      9  O   UNL     1       7.957   2.241  21.701  0.00  0.00    -0.250 OA
BRANCH   8  10
ATOM     10  O   UNL     1      10.200   2.174  21.558  0.00  0.00    -0.480 OA
ATOM     11  H   UNL     1      10.848   2.672  22.088  0.00  0.00    +0.295 HD
ENDBRANCH   8  10
ENDBRANCH   7   8
ENDBRANCH   1   7
BRANCH   3  12
ATOM     12  C   UNL     1       9.120  -3.956  24.618  0.00  0.00    +0.200 C 
ATOM     13  O   UNL     1      10.186  -4.569  24.669  0.00  0.00    -0.286 OA
BRANCH  12  14
ATOM     14  C   UNL     1       7.940  -4.581  25.290  0.00  0.00    +0.023 A 
ATOM     15  C   UNL     1       6.811  -5.003  24.573  0.00  0.00    +0.012 A 
ATOM     16  C   UNL     1       5.748  -5.623  25.234  0.00  0.00    +0.001 A 
ATOM     17  C   UNL     1       5.812  -5.839  26.610  0.00  0.00    +0.000 A 
ATOM     18  C   UNL     1       6.938  -5.437  27.328  0.00  0.00    +0.001 A 
ATOM     19  C   UNL     1       8.000  -4.813  26.672  0.00  0.00    +0.012 A 
ENDBRANCH  12  14
ENDBRANCH   3  12
TORSDOF 5
ENDMDL
MODEL 4
REMARK VINA RESULT:      -6.2      1.536      2.214
REMARK  Name = 
REMARK  6 active torsions:
REMARK  status: ('A' for Active; 'I' for Inactive)
REMARK    1  A    between atoms: C_1  and  C_2
REMARK    2  A    between atoms: C_2  and  C_3
REMARK    3  A    between atoms: C_2  and  C_6
REMARK    4  A    between atoms: C_3  and  O_4
REMARK    5  A    between atoms: C_9  and  C_11
REMARK    6  A    between atoms: C_11  and  C_13
REMARK                            x       y       z     vdW  Elec       q    Type
REMARK                         _______ _______ _______ _____ _____    ______ ____
ROOT
ATOM      1  C   UNL     1       7.223  -4.118  23.797  0.00  0.00    +0.004 A 
ATOM      2  S   UNL     1       7.553  -2.756  22.806  0.00  0.00    -0.089 S 
ATOM      3  C   UNL     1       9.123  -2.560  23.459  0.00  0.00    +0.060 A 
ATOM      4  C   UNL     1       9.328  -3.420  24.521  0.00  0.00    +0.019 A 
ATOM      5  C   UNL     1       8.244  -4.330  24.703  0.00  0.00    +0.013 A 
ENDROOT
BRANCH   1   7
ATOM      6  C   UNL     1       4.777  -3.954  23.356  0.00  0.00    +0.025 C 
ATOM      7  C   UNL     1       5.956  -4.910  23.560  0.00  0.00    +0.131 C 
BRANCH   7   8
ATOM      8  C   UNL     1       6.103  -5.849  22.368  0.00  0.00    +0.312 C 
ATOM      9  O   UNL     1       7.167  -6.241  21.912  0.00  0.00    -0.250 OA
BRANCH   8  10
ATOM     10  O   UNL     1       4.921  -6.198  21.800  0.00  0.00    -0.480 OA
ATOM     11  H   UNL     1       4.799  -5.850  20.898  0.00  0.00    +0.295 HD
ENDBRANCH   8  10
ENDBRANCH   7   8
ENDBRANCH   1   7
BRANCH   3  12
ATOM     12  C   UNL     1      10.011  -1.565  22.872  0.00  0.00    +0.200 C 
ATOM     13  O   UNL     1      10.997  -1.853  22.194  0.00  0.00    -0.286 OA
BRANCH  12  14
ATOM     14  C   UNL     1       9.746  -0.113  23.112  0.00  0.00    +0.023 A 
ATOM     15  C   UNL     1       9.484   0.396  24.392  0.00  0.00    +0.012 A 
ATOM     16  C   UNL     1       9.285   1.766  24.578  0.00  0.00    +0.001 A 
ATOM     17  C   UNL     1       9.364   2.637  23.492  0.00  0.00    +0.000 A 
ATOM     18  C   UNL     1       9.641   2.141  22.218  0.00  0.00    +0.001 A 
ATOM     19  C   UNL     1       9.835   0.772  22.027  0.00  0.00    +0.012 A 
ENDBRANCH  12  14
ENDBRANCH   3  12
TORSDOF 5
ENDMDL
MODEL 5
REMARK VINA RESULT:      -6.1      2.228      6.906
REMARK  Name = 
REMARK  6 active torsions:
REMARK  status: ('A' for Active; 'I' for Inactive)
REMARK    1  A    between atoms: C_1  and  C_2
REMARK    2  A    between atoms: C_2  and  C_3
REMARK    3  A    between atoms: C_2  and  C_6
REMARK    4  A    between atoms: C_3  and  O_4
REMARK    5  A    between atoms: C_9  and  C_11
REMARK    6  A    between atoms: C_11  and  C_13
REMARK                            x       y       z     vdW  Elec       q    Type
REMARK                         _______ _______ _______ _____ _____    ______ ____
ROOT
ATOM      1  C   UNL     1       8.826  -0.191  23.903  0.00  0.00    +0.004 A 
ATOM      2  S   UNL     1       9.736  -1.633  24.100  0.00  0.00    -0.089 S 
ATOM      3  C   UNL     1       8.329  -2.591  24.282  0.00  0.00    +0.060 A 
ATOM      4  C   UNL     1       7.197  -1.800  24.348  0.00  0.00    +0.019 A 
ATOM      5  C   UNL     1       7.480  -0.422  24.109  0.00  0.00    +0.013 A 
ENDROOT
BRANCH   1   7
ATOM      6  C   UNL     1      10.900   1.153  24.216  0.00  0.00    +0.025 C 
ATOM      7  C   UNL     1       9.543   1.083  23.510  0.00  0.00    +0.131 C 
BRANCH   7   8
ATOM      8  C   UNL     1       9.715   1.180  21.999  0.00  0.00    +0.312 C 
ATOM      9  O   UNL     1       9.389   0.314  21.200  0.00  0.00    -0.250 OA
BRANCH   8  10
ATOM     10  O   UNL     1      10.316   2.325  21.591  0.00  0.00    -0.480 OA
ATOM     11  H   UNL     1      10.907   2.720  22.258  0.00  0.00    +0.295 HD
ENDBRANCH   8  10
ENDBRANCH   7   8
ENDBRANCH   1   7
BRANCH   3  12
ATOM     12  C   UNL     1       8.468  -4.039  24.356  0.00  0.00    +0.200 C 
ATOM     13  O   UNL     1       9.545  -4.609  24.527  0.00  0.00    -0.286 OA
BRANCH  12  14
ATOM     14  C   UNL     1       7.257  -4.902  24.196  0.00  0.00    +0.023 A 
ATOM     15  C   UNL     1       6.456  -5.273  25.287  0.00  0.00    +0.012 A 
ATOM     16  C   UNL     1       5.309  -6.044  25.088  0.00  0.00    +0.001 A 
ATOM     17  C   UNL     1       4.944  -6.434  23.800  0.00  0.00    +0.000 A 
ATOM     18  C   UNL     1       5.725  -6.056  22.708  0.00  0.00    +0.001 A 
ATOM     19  C   UNL     1       6.876  -5.290  22.904  0.00  0.00    +0.012 A 
ENDBRANCH  12  14
ENDBRANCH   3  12
TORSDOF 5
ENDMDL
MODEL 6
REMARK VINA RESULT:      -6.0      2.470      6.863
REMARK  Name = 
REMARK  6 active torsions:
REMARK  status: ('A' for Active; 'I' for Inactive)
REMARK    1  A    between atoms: C_1  and  C_2
REMARK    2  A    between atoms: C_2  and  C_3
REMARK    3  A    between atoms: C_2  and  C_6
REMARK    4  A    between atoms: C_3  and  O_4
REMARK    5  A    between atoms: C_9  and  C_11
REMARK    6  A    between atoms: C_11  and  C_13
REMARK                            x       y       z     vdW  Elec       q    Type
REMARK                         _______ _______ _______ _____ _____    ______ ____
ROOT
ATOM      1  C   UNL     1       9.361  -0.196  23.199  0.00  0.00    +0.004 A 
ATOM      2  S   UNL     1      10.042  -1.761  23.018  0.00  0.00    -0.089 S 
ATOM      3  C   UNL     1       8.967  -2.449  24.159  0.00  0.00    +0.060 A 
ATOM      4  C   UNL     1       8.210  -1.472  24.777  0.00  0.00    +0.019 A 
ATOM      5  C   UNL     1       8.421  -0.179  24.211  0.00  0.00    +0.013 A 
ENDROOT
BRANCH   1   7
ATOM      6  C   UNL     1       8.700   1.194  21.241  0.00  0.00    +0.025 C 
ATOM      7  C   UNL     1       9.802   0.911  22.266  0.00  0.00    +0.131 C 
BRANCH   7   8
ATOM      8  C   UNL     1      10.163   2.176  23.035  0.00  0.00    +0.312 C 
ATOM      9  O   UNL     1      11.011   2.244  23.913  0.00  0.00    -0.250 OA
BRANCH   8  10
ATOM     10  O   UNL     1       9.417   3.255  22.691  0.00  0.00    -0.480 OA
ATOM     11  H   UNL     1       9.945   4.035  22.436  0.00  0.00    +0.295 HD
ENDBRANCH   8  10
ENDBRANCH   7   8
ENDBRANCH   1   7
BRANCH   3  12
ATOM     12  C   UNL     1       8.974  -3.893  24.351  0.00  0.00    +0.200 C 
ATOM     13  O   UNL     1       9.968  -4.525  24.708  0.00  0.00    -0.286 OA
BRANCH  12  14
ATOM     14  C   UNL     1       7.727  -4.675  24.083  0.00  0.00    +0.023 A 
ATOM     15  C   UNL     1       6.776  -4.926  25.083  0.00  0.00    +0.012 A 
ATOM     16  C   UNL     1       5.604  -5.623  24.780  0.00  0.00    +0.001 A 
ATOM     17  C   UNL     1       5.367  -6.058  23.477  0.00  0.00    +0.000 A 
ATOM     18  C   UNL     1       6.300  -5.799  22.474  0.00  0.00    +0.001 A 
ATOM     19  C   UNL     1       7.475  -5.107  22.773  0.00  0.00    +0.012 A 
ENDBRANCH  12  14
ENDBRANCH   3  12
TORSDOF 5
ENDMDL
MODEL 7
REMARK VINA RESULT:      -6.0      1.883      2.261
REMARK  Name = 
REMARK  6 active torsions:
REMARK  status: ('A' for Active; 'I' for Inactive)
REMARK    1  A    between atoms: C_1  and  C_2
REMARK    2  A    between atoms: C_2  and  C_3
REMARK    3  A    between atoms: C_2  and  C_6
REMARK    4  A    between atoms: C_3  and  O_4
REMARK    5  A    between atoms: C_9  and  C_11
REMARK    6  A    between atoms: C_11  and  C_13
REMARK                            x       y       z     vdW  Elec       q    Type
REMARK                         _______ _______ _______ _____ _____    ______ ____
ROOT
ATOM      1  C   UNL     1       6.987  -4.157  23.999  0.00  0.00    +0.004 A 
ATOM      2  S   UNL     1       6.819  -2.565  24.620  0.00  0.00    -0.089 S 
ATOM      3  C   UNL     1       8.513  -2.349  24.743  0.00  0.00    +0.060 A 
ATOM      4  C   UNL     1       9.183  -3.524  24.463  0.00  0.00    +0.019 A 
ATOM      5  C   UNL     1       8.308  -4.558  24.015  0.00  0.00    +0.013 A 
ENDROOT
BRANCH   1   7
ATOM      6  C   UNL     1       4.538  -3.961  23.586  0.00  0.00    +0.025 C 
ATOM      7  C   UNL     1       5.758  -4.882  23.495  0.00  0.00    +0.131 C 
BRANCH   7   8
ATOM      8  C   UNL     1       5.953  -5.381  22.068  0.00  0.00    +0.312 C 
ATOM      9  O   UNL     1       5.868  -4.686  21.066  0.00  0.00    -0.250 OA
BRANCH   8  10
ATOM     10  O   UNL     1       6.197  -6.712  21.984  0.00  0.00    -0.480 OA
ATOM     11  H   UNL     1       7.120  -6.931  21.756  0.00  0.00    +0.295 HD
ENDBRANCH   8  10
ENDBRANCH   7   8
ENDBRANCH   1   7
BRANCH   3  12
ATOM     12  C   UNL     1       9.030  -1.039  25.117  0.00  0.00    +0.200 C 
ATOM     13  O   UNL     1       9.135  -0.659  26.284  0.00  0.00    -0.286 OA
BRANCH  12  14
ATOM     14  C   UNL     1       9.438  -0.078  24.047  0.00  0.00    +0.023 A 
ATOM     15  C   UNL     1       9.200  -0.331  22.688  0.00  0.00    +0.012 A 
ATOM     16  C   UNL     1       9.559   0.614  21.723  0.00  0.00    +0.001 A 
ATOM     17  C   UNL     1      10.140   1.821  22.109  0.00  0.00    +0.000 A 
ATOM     18  C   UNL     1      10.366   2.087  23.460  0.00  0.00    +0.001 A 
ATOM     19  C   UNL     1      10.014   1.143  24.427  0.00  0.00    +0.012 A 
ENDBRANCH  12  14
ENDBRANCH   3  12
TORSDOF 5
ENDMDL
MODEL 8
REMARK VINA RESULT:      -6.0      1.465      1.709
REMARK  Name = 
REMARK  6 active torsions:
REMARK  status: ('A' for Active; 'I' for Inactive)
REMARK    1  A    between atoms: C_1  and  C_2
REMARK    2  A    between atoms: C_2  and  C_3
REMARK    3  A    between atoms: C_2  and  C_6
REMARK    4  A    between atoms: C_3  and  O_4
REMARK    5  A    between atoms: C_9  and  C_11
REMARK    6  A    between atoms: C_11  and  C_13
REMARK                            x       y       z     vdW  Elec       q    Type
REMARK                         _______ _______ _______ _____ _____    ______ ____
ROOT
ATOM      1  C   UNL     1       7.003  -4.471  23.864  0.00  0.00    +0.004 A 
ATOM      2  S   UNL     1       6.769  -2.845  24.362  0.00  0.00    -0.089 S 
ATOM      3  C   UNL     1       8.433  -2.625  24.699  0.00  0.00    +0.060 A 
ATOM      4  C   UNL     1       9.123  -3.816  24.582  0.00  0.00    +0.019 A 
ATOM      5  C   UNL     1       8.306  -4.874  24.081  0.00  0.00    +0.013 A 
ENDROOT
BRANCH   1   7
ATOM      6  C   UNL     1       6.335  -6.017  22.028  0.00  0.00    +0.025 C 
ATOM      7  C   UNL     1       5.846  -5.223  23.242  0.00  0.00    +0.131 C 
BRANCH   7   8
ATOM      8  C   UNL     1       5.174  -6.144  24.254  0.00  0.00    +0.312 C 
ATOM      9  O   UNL     1       5.057  -5.907  25.447  0.00  0.00    -0.250 OA
BRANCH   8  10
ATOM     10  O   UNL     1       4.734  -7.311  23.721  0.00  0.00    -0.480 OA
ATOM     11  H   UNL     1       5.173  -7.553  22.885  0.00  0.00    +0.295 HD
ENDBRANCH   8  10
ENDBRANCH   7   8
ENDBRANCH   1   7
BRANCH   3  12
ATOM     12  C   UNL     1       8.908  -1.296  25.062  0.00  0.00    +0.200 C 
ATOM     13  O   UNL     1       8.962  -0.889  26.222  0.00  0.00    -0.286 OA
BRANCH  12  14
ATOM     14  C   UNL     1       9.334  -0.350  23.985  0.00  0.00    +0.023 A 
ATOM     15  C   UNL     1       9.172  -0.648  22.624  0.00  0.00    +0.012 A 
ATOM     16  C   UNL     1       9.544   0.283  21.651  0.00  0.00    +0.001 A 
ATOM     17  C   UNL     1      10.062   1.521  22.030  0.00  0.00    +0.000 A 
ATOM     18  C   UNL     1      10.211   1.831  23.381  0.00  0.00    +0.001 A 
ATOM     19  C   UNL     1       9.846   0.902  24.357  0.00  0.00    +0.012 A 
ENDBRANCH  12  14
ENDBRANCH   3  12
TORSDOF 5
ENDMDL
MODEL 9
REMARK VINA RESULT:      -5.8      1.577      2.281
REMARK  Name = 
REMARK  6 active torsions:
REMARK  status: ('A' for Active; 'I' for Inactive)
REMARK    1  A    between atoms: C_1  and  C_2
REMARK    2  A    between atoms: C_2  and  C_3
REMARK    3  A    between atoms: C_2  and  C_6
REMARK    4  A    between atoms: C_3  and  O_4
REMARK    5  A    between atoms: C_9  and  C_11
REMARK    6  A    between atoms: C_11  and  C_13
REMARK                            x       y       z     vdW  Elec       q    Type
REMARK                         _______ _______ _______ _____ _____    ______ ____
ROOT
ATOM      1  C   UNL     1       7.060  -4.021  24.328  0.00  0.00    +0.004 A 
ATOM      2  S   UNL     1       7.725  -3.244  22.949  0.00  0.00    -0.089 S 
ATOM      3  C   UNL     1       8.952  -2.483  23.869  0.00  0.00    +0.060 A 
ATOM      4  C   UNL     1       8.758  -2.694  25.221  0.00  0.00    +0.019 A 
ATOM      5  C   UNL     1       7.684  -3.595  25.484  0.00  0.00    +0.013 A 
ENDROOT
BRANCH   1   7
ATOM      6  C   UNL     1       5.686  -5.761  25.463  0.00  0.00    +0.025 C 
ATOM      7  C   UNL     1       5.967  -5.049  24.137  0.00  0.00    +0.131 C 
BRANCH   7   8
ATOM      8  C   UNL     1       4.696  -4.413  23.585  0.00  0.00    +0.312 C 
ATOM      9  O   UNL     1       4.168  -4.711  22.524  0.00  0.00    -0.250 OA
BRANCH   8  10
ATOM     10  O   UNL     1       4.197  -3.425  24.369  0.00  0.00    -0.480 OA
ATOM     11  H   UNL     1       3.230  -3.321  24.304  0.00  0.00    +0.295 HD
ENDBRANCH   8  10
ENDBRANCH   7   8
ENDBRANCH   1   7
BRANCH   3  12
ATOM     12  C   UNL     1       9.990  -1.733  23.175  0.00  0.00    +0.200 C 
ATOM     13  O   UNL     1      10.920  -2.265  22.570  0.00  0.00    -0.286 OA
BRANCH  12  14
ATOM     14  C   UNL     1       9.960  -0.238  23.204  0.00  0.00    +0.023 A 
ATOM     15  C   UNL     1      10.248   0.491  24.368  0.00  0.00    +0.012 A 
ATOM     16  C   UNL     1      10.252   1.887  24.340  0.00  0.00    +0.001 A 
ATOM     17  C   UNL     1       9.985   2.564  23.151  0.00  0.00    +0.000 A 
ATOM     18  C   UNL     1       9.713   1.847  21.986  0.00  0.00    +0.001 A 
ATOM     19  C   UNL     1       9.703   0.451  22.010  0.00  0.00    +0.012 A 
ENDBRANCH  12  14
ENDBRANCH   3  12
TORSDOF 5
ENDMDL
