MODEL 1
REMARK VINA RESULT:      -7.9      0.000      0.000
REMARK  Name = 
REMARK  5 active torsions:
REMARK  status: ('A' for Active; 'I' for Inactive)
REMARK    1  A    between atoms: C_1  and  O_2
REMARK    2  A    between atoms: O_2  and  C_3
REMARK    3  A    between atoms: C_5  and  N_9
REMARK    4  A    between atoms: C_15  and  S_17
REMARK    5  A    between atoms: S_17  and  N_18
REMARK                            x       y       z     vdW  Elec       q    Type
REMARK                         _______ _______ _______ _____ _____    ______ ____
ROOT
ATOM      1  N   UNL     1       9.682   1.676  23.204  0.00  0.00    -0.178 N 
ATOM      2  S   UNL     1       9.582   0.719  24.594  0.00  0.00    +0.085 S 
ATOM      3  O   UNL     1       8.459   1.154  25.397  0.00  0.00    -0.149 OA
ATOM      4  O   UNL     1      10.908   0.520  25.142  0.00  0.00    -0.149 OA
ATOM      5  C   UNL     1       9.120  -0.839  23.951  0.00  0.00    +0.155 A 
ATOM      6  S   UNL     1       8.836  -2.139  24.985  0.00  0.00    -0.048 S 
ATOM      7  C   UNL     1       8.472  -3.163  23.655  0.00  0.00    +0.145 A 
ATOM      8  C   UNL     1       8.586  -2.498  22.442  0.00  0.00    +0.046 A 
ATOM      9  C   UNL     1       8.968  -1.143  22.626  0.00  0.00    +0.012 A 
ATOM     10  C   UNL     1       9.206  -0.130  21.645  0.00  0.00    +0.027 C 
ATOM     11  C   UNL     1       9.544   1.154  21.878  0.00  0.00    +0.101 C 
ENDROOT
BRANCH   1  16
ATOM     12  C   UNL     1      11.779   4.730  23.460  0.00  0.00    +0.122 A 
ATOM     13  C   UNL     1      10.811   5.674  23.814  0.00  0.00    +0.046 A 
ATOM     14  C   UNL     1       9.469   5.303  23.932  0.00  0.00    +0.005 A 
ATOM     15  C   UNL     1       9.095   3.981  23.702  0.00  0.00    +0.025 A 
ATOM     16  C   UNL     1      10.065   3.034  23.380  0.00  0.00    +0.060 A 
ATOM     17  C   UNL     1      11.408   3.400  23.270  0.00  0.00    +0.070 A 
BRANCH  12  19
ATOM     18  C   UNL     1      13.415   5.668  22.055  0.00  0.00    +0.277 C 
ATOM     19  O   UNL     1      13.059   5.203  23.355  0.00  0.00    -0.495 OA
ENDBRANCH  12  19
ENDBRANCH   1  16
BRANCH   7  20
ATOM     20  S   UNL     1       8.075  -4.843  24.078  0.00  0.00    +0.062 S 
ATOM     21  O   UNL     1       7.713  -5.457  22.823  0.00  0.00    -0.153 OA
ATOM     22  O   UNL     1       7.189  -4.766  25.218  0.00  0.00    -0.153 OA
BRANCH  20  23
ATOM     23  N   UNL     1       9.512  -5.551  24.581  0.00  0.00    -0.203 NA
ATOM     24  H   UNL     1       9.929  -5.055  25.367  0.00  0.00    +0.144 HD
ATOM     25  H   UNL     1       9.424  -6.559  24.704  0.00  0.00    +0.144 HD
ENDBRANCH  20  23
ENDBRANCH   7  20
TORSDOF 4
ENDMDL
MODEL 2
REMARK VINA RESULT:      -7.4      1.079      1.859
REMARK  Name = 
REMARK  5 active torsions:
REMARK  status: ('A' for Active; 'I' for Inactive)
REMARK    1  A    between atoms: C_1  and  O_2
REMARK    2  A    between atoms: O_2  and  C_3
REMARK    3  A    between atoms: C_5  and  N_9
REMARK    4  A    between atoms: C_15  and  S_17
REMARK    5  A    between atoms: S_17  and  N_18
REMARK                            x       y       z     vdW  Elec       q    Type
REMARK                         _______ _______ _______ _____ _____    ______ ____
ROOT
ATOM      1  N   UNL     1       9.816   1.853  23.190  0.00  0.00    -0.178 N 
ATOM      2  S   UNL     1       9.648   0.894  24.572  0.00  0.00    +0.085 S 
ATOM      3  O   UNL     1       8.509   1.352  25.339  0.00  0.00    -0.149 OA
ATOM      4  O   UNL     1      10.950   0.661  25.163  0.00  0.00    -0.149 OA
ATOM      5  C   UNL     1       9.170  -0.651  23.907  0.00  0.00    +0.155 A 
ATOM      6  S   UNL     1       8.821  -1.947  24.926  0.00  0.00    -0.048 S 
ATOM      7  C   UNL     1       8.478  -2.958  23.579  0.00  0.00    +0.145 A 
ATOM      8  C   UNL     1       8.648  -2.291  22.373  0.00  0.00    +0.046 A 
ATOM      9  C   UNL     1       9.056  -0.946  22.576  0.00  0.00    +0.012 A 
ATOM     10  C   UNL     1       9.350   0.065  21.608  0.00  0.00    +0.027 C 
ATOM     11  C   UNL     1       9.710   1.339  21.858  0.00  0.00    +0.101 C 
ENDROOT
BRANCH   1  16
ATOM     12  C   UNL     1       9.681   5.511  23.816  0.00  0.00    +0.122 A 
ATOM     13  C   UNL     1      11.031   5.843  23.675  0.00  0.00    +0.046 A 
ATOM     14  C   UNL     1      11.980   4.853  23.409  0.00  0.00    +0.005 A 
ATOM     15  C   UNL     1      11.576   3.526  23.276  0.00  0.00    +0.025 A 
ATOM     16  C   UNL     1      10.226   3.201  23.385  0.00  0.00    +0.060 A 
ATOM     17  C   UNL     1       9.274   4.189  23.642  0.00  0.00    +0.070 A 
BRANCH  12  19
ATOM     18  C   UNL     1       7.729   6.672  23.206  0.00  0.00    +0.277 C 
ATOM     19  O   UNL     1       8.838   6.554  24.093  0.00  0.00    -0.495 OA
ENDBRANCH  12  19
ENDBRANCH   1  16
BRANCH   7  20
ATOM     20  S   UNL     1       8.027  -4.629  23.981  0.00  0.00    +0.062 S 
ATOM     21  O   UNL     1       7.615  -5.206  22.724  0.00  0.00    -0.153 OA
ATOM     22  O   UNL     1       7.170  -4.541  25.141  0.00  0.00    -0.153 OA
BRANCH  20  23
ATOM     23  N   UNL     1       9.448  -5.399  24.440  0.00  0.00    -0.203 NA
ATOM     24  H   UNL     1       9.988  -5.716  23.637  0.00  0.00    +0.144 HD
ATOM     25  H   UNL     1       9.973  -4.862  25.129  0.00  0.00    +0.144 HD
ENDBRANCH  20  23
ENDBRANCH   7  20
TORSDOF 4
ENDMDL
MODEL 3
REMARK VINA RESULT:      -7.1      2.504      8.047
REMARK  Name = 
REMARK  5 active torsions:
REMARK  status: ('A' for Active; 'I' for Inactive)
REMARK    1  A    between atoms: C_1  and  O_2
REMARK    2  A    between atoms: O_2  and  C_3
REMARK    3  A    between atoms: C_5  and  N_9
REMARK    4  A    between atoms: C_15  and  S_17
REMARK    5  A    between atoms: S_17  and  N_18
REMARK                            x       y       z     vdW  Elec       q    Type
REMARK                         _______ _______ _______ _____ _____    ______ ____
ROOT
ATOM      1  N   UNL     1       8.723  -1.266  23.126  0.00  0.00    -0.178 N 
ATOM      2  S   UNL     1       8.041  -0.141  24.188  0.00  0.00    +0.085 S 
ATOM      3  O   UNL     1       8.447  -0.452  25.542  0.00  0.00    -0.149 OA
ATOM      4  O   UNL     1       6.662   0.101  23.818  0.00  0.00    -0.149 OA
ATOM      5  C   UNL     1       8.885   1.333  23.775  0.00  0.00    +0.155 A 
ATOM      6  S   UNL     1       8.582   2.756  24.624  0.00  0.00    -0.048 S 
ATOM      7  C   UNL     1       9.719   3.614  23.663  0.00  0.00    +0.145 A 
ATOM      8  C   UNL     1      10.303   2.800  22.701  0.00  0.00    +0.046 A 
ATOM      9  C   UNL     1       9.806   1.472  22.773  0.00  0.00    +0.012 A 
ATOM     10  C   UNL     1      10.133   0.340  21.962  0.00  0.00    +0.027 C 
ATOM     11  C   UNL     1       9.647  -0.910  22.091  0.00  0.00    +0.101 C 
ENDROOT
BRANCH   1  16
ATOM     12  C   UNL     1       6.700  -4.301  22.430  0.00  0.00    +0.122 A 
ATOM     13  C   UNL     1       7.216  -5.176  23.390  0.00  0.00    +0.046 A 
ATOM     14  C   UNL     1       8.251  -4.769  24.236  0.00  0.00    +0.005 A 
ATOM     15  C   UNL     1       8.767  -3.480  24.126  0.00  0.00    +0.025 A 
ATOM     16  C   UNL     1       8.230  -2.598  23.190  0.00  0.00    +0.060 A 
ATOM     17  C   UNL     1       7.189  -2.998  22.350  0.00  0.00    +0.070 A 
BRANCH  12  19
ATOM     18  C   UNL     1       6.093  -5.897  20.813  0.00  0.00    +0.277 C 
ATOM     19  O   UNL     1       5.701  -4.806  21.642  0.00  0.00    -0.495 OA
ENDBRANCH  12  19
ENDBRANCH   1  16
BRANCH   7  20
ATOM     20  S   UNL     1       9.890   5.340  24.049  0.00  0.00    +0.062 S 
ATOM     21  O   UNL     1      11.289   5.623  23.833  0.00  0.00    -0.153 OA
ATOM     22  O   UNL     1       9.220   5.532  25.315  0.00  0.00    -0.153 OA
BRANCH  20  23
ATOM     23  N   UNL     1       9.028   6.170  22.871  0.00  0.00    -0.203 NA
ATOM     24  H   UNL     1       8.967   7.166  23.071  0.00  0.00    +0.144 HD
ATOM     25  H   UNL     1       9.339   5.937  21.928  0.00  0.00    +0.144 HD
ENDBRANCH  20  23
ENDBRANCH   7  20
TORSDOF 4
ENDMDL
MODEL 4
REMARK VINA RESULT:      -7.1      3.181      4.778
REMARK  Name = 
REMARK  5 active torsions:
REMARK  status: ('A' for Active; 'I' for Inactive)
REMARK    1  A    between atoms: C_1  and  O_2
REMARK    2  A    between atoms: O_2  and  C_3
REMARK    3  A    between atoms: C_5  and  N_9
REMARK    4  A    between atoms: C_15  and  S_17
REMARK    5  A    between atoms: S_17  and  N_18
REMARK                            x       y       z     vdW  Elec       q    Type
REMARK                         _______ _______ _______ _____ _____    ______ ____
ROOT
ATOM      1  N   UNL     1       8.728  -2.007  24.365  0.00  0.00    -0.178 N 
ATOM      2  S   UNL     1       7.361  -1.734  25.322  0.00  0.00    +0.085 S 
ATOM      3  O   UNL     1       6.189  -1.662  24.475  0.00  0.00    -0.149 OA
ATOM      4  O   UNL     1       7.664  -0.738  26.328  0.00  0.00    -0.149 OA
ATOM      5  C   UNL     1       7.207  -3.235  26.203  0.00  0.00    +0.155 A 
ATOM      6  S   UNL     1       5.923  -3.471  27.269  0.00  0.00    -0.048 S 
ATOM      7  C   UNL     1       6.489  -5.046  27.657  0.00  0.00    +0.145 A 
ATOM      8  C   UNL     1       7.657  -5.361  26.975  0.00  0.00    +0.046 A 
ATOM      9  C   UNL     1       8.069  -4.296  26.132  0.00  0.00    +0.012 A 
ATOM     10  C   UNL     1       9.214  -4.209  25.280  0.00  0.00    +0.027 C 
ATOM     11  C   UNL     1       9.545  -3.177  24.478  0.00  0.00    +0.101 C 
ENDROOT
BRANCH   1  16
ATOM     12  C   UNL     1      10.050   1.275  23.241  0.00  0.00    +0.122 A 
ATOM     13  C   UNL     1       9.881   1.158  21.859  0.00  0.00    +0.046 A 
ATOM     14  C   UNL     1       9.364  -0.017  21.305  0.00  0.00    +0.005 A 
ATOM     15  C   UNL     1       9.009  -1.075  22.139  0.00  0.00    +0.025 A 
ATOM     16  C   UNL     1       9.148  -0.944  23.519  0.00  0.00    +0.060 A 
ATOM     17  C   UNL     1       9.656   0.232  24.075  0.00  0.00    +0.070 A 
BRANCH  12  19
ATOM     18  C   UNL     1       9.616   3.465  23.980  0.00  0.00    +0.277 C 
ATOM     19  O   UNL     1      10.580   2.461  23.675  0.00  0.00    -0.495 OA
ENDBRANCH  12  19
ENDBRANCH   1  16
BRANCH   7  20
ATOM     20  S   UNL     1       5.519  -5.926  28.859  0.00  0.00    +0.062 S 
ATOM     21  O   UNL     1       4.203  -5.341  28.761  0.00  0.00    -0.153 OA
ATOM     22  O   UNL     1       6.303  -5.936  30.072  0.00  0.00    -0.153 OA
BRANCH  20  23
ATOM     23  N   UNL     1       5.403  -7.505  28.299  0.00  0.00    -0.203 NA
ATOM     24  H   UNL     1       5.227  -8.167  29.054  0.00  0.00    +0.144 HD
ATOM     25  H   UNL     1       4.777  -7.587  27.499  0.00  0.00    +0.144 HD
ENDBRANCH  20  23
ENDBRANCH   7  20
TORSDOF 4
ENDMDL
MODEL 5
REMARK VINA RESULT:      -7.0      1.730      2.145
REMARK  Name = 
REMARK  5 active torsions:
REMARK  status: ('A' for Active; 'I' for Inactive)
REMARK    1  A    between atoms: C_1  and  O_2
REMARK    2  A    between atoms: O_2  and  C_3
REMARK    3  A    between atoms: C_5  and  N_9
REMARK    4  A    between atoms: C_15  and  S_17
REMARK    5  A    between atoms: S_17  and  N_18
REMARK                            x       y       z     vdW  Elec       q    Type
REMARK                         _______ _______ _______ _____ _____    ______ ____
ROOT
ATOM      1  N   UNL     1       8.833   1.716  23.370  0.00  0.00    -0.178 N 
ATOM      2  S   UNL     1       7.808   0.894  24.435  0.00  0.00    +0.085 S 
ATOM      3  O   UNL     1       6.499   0.759  23.833  0.00  0.00    -0.149 OA
ATOM      4  O   UNL     1       8.006   1.393  25.780  0.00  0.00    -0.149 OA
ATOM      5  C   UNL     1       8.484  -0.717  24.446  0.00  0.00    +0.155 A 
ATOM      6  S   UNL     1       7.753  -1.944  25.341  0.00  0.00    -0.048 S 
ATOM      7  C   UNL     1       8.946  -3.072  24.836  0.00  0.00    +0.145 A 
ATOM      8  C   UNL     1       9.890  -2.490  24.001  0.00  0.00    +0.046 A 
ATOM      9  C   UNL     1       9.614  -1.115  23.782  0.00  0.00    +0.012 A 
ATOM     10  C   UNL     1      10.341  -0.159  23.006  0.00  0.00    +0.027 C 
ATOM     11  C   UNL     1      10.016   1.135  22.812  0.00  0.00    +0.101 C 
ENDROOT
BRANCH   1  16
ATOM     12  C   UNL     1       9.071   5.417  23.551  0.00  0.00    +0.122 A 
ATOM     13  C   UNL     1       7.968   5.781  22.775  0.00  0.00    +0.046 A 
ATOM     14  C   UNL     1       7.175   4.804  22.168  0.00  0.00    +0.005 A 
ATOM     15  C   UNL     1       7.482   3.457  22.346  0.00  0.00    +0.025 A 
ATOM     16  C   UNL     1       8.563   3.094  23.147  0.00  0.00    +0.060 A 
ATOM     17  C   UNL     1       9.352   4.068  23.761  0.00  0.00    +0.070 A 
BRANCH  12  19
ATOM     18  C   UNL     1      11.182   6.189  24.244  0.00  0.00    +0.277 C 
ATOM     19  O   UNL     1       9.790   6.453  24.084  0.00  0.00    -0.495 OA
ENDBRANCH  12  19
ENDBRANCH   1  16
BRANCH   7  20
ATOM     20  S   UNL     1       8.768  -4.711  25.499  0.00  0.00    +0.062 S 
ATOM     21  O   UNL     1       7.814  -5.354  24.627  0.00  0.00    -0.153 OA
ATOM     22  O   UNL     1       8.569  -4.545  26.921  0.00  0.00    -0.153 OA
BRANCH  20  23
ATOM     23  N   UNL     1      10.246  -5.473  25.264  0.00  0.00    -0.203 NA
ATOM     24  H   UNL     1      10.516  -6.042  26.065  0.00  0.00    +0.144 HD
ATOM     25  H   UNL     1      10.298  -5.945  24.362  0.00  0.00    +0.144 HD
ENDBRANCH  20  23
ENDBRANCH   7  20
TORSDOF 4
ENDMDL
MODEL 6
REMARK VINA RESULT:      -6.8      2.420      7.931
REMARK  Name = 
REMARK  5 active torsions:
REMARK  status: ('A' for Active; 'I' for Inactive)
REMARK    1  A    between atoms: C_1  and  O_2
REMARK    2  A    between atoms: O_2  and  C_3
REMARK    3  A    between atoms: C_5  and  N_9
REMARK    4  A    between atoms: C_15  and  S_17
REMARK    5  A    between atoms: S_17  and  N_18
REMARK                            x       y       z     vdW  Elec       q    Type
REMARK                         _______ _______ _______ _____ _____    ______ ____
ROOT
ATOM      1  N   UNL     1       8.645  -1.298  23.218  0.00  0.00    -0.178 N 
ATOM      2  S   UNL     1       7.903  -0.126  24.186  0.00  0.00    +0.085 S 
ATOM      3  O   UNL     1       8.199  -0.396  25.577  0.00  0.00    -0.149 OA
ATOM      4  O   UNL     1       6.561   0.123  23.703  0.00  0.00    -0.149 OA
ATOM      5  C   UNL     1       8.803   1.319  23.791  0.00  0.00    +0.155 A 
ATOM      6  S   UNL     1       8.460   2.776  24.566  0.00  0.00    -0.048 S 
ATOM      7  C   UNL     1       9.683   3.582  23.668  0.00  0.00    +0.145 A 
ATOM      8  C   UNL     1      10.325   2.727  22.782  0.00  0.00    +0.046 A 
ATOM      9  C   UNL     1       9.801   1.410  22.859  0.00  0.00    +0.012 A 
ATOM     10  C   UNL     1      10.168   0.245  22.114  0.00  0.00    +0.027 C 
ATOM     11  C   UNL     1       9.652  -0.992  22.247  0.00  0.00    +0.101 C 
ENDROOT
BRANCH   1  16
ATOM     12  C   UNL     1       7.901  -4.719  24.454  0.00  0.00    +0.122 A 
ATOM     13  C   UNL     1       7.177  -5.228  23.373  0.00  0.00    +0.046 A 
ATOM     14  C   UNL     1       6.909  -4.427  22.260  0.00  0.00    +0.005 A 
ATOM     15  C   UNL     1       7.375  -3.115  22.225  0.00  0.00    +0.025 A 
ATOM     16  C   UNL     1       8.125  -2.619  23.289  0.00  0.00    +0.060 A 
ATOM     17  C   UNL     1       8.401  -3.419  24.399  0.00  0.00    +0.070 A 
BRANCH  12  19
ATOM     18  C   UNL     1       8.199  -4.953  26.775  0.00  0.00    +0.277 C 
ATOM     19  O   UNL     1       8.091  -5.581  25.500  0.00  0.00    -0.495 OA
ENDBRANCH  12  19
ENDBRANCH   1  16
BRANCH   7  20
ATOM     20  S   UNL     1       9.855   5.318  24.009  0.00  0.00    +0.062 S 
ATOM     21  O   UNL     1      11.251   5.598  23.773  0.00  0.00    -0.153 OA
ATOM     22  O   UNL     1       9.195   5.541  25.275  0.00  0.00    -0.153 OA
BRANCH  20  23
ATOM     23  N   UNL     1       8.980   6.116  22.817  0.00  0.00    -0.203 NA
ATOM     24  H   UNL     1       8.882   5.554  21.973  0.00  0.00    +0.144 HD
ATOM     25  H   UNL     1       8.113   6.513  23.175  0.00  0.00    +0.144 HD
ENDBRANCH  20  23
ENDBRANCH   7  20
TORSDOF 4
ENDMDL
MODEL 7
REMARK VINA RESULT:      -6.8      1.756      2.089
REMARK  Name = 
REMARK  5 active torsions:
REMARK  status: ('A' for Active; 'I' for Inactive)
REMARK    1  A    between atoms: C_1  and  O_2
REMARK    2  A    between atoms: O_2  and  C_3
REMARK    3  A    between atoms: C_5  and  N_9
REMARK    4  A    between atoms: C_15  and  S_17
REMARK    5  A    between atoms: S_17  and  N_18
REMARK                            x       y       z     vdW  Elec       q    Type
REMARK                         _______ _______ _______ _____ _____    ______ ____
ROOT
ATOM      1  N   UNL     1       9.580   1.920  23.746  0.00  0.00    -0.178 N 
ATOM      2  S   UNL     1       8.183   1.213  23.107  0.00  0.00    +0.085 S 
ATOM      3  O   UNL     1       8.187   1.360  21.667  0.00  0.00    -0.149 OA
ATOM      4  O   UNL     1       7.043   1.564  23.929  0.00  0.00    -0.149 OA
ATOM      5  C   UNL     1       8.448  -0.489  23.402  0.00  0.00    +0.155 A 
ATOM      6  S   UNL     1       7.326  -1.631  22.878  0.00  0.00    -0.048 S 
ATOM      7  C   UNL     1       8.276  -2.911  23.517  0.00  0.00    +0.145 A 
ATOM      8  C   UNL     1       9.430  -2.444  24.132  0.00  0.00    +0.046 A 
ATOM      9  C   UNL     1       9.519  -1.028  24.063  0.00  0.00    +0.012 A 
ATOM     10  C   UNL     1      10.530  -0.159  24.580  0.00  0.00    +0.027 C 
ATOM     11  C   UNL     1      10.577   1.182  24.462  0.00  0.00    +0.101 C 
ENDROOT
BRANCH   1  16
ATOM     12  C   UNL     1      11.013   5.339  23.541  0.00  0.00    +0.122 A 
ATOM     13  C   UNL     1       9.852   6.108  23.646  0.00  0.00    +0.046 A 
ATOM     14  C   UNL     1       8.601   5.493  23.748  0.00  0.00    +0.005 A 
ATOM     15  C   UNL     1       8.513   4.103  23.753  0.00  0.00    +0.025 A 
ATOM     16  C   UNL     1       9.675   3.337  23.681  0.00  0.00    +0.060 A 
ATOM     17  C   UNL     1      10.927   3.949  23.588  0.00  0.00    +0.070 A 
BRANCH  12  19
ATOM     18  C   UNL     1      13.280   5.290  22.917  0.00  0.00    +0.277 C 
ATOM     19  O   UNL     1      12.183   6.042  23.429  0.00  0.00    -0.495 OA
ENDBRANCH  12  19
ENDBRANCH   1  16
BRANCH   7  20
ATOM     20  S   UNL     1       7.594  -4.539  23.311  0.00  0.00    +0.062 S 
ATOM     21  O   UNL     1       8.575  -5.421  23.897  0.00  0.00    -0.153 OA
ATOM     22  O   UNL     1       7.167  -4.619  21.933  0.00  0.00    -0.153 OA
BRANCH  20  23
ATOM     23  N   UNL     1       6.227  -4.599  24.285  0.00  0.00    -0.203 NA
ATOM     24  H   UNL     1       5.470  -4.024  23.919  0.00  0.00    +0.144 HD
ATOM     25  H   UNL     1       5.966  -5.555  24.526  0.00  0.00    +0.144 HD
ENDBRANCH  20  23
ENDBRANCH   7  20
TORSDOF 4
ENDMDL
MODEL 8
REMARK VINA RESULT:      -6.8      2.922      8.107
REMARK  Name = 
REMARK  5 active torsions:
REMARK  status: ('A' for Active; 'I' for Inactive)
REMARK    1  A    between atoms: C_1  and  O_2
REMARK    2  A    between atoms: O_2  and  C_3
REMARK    3  A    between atoms: C_5  and  N_9
REMARK    4  A    between atoms: C_15  and  S_17
REMARK    5  A    between atoms: S_17  and  N_18
REMARK                            x       y       z     vdW  Elec       q    Type
REMARK                         _______ _______ _______ _____ _____    ______ ____
ROOT
ATOM      1  N   UNL     1       8.783  -0.810  24.436  0.00  0.00    -0.178 N 
ATOM      2  S   UNL     1       7.464   0.212  24.163  0.00  0.00    +0.085 S 
ATOM      3  O   UNL     1       6.684   0.323  25.377  0.00  0.00    -0.149 OA
ATOM      4  O   UNL     1       6.874  -0.092  22.876  0.00  0.00    -0.149 OA
ATOM      5  C   UNL     1       8.227   1.770  23.954  0.00  0.00    +0.155 A 
ATOM      6  S   UNL     1       7.293   3.151  23.709  0.00  0.00    -0.048 S 
ATOM      7  C   UNL     1       8.702   4.130  23.613  0.00  0.00    +0.145 A 
ATOM      8  C   UNL     1       9.863   3.383  23.759  0.00  0.00    +0.046 A 
ATOM      9  C   UNL     1       9.575   2.007  23.954  0.00  0.00    +0.012 A 
ATOM     10  C   UNL     1      10.476   0.910  24.128  0.00  0.00    +0.027 C 
ATOM     11  C   UNL     1      10.145  -0.379  24.336  0.00  0.00    +0.101 C 
ENDROOT
BRANCH   1  16
ATOM     12  C   UNL     1       8.092  -4.053  26.106  0.00  0.00    +0.122 A 
ATOM     13  C   UNL     1       8.043  -4.904  24.999  0.00  0.00    +0.046 A 
ATOM     14  C   UNL     1       8.204  -4.397  23.707  0.00  0.00    +0.005 A 
ATOM     15  C   UNL     1       8.421  -3.033  23.523  0.00  0.00    +0.025 A 
ATOM     16  C   UNL     1       8.503  -2.190  24.630  0.00  0.00    +0.060 A 
ATOM     17  C   UNL     1       8.352  -2.697  25.922  0.00  0.00    +0.070 A 
BRANCH  12  19
ATOM     18  C   UNL     1       6.707  -5.415  27.431  0.00  0.00    +0.277 C 
ATOM     19  O   UNL     1       7.905  -4.651  27.323  0.00  0.00    -0.495 OA
ENDBRANCH  12  19
ENDBRANCH   1  16
BRANCH   7  20
ATOM     20  S   UNL     1       8.407   5.856  23.311  0.00  0.00    +0.062 S 
ATOM     21  O   UNL     1       9.719   6.458  23.331  0.00  0.00    -0.153 OA
ATOM     22  O   UNL     1       7.337   6.239  24.205  0.00  0.00    -0.153 OA
BRANCH  20  23
ATOM     23  N   UNL     1       7.835   5.964  21.736  0.00  0.00    -0.203 NA
ATOM     24  H   UNL     1       8.280   5.285  21.120  0.00  0.00    +0.144 HD
ATOM     25  H   UNL     1       6.817   5.983  21.695  0.00  0.00    +0.144 HD
ENDBRANCH  20  23
ENDBRANCH   7  20
TORSDOF 4
ENDMDL
MODEL 9
REMARK VINA RESULT:      -6.7      2.832      8.153
REMARK  Name = 
REMARK  5 active torsions:
REMARK  status: ('A' for Active; 'I' for Inactive)
REMARK    1  A    between atoms: C_1  and  O_2
REMARK    2  A    between atoms: O_2  and  C_3
REMARK    3  A    between atoms: C_5  and  N_9
REMARK    4  A    between atoms: C_15  and  S_17
REMARK    5  A    between atoms: S_17  and  N_18
REMARK                            x       y       z     vdW  Elec       q    Type
REMARK                         _______ _______ _______ _____ _____    ______ ____
ROOT
ATOM      1  N   UNL     1       7.972  -0.767  23.706  0.00  0.00    -0.178 N 
ATOM      2  S   UNL     1       9.259   0.019  22.943  0.00  0.00    +0.085 S 
ATOM      3  O   UNL     1       9.000   0.093  21.520  0.00  0.00    -0.149 OA
ATOM      4  O   UNL     1      10.512  -0.458  23.489  0.00  0.00    -0.149 OA
ATOM      5  C   UNL     1       9.104   1.659  23.529  0.00  0.00    +0.155 A 
ATOM      6  S   UNL     1      10.155   2.861  22.990  0.00  0.00    -0.048 S 
ATOM      7  C   UNL     1       9.372   4.034  23.970  0.00  0.00    +0.145 A 
ATOM      8  C   UNL     1       8.328   3.486  24.703  0.00  0.00    +0.046 A 
ATOM      9  C   UNL     1       8.183   2.098  24.441  0.00  0.00    +0.012 A 
ATOM     10  C   UNL     1       7.249   1.167  24.994  0.00  0.00    +0.027 C 
ATOM     11  C   UNL     1       7.139  -0.141  24.689  0.00  0.00    +0.101 C 
ENDROOT
BRANCH   1  16
ATOM     12  C   UNL     1       6.783  -3.958  22.224  0.00  0.00    +0.122 A 
ATOM     13  C   UNL     1       7.468  -4.879  23.021  0.00  0.00    +0.046 A 
ATOM     14  C   UNL     1       8.344  -4.441  24.018  0.00  0.00    +0.005 A 
ATOM     15  C   UNL     1       8.529  -3.075  24.224  0.00  0.00    +0.025 A 
ATOM     16  C   UNL     1       7.820  -2.158  23.450  0.00  0.00    +0.060 A 
ATOM     17  C   UNL     1       6.938  -2.593  22.460  0.00  0.00    +0.070 A 
BRANCH  12  19
ATOM     18  C   UNL     1       6.134  -5.894  21.058  0.00  0.00    +0.277 C 
ATOM     19  O   UNL     1       5.965  -4.494  21.267  0.00  0.00    -0.495 OA
ENDBRANCH  12  19
ENDBRANCH   1  16
BRANCH   7  20
ATOM     20  S   UNL     1      10.062   5.671  23.891  0.00  0.00    +0.062 S 
ATOM     21  O   UNL     1      10.388   5.994  25.259  0.00  0.00    -0.153 OA
ATOM     22  O   UNL     1       9.151   6.446  23.080  0.00  0.00    -0.153 OA
BRANCH  20  23
ATOM     23  N   UNL     1      11.511   5.527  23.055  0.00  0.00    -0.203 NA
ATOM     24  H   UNL     1      11.374   5.530  22.046  0.00  0.00    +0.144 HD
ATOM     25  H   UNL     1      12.220   6.174  23.397  0.00  0.00    +0.144 HD
ENDBRANCH  20  23
ENDBRANCH   7  20
TORSDOF 4
ENDMDL
