MODEL 1
REMARK VINA RESULT:      -4.7      0.000      0.000
REMARK  Name = 
REMARK  5 active torsions:
REMARK  status: ('A' for Active; 'I' for Inactive)
REMARK    1  A    between atoms: O_1  and  C_2
REMARK    2  A    between atoms: C_2  and  C_3
REMARK    3  A    between atoms: C_6  and  O_8
REMARK    4  A    between atoms: C_10  and  O_12
REMARK    5  A    between atoms: C_13  and  O_15
REMARK                            x       y       z     vdW  Elec       q    Type
REMARK                         _______ _______ _______ _____ _____    ______ ____
ROOT
ATOM      1  C   UNL     1       9.446  -2.410  23.742  0.00  0.00    +0.177 C 
ATOM      2  C   UNL     1       8.208  -2.850  22.945  0.00  0.00    +0.174 C 
ATOM      3  C   UNL     1       7.390  -3.850  23.786  0.00  0.00    +0.150 C 
ATOM      4  C   UNL     1       8.268  -4.983  24.279  0.00  0.00    +0.095 C 
ATOM      5  C   UNL     1       9.500  -4.427  24.984  0.00  0.00    +0.250 C 
ATOM      6  O   UNL     1      10.219  -3.560  24.121  0.00  0.00    -0.343 OA
ENDROOT
BRANCH   2   7
ATOM      7  O   UNL     1       7.437  -1.707  22.572  0.00  0.00    -0.387 OA
ATOM      8  H   UNL     1       6.878  -1.947  21.811  0.00  0.00    +0.210 HD
ENDBRANCH   2   7
BRANCH   3   9
ATOM      9  O   UNL     1       6.300  -4.356  23.014  0.00  0.00    -0.389 OA
ATOM     10  H   UNL     1       6.647  -5.017  22.388  0.00  0.00    +0.210 HD
ENDBRANCH   3   9
BRANCH   5  11
ATOM     11  O   UNL     1      10.336  -5.515  25.334  0.00  0.00    -0.367 OA
ATOM     12  H   UNL     1      10.682  -5.837  24.483  0.00  0.00    +0.212 HD
ENDBRANCH   5  11
BRANCH   1  13
ATOM     13  C   UNL     1      10.312  -1.454  22.914  0.00  0.00    +0.190 C 
BRANCH  13  14
ATOM     14  O   UNL     1      10.108  -1.686  21.519  0.00  0.00    -0.392 OA
ATOM     15  H   UNL     1       9.183  -1.961  21.416  0.00  0.00    +0.210 HD
ENDBRANCH  13  14
ENDBRANCH   1  13
TORSDOF 5
ENDMDL
MODEL 2
REMARK VINA RESULT:      -4.4      3.634      4.909
REMARK  Name = 
REMARK  5 active torsions:
REMARK  status: ('A' for Active; 'I' for Inactive)
REMARK    1  A    between atoms: O_1  and  C_2
REMARK    2  A    between atoms: C_2  and  C_3
REMARK    3  A    between atoms: C_6  and  O_8
REMARK    4  A    between atoms: C_10  and  O_12
REMARK    5  A    between atoms: C_13  and  O_15
REMARK                            x       y       z     vdW  Elec       q    Type
REMARK                         _______ _______ _______ _____ _____    ______ ____
ROOT
ATOM      1  C   UNL     1       9.355   2.152  23.680  0.00  0.00    +0.177 C 
ATOM      2  C   UNL     1       9.941   1.346  22.511  0.00  0.00    +0.174 C 
ATOM      3  C   UNL     1       9.436  -0.108  22.590  0.00  0.00    +0.150 C 
ATOM      4  C   UNL     1       9.697  -0.694  23.963  0.00  0.00    +0.095 C 
ATOM      5  C   UNL     1       9.140   0.226  25.043  0.00  0.00    +0.250 C 
ATOM      6  O   UNL     1       9.697   1.526  24.927  0.00  0.00    -0.343 OA
ENDROOT
BRANCH   2   7
ATOM      7  O   UNL     1       9.596   1.966  21.270  0.00  0.00    -0.387 OA
ATOM      8  H   UNL     1       8.702   2.345  21.353  0.00  0.00    +0.210 HD
ENDBRANCH   2   7
BRANCH   3   9
ATOM      9  O   UNL     1      10.064  -0.896  21.577  0.00  0.00    -0.389 OA
ATOM     10  H   UNL     1      10.527  -1.637  22.008  0.00  0.00    +0.210 HD
ENDBRANCH   3   9
BRANCH   5  11
ATOM     11  O   UNL     1       9.498  -0.309  26.305  0.00  0.00    -0.367 OA
ATOM     12  H   UNL     1       9.478   0.456  26.906  0.00  0.00    +0.212 HD
ENDBRANCH   5  11
BRANCH   1  13
ATOM     13  C   UNL     1       9.879   3.592  23.663  0.00  0.00    +0.190 C 
BRANCH  13  14
ATOM     14  O   UNL     1      11.134   3.653  22.983  0.00  0.00    -0.392 OA
ATOM     15  H   UNL     1      11.671   4.313  23.450  0.00  0.00    +0.210 HD
ENDBRANCH  13  14
ENDBRANCH   1  13
TORSDOF 5
ENDMDL
MODEL 3
REMARK VINA RESULT:      -4.4      2.840      4.151
REMARK  Name = 
REMARK  5 active torsions:
REMARK  status: ('A' for Active; 'I' for Inactive)
REMARK    1  A    between atoms: O_1  and  C_2
REMARK    2  A    between atoms: C_2  and  C_3
REMARK    3  A    between atoms: C_6  and  O_8
REMARK    4  A    between atoms: C_10  and  O_12
REMARK    5  A    between atoms: C_13  and  O_15
REMARK                            x       y       z     vdW  Elec       q    Type
REMARK                         _______ _______ _______ _____ _____    ______ ____
ROOT
ATOM      1  C   UNL     1       8.553   0.678  22.694  0.00  0.00    +0.177 C 
ATOM      2  C   UNL     1       9.628  -0.357  22.326  0.00  0.00    +0.174 C 
ATOM      3  C   UNL     1       9.515  -1.568  23.272  0.00  0.00    +0.150 C 
ATOM      4  C   UNL     1       9.529  -1.122  24.720  0.00  0.00    +0.095 C 
ATOM      5  C   UNL     1       8.477  -0.043  24.950  0.00  0.00    +0.250 C 
ATOM      6  O   UNL     1       8.688   1.053  24.075  0.00  0.00    -0.343 OA
ENDROOT
BRANCH   2   7
ATOM      7  O   UNL     1       9.491  -0.733  20.954  0.00  0.00    -0.387 OA
ATOM      8  H   UNL     1       9.270   0.062  20.437  0.00  0.00    +0.210 HD
ENDBRANCH   2   7
BRANCH   3   9
ATOM      9  O   UNL     1      10.581  -2.485  23.017  0.00  0.00    -0.389 OA
ATOM     10  H   UNL     1      10.698  -2.559  22.053  0.00  0.00    +0.210 HD
ENDBRANCH   3   9
BRANCH   5  11
ATOM     11  O   UNL     1       8.597   0.413  26.286  0.00  0.00    -0.367 OA
ATOM     12  H   UNL     1       9.467   0.089  26.574  0.00  0.00    +0.212 HD
ENDBRANCH   5  11
BRANCH   1  13
ATOM     13  C   UNL     1       8.670   1.922  21.806  0.00  0.00    +0.190 C 
BRANCH  13  14
ATOM     14  O   UNL     1      10.040   2.173  21.487  0.00  0.00    -0.392 OA
ATOM     15  H   UNL     1      10.211   1.738  20.637  0.00  0.00    +0.210 HD
ENDBRANCH  13  14
ENDBRANCH   1  13
TORSDOF 5
ENDMDL
MODEL 4
REMARK VINA RESULT:      -4.3      2.749      3.538
REMARK  Name = 
REMARK  5 active torsions:
REMARK  status: ('A' for Active; 'I' for Inactive)
REMARK    1  A    between atoms: O_1  and  C_2
REMARK    2  A    between atoms: C_2  and  C_3
REMARK    3  A    between atoms: C_6  and  O_8
REMARK    4  A    between atoms: C_10  and  O_12
REMARK    5  A    between atoms: C_13  and  O_15
REMARK                            x       y       z     vdW  Elec       q    Type
REMARK                         _______ _______ _______ _____ _____    ______ ____
ROOT
ATOM      1  C   UNL     1       7.455  -5.051  23.280  0.00  0.00    +0.177 C 
ATOM      2  C   UNL     1       6.314  -5.286  24.281  0.00  0.00    +0.174 C 
ATOM      3  C   UNL     1       6.718  -4.722  25.657  0.00  0.00    +0.150 C 
ATOM      4  C   UNL     1       8.066  -5.266  26.086  0.00  0.00    +0.095 C 
ATOM      5  C   UNL     1       9.099  -5.047  24.987  0.00  0.00    +0.250 C 
ATOM      6  O   UNL     1       8.668  -5.642  23.773  0.00  0.00    -0.343 OA
ENDROOT
BRANCH   2   7
ATOM      7  O   UNL     1       5.108  -4.694  23.793  0.00  0.00    -0.387 OA
ATOM      8  H   UNL     1       5.293  -4.290  22.926  0.00  0.00    +0.210 HD
ENDBRANCH   2   7
BRANCH   3   9
ATOM      9  O   UNL     1       5.716  -5.036  26.625  0.00  0.00    -0.389 OA
ATOM     10  H   UNL     1       4.904  -4.551  26.394  0.00  0.00    +0.210 HD
ENDBRANCH   3   9
BRANCH   5  11
ATOM     11  O   UNL     1      10.310  -5.661  25.390  0.00  0.00    -0.367 OA
ATOM     12  H   UNL     1      10.971  -4.949  25.335  0.00  0.00    +0.212 HD
ENDBRANCH   5  11
BRANCH   1  13
ATOM     13  C   UNL     1       7.108  -5.649  21.911  0.00  0.00    +0.190 C 
BRANCH  13  14
ATOM     14  O   UNL     1       6.218  -6.755  22.067  0.00  0.00    -0.392 OA
ATOM     15  H   UNL     1       6.767  -7.521  22.304  0.00  0.00    +0.210 HD
ENDBRANCH  13  14
ENDBRANCH   1  13
TORSDOF 5
ENDMDL
MODEL 5
REMARK VINA RESULT:      -4.3      2.997      5.310
REMARK  Name = 
REMARK  5 active torsions:
REMARK  status: ('A' for Active; 'I' for Inactive)
REMARK    1  A    between atoms: O_1  and  C_2
REMARK    2  A    between atoms: C_2  and  C_3
REMARK    3  A    between atoms: C_6  and  O_8
REMARK    4  A    between atoms: C_10  and  O_12
REMARK    5  A    between atoms: C_13  and  O_15
REMARK                            x       y       z     vdW  Elec       q    Type
REMARK                         _______ _______ _______ _____ _____    ______ ____
ROOT
ATOM      1  C   UNL     1       9.267   0.345  24.526  0.00  0.00    +0.177 C 
ATOM      2  C   UNL     1       9.297  -0.877  23.594  0.00  0.00    +0.174 C 
ATOM      3  C   UNL     1      10.101  -0.531  22.326  0.00  0.00    +0.150 C 
ATOM      4  C   UNL     1       9.581   0.743  21.690  0.00  0.00    +0.095 C 
ATOM      5  C   UNL     1       9.522   1.862  22.723  0.00  0.00    +0.250 C 
ATOM      6  O   UNL     1       8.721   1.477  23.830  0.00  0.00    -0.343 OA
ENDROOT
BRANCH   2   7
ATOM      7  O   UNL     1       9.844  -2.002  24.285  0.00  0.00    -0.387 OA
ATOM      8  H   UNL     1       9.830  -1.813  25.241  0.00  0.00    +0.210 HD
ENDBRANCH   2   7
BRANCH   3   9
ATOM      9  O   UNL     1      10.040  -1.618  21.400  0.00  0.00    -0.389 OA
ATOM     10  H   UNL     1       9.465  -1.358  20.659  0.00  0.00    +0.210 HD
ENDBRANCH   3   9
BRANCH   5  11
ATOM     11  O   UNL     1       8.935   2.997  22.112  0.00  0.00    -0.367 OA
ATOM     12  H   UNL     1       7.981   2.808  22.117  0.00  0.00    +0.212 HD
ENDBRANCH   5  11
BRANCH   1  13
ATOM     13  C   UNL     1       8.429   0.053  25.776  0.00  0.00    +0.190 C 
BRANCH  13  14
ATOM     14  O   UNL     1       9.268  -0.409  26.836  0.00  0.00    -0.392 OA
ATOM     15  H   UNL     1      10.172  -0.434  26.483  0.00  0.00    +0.210 HD
ENDBRANCH  13  14
ENDBRANCH   1  13
TORSDOF 5
ENDMDL
MODEL 6
REMARK VINA RESULT:      -4.2      4.032      5.737
REMARK  Name = 
REMARK  5 active torsions:
REMARK  status: ('A' for Active; 'I' for Inactive)
REMARK    1  A    between atoms: O_1  and  C_2
REMARK    2  A    between atoms: C_2  and  C_3
REMARK    3  A    between atoms: C_6  and  O_8
REMARK    4  A    between atoms: C_10  and  O_12
REMARK    5  A    between atoms: C_13  and  O_15
REMARK                            x       y       z     vdW  Elec       q    Type
REMARK                         _______ _______ _______ _____ _____    ______ ____
ROOT
ATOM      1  C   UNL     1       8.802   2.251  22.390  0.00  0.00    +0.177 C 
ATOM      2  C   UNL     1       9.036   1.974  23.883  0.00  0.00    +0.174 C 
ATOM      3  C   UNL     1      10.258   1.050  24.045  0.00  0.00    +0.150 C 
ATOM      4  C   UNL     1      10.114  -0.188  23.182  0.00  0.00    +0.095 C 
ATOM      5  C   UNL     1       9.809   0.206  21.742  0.00  0.00    +0.250 C 
ATOM      6  O   UNL     1       8.642   1.011  21.682  0.00  0.00    -0.343 OA
ENDROOT
BRANCH   2   7
ATOM      7  O   UNL     1       9.200   3.207  24.587  0.00  0.00    -0.387 OA
ATOM      8  H   UNL     1       9.637   3.845  23.993  0.00  0.00    +0.210 HD
ENDBRANCH   2   7
BRANCH   3   9
ATOM      9  O   UNL     1      10.418   0.691  25.419  0.00  0.00    -0.389 OA
ATOM     10  H   UNL     1      10.100  -0.222  25.537  0.00  0.00    +0.210 HD
ENDBRANCH   3   9
BRANCH   5  11
ATOM     11  O   UNL     1       9.582  -0.979  20.999  0.00  0.00    -0.367 OA
ATOM     12  H   UNL     1       9.765  -1.697  21.629  0.00  0.00    +0.212 HD
ENDBRANCH   5  11
BRANCH   1  13
ATOM     13  C   UNL     1       7.560   3.126  22.188  0.00  0.00    +0.190 C 
BRANCH  13  14
ATOM     14  O   UNL     1       7.931   4.504  22.131  0.00  0.00    -0.392 OA
ATOM     15  H   UNL     1       8.527   4.662  22.881  0.00  0.00    +0.210 HD
ENDBRANCH  13  14
ENDBRANCH   1  13
TORSDOF 5
ENDMDL
MODEL 7
REMARK VINA RESULT:      -4.2      2.468      4.538
REMARK  Name = 
REMARK  5 active torsions:
REMARK  status: ('A' for Active; 'I' for Inactive)
REMARK    1  A    between atoms: O_1  and  C_2
REMARK    2  A    between atoms: C_2  and  C_3
REMARK    3  A    between atoms: C_6  and  O_8
REMARK    4  A    between atoms: C_10  and  O_12
REMARK    5  A    between atoms: C_13  and  O_15
REMARK                            x       y       z     vdW  Elec       q    Type
REMARK                         _______ _______ _______ _____ _____    ______ ____
ROOT
ATOM      1  C   UNL     1       9.541  -1.504  23.745  0.00  0.00    +0.177 C 
ATOM      2  C   UNL     1       9.418  -0.775  22.399  0.00  0.00    +0.174 C 
ATOM      3  C   UNL     1       9.903   0.679  22.560  0.00  0.00    +0.150 C 
ATOM      4  C   UNL     1       9.199   1.356  23.719  0.00  0.00    +0.095 C 
ATOM      5  C   UNL     1       9.321   0.507  24.979  0.00  0.00    +0.250 C 
ATOM      6  O   UNL     1       8.804  -0.795  24.755  0.00  0.00    -0.343 OA
ENDROOT
BRANCH   2   7
ATOM      7  O   UNL     1      10.155  -1.477  21.396  0.00  0.00    -0.387 OA
ATOM      8  H   UNL     1      11.079  -1.561  21.694  0.00  0.00    +0.210 HD
ENDBRANCH   2   7
BRANCH   3   9
ATOM      9  O   UNL     1       9.687   1.401  21.347  0.00  0.00    -0.389 OA
ATOM     10  H   UNL     1       9.152   2.189  21.550  0.00  0.00    +0.210 HD
ENDBRANCH   3   9
BRANCH   5  11
ATOM     11  O   UNL     1       8.563   1.126  26.003  0.00  0.00    -0.367 OA
ATOM     12  H   UNL     1       9.209   1.300  26.710  0.00  0.00    +0.212 HD
ENDBRANCH   5  11
BRANCH   1  13
ATOM     13  C   UNL     1       9.016  -2.940  23.635  0.00  0.00    +0.190 C 
BRANCH  13  14
ATOM     14  O   UNL     1       8.057  -3.035  22.580  0.00  0.00    -0.392 OA
ATOM     15  H   UNL     1       7.443  -2.292  22.697  0.00  0.00    +0.210 HD
ENDBRANCH  13  14
ENDBRANCH   1  13
TORSDOF 5
ENDMDL
MODEL 8
REMARK VINA RESULT:      -4.2      6.645      8.757
REMARK  Name = 
REMARK  5 active torsions:
REMARK  status: ('A' for Active; 'I' for Inactive)
REMARK    1  A    between atoms: O_1  and  C_2
REMARK    2  A    between atoms: C_2  and  C_3
REMARK    3  A    between atoms: C_6  and  O_8
REMARK    4  A    between atoms: C_10  and  O_12
REMARK    5  A    between atoms: C_13  and  O_15
REMARK                            x       y       z     vdW  Elec       q    Type
REMARK                         _______ _______ _______ _____ _____    ______ ____
ROOT
ATOM      1  C   UNL     1      10.684   3.536  23.241  0.00  0.00    +0.177 C 
ATOM      2  C   UNL     1       9.910   4.562  24.083  0.00  0.00    +0.174 C 
ATOM      3  C   UNL     1      10.420   5.979  23.757  0.00  0.00    +0.150 C 
ATOM      4  C   UNL     1      11.928   6.051  23.892  0.00  0.00    +0.095 C 
ATOM      5  C   UNL     1      12.584   4.942  23.077  0.00  0.00    +0.250 C 
ATOM      6  O   UNL     1      12.094   3.673  23.479  0.00  0.00    -0.343 OA
ENDROOT
BRANCH   2   7
ATOM      7  O   UNL     1       8.507   4.430  23.843  0.00  0.00    -0.387 OA
ATOM      8  H   UNL     1       8.368   3.680  23.236  0.00  0.00    +0.210 HD
ENDBRANCH   2   7
BRANCH   3   9
ATOM      9  O   UNL     1       9.791   6.932  24.616  0.00  0.00    -0.389 OA
ATOM     10  H   UNL     1      10.479   7.516  24.982  0.00  0.00    +0.210 HD
ENDBRANCH   3   9
BRANCH   5  11
ATOM     11  O   UNL     1      13.980   4.986  23.316  0.00  0.00    -0.367 OA
ATOM     12  H   UNL     1      14.310   5.659  22.696  0.00  0.00    +0.212 HD
ENDBRANCH   5  11
BRANCH   1  13
ATOM     13  C   UNL     1      10.237   2.109  23.578  0.00  0.00    +0.190 C 
BRANCH  13  14
ATOM     14  O   UNL     1       9.574   2.086  24.843  0.00  0.00    -0.392 OA
ATOM     15  H   UNL     1      10.214   2.407  25.498  0.00  0.00    +0.210 HD
ENDBRANCH  13  14
ENDBRANCH   1  13
TORSDOF 5
ENDMDL
MODEL 9
REMARK VINA RESULT:      -4.2      3.172      4.859
REMARK  Name = 
REMARK  5 active torsions:
REMARK  status: ('A' for Active; 'I' for Inactive)
REMARK    1  A    between atoms: O_1  and  C_2
REMARK    2  A    between atoms: C_2  and  C_3
REMARK    3  A    between atoms: C_6  and  O_8
REMARK    4  A    between atoms: C_10  and  O_12
REMARK    5  A    between atoms: C_13  and  O_15
REMARK                            x       y       z     vdW  Elec       q    Type
REMARK                         _______ _______ _______ _____ _____    ______ ____
ROOT
ATOM      1  C   UNL     1       7.441  -0.658  23.146  0.00  0.00    +0.177 C 
ATOM      2  C   UNL     1       7.563   0.864  22.976  0.00  0.00    +0.174 C 
ATOM      3  C   UNL     1       8.308   1.173  21.663  0.00  0.00    +0.150 C 
ATOM      4  C   UNL     1       9.620   0.416  21.598  0.00  0.00    +0.095 C 
ATOM      5  C   UNL     1       9.386  -1.068  21.857  0.00  0.00    +0.250 C 
ATOM      6  O   UNL     1       8.744  -1.261  23.108  0.00  0.00    -0.343 OA
ENDROOT
BRANCH   2   7
ATOM      7  O   UNL     1       6.267   1.464  23.010  0.00  0.00    -0.387 OA
ATOM      8  H   UNL     1       6.341   2.377  22.678  0.00  0.00    +0.210 HD
ENDBRANCH   2   7
BRANCH   3   9
ATOM      9  O   UNL     1       8.531   2.579  21.549  0.00  0.00    -0.389 OA
ATOM     10  H   UNL     1       9.232   2.726  20.889  0.00  0.00    +0.210 HD
ENDBRANCH   3   9
BRANCH   5  11
ATOM     11  O   UNL     1      10.646  -1.714  21.889  0.00  0.00    -0.367 OA
ATOM     12  H   UNL     1      10.901  -1.700  22.828  0.00  0.00    +0.212 HD
ENDBRANCH   5  11
BRANCH   1  13
ATOM     13  C   UNL     1       6.751  -1.002  24.471  0.00  0.00    +0.190 C 
BRANCH  13  14
ATOM     14  O   UNL     1       5.331  -0.941  24.319  0.00  0.00    -0.392 OA
ATOM     15  H   UNL     1       5.063  -1.767  23.886  0.00  0.00    +0.210 HD
ENDBRANCH  13  14
ENDBRANCH   1  13
TORSDOF 5
ENDMDL
