MODEL 1
REMARK VINA RESULT:      -6.3      0.000      0.000
REMARK  Name = 
REMARK  5 active torsions:
REMARK  status: ('A' for Active; 'I' for Inactive)
REMARK    1  A    between atoms: C_1  and  C_2
REMARK    2  A    between atoms: C_2  and  O_3
REMARK    3  A    between atoms: C_2  and  C_4
REMARK    4  A    between atoms: C_4  and  O_5
REMARK    5  A    between atoms: C_4  and  C_6
REMARK                            x       y       z     vdW  Elec       q    Type
REMARK                         _______ _______ _______ _____ _____    ______ ____
ROOT
ATOM      1  C   UNL     1       8.256  -2.256  22.400  0.00  0.00    +0.119 C 
ATOM      2  N   UNL     1       9.006  -2.985  23.447  0.00  0.00    -0.330 N 
ATOM      3  H   UNL     1       9.811  -3.535  23.142  0.00  0.00    +0.147 HD
ATOM      4  C   UNL     1       8.255  -3.755  24.362  0.00  0.00    +0.133 A 
ATOM      5  C   UNL     1       8.957  -4.833  25.180  0.00  0.00    +0.297 A 
ATOM      6  N   UNL     1       8.199  -5.636  26.007  0.00  0.00    -0.176 NA
ATOM      7  C   UNL     1       6.931  -5.413  26.075  0.00  0.00    +0.195 A 
ATOM      8  N   UNL     1       6.268  -4.428  25.421  0.00  0.00    -0.315 N 
ATOM      9  H   UNL     1       5.282  -4.552  25.252  0.00  0.00    +0.170 HD
ATOM     10  N   UNL     1       6.123  -6.186  26.844  0.00  0.00    -0.329 N 
ATOM     11  H   UNL     1       5.441  -5.672  27.387  0.00  0.00    +0.145 HD
ATOM     12  H   UNL     1       6.674  -6.800  27.438  0.00  0.00    +0.145 HD
ATOM     13  O   UNL     1      10.171  -4.973  25.039  0.00  0.00    -0.264 OA
ATOM     14  C   UNL     1       6.913  -3.626  24.519  0.00  0.00    +0.125 A 
ATOM     15  N   UNL     1       6.204  -2.707  23.746  0.00  0.00    -0.327 N 
ATOM     16  H   UNL     1       5.368  -2.368  24.212  0.00  0.00    +0.148 HD
ATOM     17  C   UNL     1       6.952  -1.662  23.015  0.00  0.00    +0.127 C 
ENDROOT
BRANCH   1  18
ATOM     18  C   UNL     1       9.118  -1.189  21.688  0.00  0.00    +0.164 C 
BRANCH  18  20
ATOM     19  C   UNL     1      10.152   0.779  23.034  0.00  0.00    +0.040 C 
ATOM     20  C   UNL     1       8.997   0.271  22.180  0.00  0.00    +0.142 C 
BRANCH  20  21
ATOM     21  O   UNL     1       8.937   1.121  21.021  0.00  0.00    -0.389 OA
ATOM     22  H   UNL     1       9.801   1.031  20.573  0.00  0.00    +0.210 HD
ENDBRANCH  20  21
ENDBRANCH  18  20
BRANCH  18  23
ATOM     23  O   UNL     1      10.506  -1.578  21.692  0.00  0.00    -0.387 OA
ATOM     24  H   UNL     1      10.778  -1.658  22.623  0.00  0.00    +0.210 HD
ENDBRANCH  18  23
ENDBRANCH   1  18
TORSDOF 4
ENDMDL
MODEL 2
REMARK VINA RESULT:      -6.2      2.809      5.749
REMARK  Name = 
REMARK  5 active torsions:
REMARK  status: ('A' for Active; 'I' for Inactive)
REMARK    1  A    between atoms: C_1  and  C_2
REMARK    2  A    between atoms: C_2  and  O_3
REMARK    3  A    between atoms: C_2  and  C_4
REMARK    4  A    between atoms: C_4  and  O_5
REMARK    5  A    between atoms: C_4  and  C_6
REMARK                            x       y       z     vdW  Elec       q    Type
REMARK                         _______ _______ _______ _____ _____    ______ ____
ROOT
ATOM      1  C   UNL     1       7.181  -3.273  23.648  0.00  0.00    +0.119 C 
ATOM      2  N   UNL     1       8.392  -2.868  22.900  0.00  0.00    -0.330 N 
ATOM      3  H   UNL     1       9.289  -3.210  23.249  0.00  0.00    +0.147 HD
ATOM      4  C   UNL     1       8.525  -1.499  22.579  0.00  0.00    +0.133 A 
ATOM      5  C   UNL     1       9.895  -0.955  22.193  0.00  0.00    +0.297 A 
ATOM      6  N   UNL     1      10.031   0.399  21.966  0.00  0.00    -0.176 NA
ATOM      7  C   UNL     1       8.979   1.139  22.058  0.00  0.00    +0.195 A 
ATOM      8  N   UNL     1       7.727   0.697  22.333  0.00  0.00    -0.315 N 
ATOM      9  H   UNL     1       7.070   1.352  22.729  0.00  0.00    +0.170 HD
ATOM     10  N   UNL     1       9.048   2.483  21.878  0.00  0.00    -0.329 N 
ATOM     11  H   UNL     1       8.305   2.870  21.312  0.00  0.00    +0.145 HD
ATOM     12  H   UNL     1       9.960   2.749  21.517  0.00  0.00    +0.145 HD
ATOM     13  O   UNL     1      10.840  -1.741  22.139  0.00  0.00    -0.264 OA
ATOM     14  C   UNL     1       7.498  -0.614  22.648  0.00  0.00    +0.125 A 
ATOM     15  N   UNL     1       6.237  -1.039  23.066  0.00  0.00    -0.327 N 
ATOM     16  H   UNL     1       5.487  -0.478  22.673  0.00  0.00    +0.148 HD
ATOM     17  C   UNL     1       5.949  -2.488  23.105  0.00  0.00    +0.127 C 
ENDROOT
BRANCH   1  18
ATOM     18  C   UNL     1       6.963  -4.804  23.639  0.00  0.00    +0.164 C 
BRANCH  18  20
ATOM     19  C   UNL     1       6.595  -5.765  21.253  0.00  0.00    +0.040 C 
ATOM     20  C   UNL     1       5.982  -5.379  22.593  0.00  0.00    +0.142 C 
BRANCH  20  21
ATOM     21  O   UNL     1       5.406  -6.576  23.143  0.00  0.00    -0.389 OA
ATOM     22  H   UNL     1       6.158  -7.126  23.443  0.00  0.00    +0.210 HD
ENDBRANCH  20  21
ENDBRANCH  18  20
BRANCH  18  23
ATOM     23  O   UNL     1       8.226  -5.492  23.534  0.00  0.00    -0.387 OA
ATOM     24  H   UNL     1       8.911  -4.885  23.866  0.00  0.00    +0.210 HD
ENDBRANCH  18  23
ENDBRANCH   1  18
TORSDOF 4
ENDMDL
MODEL 3
REMARK VINA RESULT:      -6.2      2.983      6.433
REMARK  Name = 
REMARK  5 active torsions:
REMARK  status: ('A' for Active; 'I' for Inactive)
REMARK    1  A    between atoms: C_1  and  C_2
REMARK    2  A    between atoms: C_2  and  O_3
REMARK    3  A    between atoms: C_2  and  C_4
REMARK    4  A    between atoms: C_4  and  O_5
REMARK    5  A    between atoms: C_4  and  C_6
REMARK                            x       y       z     vdW  Elec       q    Type
REMARK                         _______ _______ _______ _____ _____    ______ ____
ROOT
ATOM      1  C   UNL     1       9.383  -2.264  24.717  0.00  0.00    +0.119 C 
ATOM      2  N   UNL     1       9.147  -1.561  23.436  0.00  0.00    -0.330 N 
ATOM      3  H   UNL     1       9.495  -2.013  22.589  0.00  0.00    +0.147 HD
ATOM      4  C   UNL     1       9.474  -0.188  23.383  0.00  0.00    +0.133 A 
ATOM      5  C   UNL     1       9.649   0.483  22.025  0.00  0.00    +0.297 A 
ATOM      6  N   UNL     1      10.053   1.801  21.984  0.00  0.00    -0.176 NA
ATOM      7  C   UNL     1      10.231   2.417  23.103  0.00  0.00    +0.195 A 
ATOM      8  N   UNL     1      10.025   1.887  24.335  0.00  0.00    -0.315 N 
ATOM      9  H   UNL     1      10.516   2.298  25.114  0.00  0.00    +0.170 HD
ATOM     10  N   UNL     1      10.657   3.705  23.136  0.00  0.00    -0.329 N 
ATOM     11  H   UNL     1      10.169   4.293  23.798  0.00  0.00    +0.145 HD
ATOM     12  H   UNL     1      10.641   4.111  22.204  0.00  0.00    +0.145 HD
ATOM     13  O   UNL     1       9.464  -0.193  21.013  0.00  0.00    -0.264 OA
ATOM     14  C   UNL     1       9.697   0.568  24.487  0.00  0.00    +0.125 A 
ATOM     15  N   UNL     1       9.624  -0.008  25.755  0.00  0.00    -0.327 N 
ATOM     16  H   UNL     1       9.360   0.661  26.472  0.00  0.00    +0.148 HD
ATOM     17  C   UNL     1       8.982  -1.332  25.901  0.00  0.00    +0.127 C 
ENDROOT
BRANCH   1  18
ATOM     18  C   UNL     1       8.679  -3.639  24.777  0.00  0.00    +0.164 C 
BRANCH  18  20
ATOM     19  C   UNL     1       8.000  -5.300  26.657  0.00  0.00    +0.040 C 
ATOM     20  C   UNL     1       9.124  -4.621  25.884  0.00  0.00    +0.142 C 
BRANCH  20  21
ATOM     21  O   UNL     1       9.887  -5.668  25.261  0.00  0.00    -0.389 OA
ATOM     22  H   UNL     1       9.749  -6.467  25.809  0.00  0.00    +0.210 HD
ENDBRANCH  20  21
ENDBRANCH  18  20
BRANCH  18  23
ATOM     23  O   UNL     1       7.248  -3.470  24.839  0.00  0.00    -0.387 OA
ATOM     24  H   UNL     1       7.056  -2.556  24.567  0.00  0.00    +0.210 HD
ENDBRANCH  18  23
ENDBRANCH   1  18
TORSDOF 4
ENDMDL
MODEL 4
REMARK VINA RESULT:      -6.2      2.724      6.025
REMARK  Name = 
REMARK  5 active torsions:
REMARK  status: ('A' for Active; 'I' for Inactive)
REMARK    1  A    between atoms: C_1  and  C_2
REMARK    2  A    between atoms: C_2  and  O_3
REMARK    3  A    between atoms: C_2  and  C_4
REMARK    4  A    between atoms: C_4  and  O_5
REMARK    5  A    between atoms: C_4  and  C_6
REMARK                            x       y       z     vdW  Elec       q    Type
REMARK                         _______ _______ _______ _____ _____    ______ ____
ROOT
ATOM      1  C   UNL     1       8.401  -3.091  24.554  0.00  0.00    +0.119 C 
ATOM      2  N   UNL     1       9.467  -2.080  24.722  0.00  0.00    -0.330 N 
ATOM      3  H   UNL     1       9.625  -1.726  25.668  0.00  0.00    +0.147 HD
ATOM      4  C   UNL     1       9.470  -0.988  23.826  0.00  0.00    +0.133 A 
ATOM      5  C   UNL     1      10.255   0.268  24.187  0.00  0.00    +0.297 A 
ATOM      6  N   UNL     1      10.181   1.360  23.346  0.00  0.00    -0.176 NA
ATOM      7  C   UNL     1       9.475   1.253  22.272  0.00  0.00    +0.195 A 
ATOM      8  N   UNL     1       8.813   0.139  21.872  0.00  0.00    -0.315 N 
ATOM      9  H   UNL     1       8.031   0.252  21.247  0.00  0.00    +0.170 HD
ATOM     10  N   UNL     1       9.334   2.298  21.418  0.00  0.00    -0.329 N 
ATOM     11  H   UNL     1       9.420   2.056  20.439  0.00  0.00    +0.145 HD
ATOM     12  H   UNL     1       9.971   3.050  21.665  0.00  0.00    +0.145 HD
ATOM     13  O   UNL     1      10.893   0.275  25.239  0.00  0.00    -0.264 OA
ATOM     14  C   UNL     1       8.761  -0.972  22.670  0.00  0.00    +0.125 A 
ATOM     15  N   UNL     1       7.966  -2.063  22.322  0.00  0.00    -0.327 N 
ATOM     16  H   UNL     1       7.855  -2.161  21.318  0.00  0.00    +0.148 HD
ATOM     17  C   UNL     1       8.163  -3.344  23.034  0.00  0.00    +0.127 C 
ENDROOT
BRANCH   1  18
ATOM     18  C   UNL     1       8.689  -4.393  25.336  0.00  0.00    +0.164 C 
BRANCH  18  20
ATOM     19  C   UNL     1       6.347  -5.476  25.647  0.00  0.00    +0.040 C 
ATOM     20  C   UNL     1       7.597  -4.902  26.303  0.00  0.00    +0.142 C 
BRANCH  20  21
ATOM     21  O   UNL     1       8.169  -5.958  27.095  0.00  0.00    -0.389 OA
ATOM     22  H   UNL     1       9.009  -5.606  27.450  0.00  0.00    +0.210 HD
ENDBRANCH  20  21
ENDBRANCH  18  20
BRANCH  18  23
ATOM     23  O   UNL     1       9.053  -5.455  24.430  0.00  0.00    -0.387 OA
ATOM     24  H   UNL     1       9.798  -5.933  24.835  0.00  0.00    +0.210 HD
ENDBRANCH  18  23
ENDBRANCH   1  18
TORSDOF 4
ENDMDL
MODEL 5
REMARK VINA RESULT:      -6.1      2.444      3.079
REMARK  Name = 
REMARK  5 active torsions:
REMARK  status: ('A' for Active; 'I' for Inactive)
REMARK    1  A    between atoms: C_1  and  C_2
REMARK    2  A    between atoms: C_2  and  O_3
REMARK    3  A    between atoms: C_2  and  C_4
REMARK    4  A    between atoms: C_4  and  O_5
REMARK    5  A    between atoms: C_4  and  C_6
REMARK                            x       y       z     vdW  Elec       q    Type
REMARK                         _______ _______ _______ _____ _____    ______ ____
ROOT
ATOM      1  C   UNL     1       8.153  -2.008  23.969  0.00  0.00    +0.119 C 
ATOM      2  N   UNL     1       7.515  -2.668  22.809  0.00  0.00    -0.330 N 
ATOM      3  H   UNL     1       6.992  -2.070  22.166  0.00  0.00    +0.147 HD
ATOM      4  C   UNL     1       6.755  -3.831  23.063  0.00  0.00    +0.133 A 
ATOM      5  C   UNL     1       5.756  -4.311  22.017  0.00  0.00    +0.297 A 
ATOM      6  N   UNL     1       4.958  -5.397  22.312  0.00  0.00    -0.176 NA
ATOM      7  C   UNL     1       5.120  -5.978  23.451  0.00  0.00    +0.195 A 
ATOM      8  N   UNL     1       6.038  -5.633  24.388  0.00  0.00    -0.315 N 
ATOM      9  H   UNL     1       5.857  -5.892  25.346  0.00  0.00    +0.170 HD
ATOM     10  N   UNL     1       4.347  -7.032  23.818  0.00  0.00    -0.329 N 
ATOM     11  H   UNL     1       4.853  -7.795  24.248  0.00  0.00    +0.145 HD
ATOM     12  H   UNL     1       3.792  -7.359  23.032  0.00  0.00    +0.145 HD
ATOM     13  O   UNL     1       5.670  -3.683  20.963  0.00  0.00    -0.264 OA
ATOM     14  C   UNL     1       6.826  -4.526  24.226  0.00  0.00    +0.125 A 
ATOM     15  N   UNL     1       7.668  -4.094  25.250  0.00  0.00    -0.327 N 
ATOM     16  H   UNL     1       7.987  -4.856  25.840  0.00  0.00    +0.148 HD
ATOM     17  C   UNL     1       8.711  -3.093  24.940  0.00  0.00    +0.127 C 
ENDROOT
BRANCH   1  18
ATOM     18  C   UNL     1       9.225  -0.977  23.550  0.00  0.00    +0.164 C 
BRANCH  18  20
ATOM     19  C   UNL     1       9.824   0.832  21.782  0.00  0.00    +0.040 C 
ATOM     20  C   UNL     1       9.272  -0.560  22.062  0.00  0.00    +0.142 C 
BRANCH  20  21
ATOM     21  O   UNL     1      10.125  -1.489  21.372  0.00  0.00    -0.389 OA
ATOM     22  H   UNL     1      10.803  -1.767  22.020  0.00  0.00    +0.210 HD
ENDBRANCH  20  21
ENDBRANCH  18  20
BRANCH  18  23
ATOM     23  O   UNL     1       9.136   0.205  24.371  0.00  0.00    -0.387 OA
ATOM     24  H   UNL     1       8.293   0.154  24.855  0.00  0.00    +0.210 HD
ENDBRANCH  18  23
ENDBRANCH   1  18
TORSDOF 4
ENDMDL
MODEL 6
REMARK VINA RESULT:      -6.1      2.214      3.168
REMARK  Name = 
REMARK  5 active torsions:
REMARK  status: ('A' for Active; 'I' for Inactive)
REMARK    1  A    between atoms: C_1  and  C_2
REMARK    2  A    between atoms: C_2  and  O_3
REMARK    3  A    between atoms: C_2  and  C_4
REMARK    4  A    between atoms: C_4  and  O_5
REMARK    5  A    between atoms: C_4  and  C_6
REMARK                            x       y       z     vdW  Elec       q    Type
REMARK                         _______ _______ _______ _____ _____    ______ ____
ROOT
ATOM      1  C   UNL     1       8.706   0.138  22.726  0.00  0.00    +0.119 C 
ATOM      2  N   UNL     1       8.240  -1.180  22.241  0.00  0.00    -0.330 N 
ATOM      3  H   UNL     1       7.269  -1.242  21.931  0.00  0.00    +0.147 HD
ATOM      4  C   UNL     1       8.530  -2.304  23.044  0.00  0.00    +0.133 A 
ATOM      5  C   UNL     1       7.745  -3.594  22.831  0.00  0.00    +0.297 A 
ATOM      6  N   UNL     1       7.976  -4.658  23.677  0.00  0.00    -0.176 NA
ATOM      7  C   UNL     1       8.874  -4.522  24.593  0.00  0.00    +0.195 A 
ATOM      8  N   UNL     1       9.645  -3.423  24.783  0.00  0.00    -0.315 N 
ATOM      9  H   UNL     1      10.038  -3.273  25.700  0.00  0.00    +0.170 HD
ATOM     10  N   UNL     1       9.130  -5.518  25.479  0.00  0.00    -0.329 N 
ATOM     11  H   UNL     1      10.112  -5.687  25.650  0.00  0.00    +0.145 HD
ATOM     12  H   UNL     1       8.654  -6.373  25.202  0.00  0.00    +0.145 HD
ATOM     13  O   UNL     1       6.903  -3.622  21.934  0.00  0.00    -0.264 OA
ATOM     14  C   UNL     1       9.444  -2.287  24.047  0.00  0.00    +0.125 A 
ATOM     15  N   UNL     1      10.140  -1.115  24.338  0.00  0.00    -0.327 N 
ATOM     16  H   UNL     1      11.053  -1.295  24.744  0.00  0.00    +0.148 HD
ATOM     17  C   UNL     1      10.126  -0.014  23.352  0.00  0.00    +0.127 C 
ENDROOT
BRANCH   1  18
ATOM     18  C   UNL     1       8.652   1.227  21.631  0.00  0.00    +0.164 C 
BRANCH  18  20
ATOM     19  C   UNL     1       6.463   2.030  22.779  0.00  0.00    +0.040 C 
ATOM     20  C   UNL     1       7.552   2.307  21.751  0.00  0.00    +0.142 C 
BRANCH  20  21
ATOM     21  O   UNL     1       8.186   3.537  22.142  0.00  0.00    -0.389 OA
ATOM     22  H   UNL     1       8.513   3.396  23.053  0.00  0.00    +0.210 HD
ENDBRANCH  20  21
ENDBRANCH  18  20
BRANCH  18  23
ATOM     23  O   UNL     1       9.935   1.870  21.495  0.00  0.00    -0.387 OA
ATOM     24  H   UNL     1      10.512   1.507  22.190  0.00  0.00    +0.210 HD
ENDBRANCH  18  23
ENDBRANCH   1  18
TORSDOF 4
ENDMDL
MODEL 7
REMARK VINA RESULT:      -6.0      2.563      3.482
REMARK  Name = 
REMARK  5 active torsions:
REMARK  status: ('A' for Active; 'I' for Inactive)
REMARK    1  A    between atoms: C_1  and  C_2
REMARK    2  A    between atoms: C_2  and  O_3
REMARK    3  A    between atoms: C_2  and  C_4
REMARK    4  A    between atoms: C_4  and  O_5
REMARK    5  A    between atoms: C_4  and  C_6
REMARK                            x       y       z     vdW  Elec       q    Type
REMARK                         _______ _______ _______ _____ _____    ______ ____
ROOT
ATOM      1  C   UNL     1       9.809   0.417  23.478  0.00  0.00    +0.119 C 
ATOM      2  N   UNL     1       8.912  -0.169  24.499  0.00  0.00    -0.330 N 
ATOM      3  H   UNL     1       8.834   0.329  25.387  0.00  0.00    +0.147 HD
ATOM      4  C   UNL     1       9.050  -1.549  24.765  0.00  0.00    +0.133 A 
ATOM      5  C   UNL     1       8.475  -2.118  26.057  0.00  0.00    +0.297 A 
ATOM      6  N   UNL     1       8.690  -3.449  26.348  0.00  0.00    -0.176 NA
ATOM      7  C   UNL     1       9.343  -4.160  25.493  0.00  0.00    +0.195 A 
ATOM      8  N   UNL     1       9.819  -3.720  24.302  0.00  0.00    -0.315 N 
ATOM      9  H   UNL     1      10.593  -4.216  23.889  0.00  0.00    +0.170 HD
ATOM     10  N   UNL     1       9.618  -5.468  25.732  0.00  0.00    -0.329 N 
ATOM     11  H   UNL     1       9.471  -6.080  24.940  0.00  0.00    +0.145 HD
ATOM     12  H   UNL     1       9.109  -5.797  26.548  0.00  0.00    +0.145 HD
ATOM     13  O   UNL     1       7.873  -1.356  26.812  0.00  0.00    -0.264 OA
ATOM     14  C   UNL     1       9.724  -2.401  23.952  0.00  0.00    +0.125 A 
ATOM     15  N   UNL     1      10.335  -1.924  22.793  0.00  0.00    -0.327 N 
ATOM     16  H   UNL     1      10.404  -2.632  22.069  0.00  0.00    +0.148 HD
ATOM     17  C   UNL     1       9.966  -0.583  22.292  0.00  0.00    +0.127 C 
ENDROOT
BRANCH   1  18
ATOM     18  C   UNL     1       9.347   1.819  23.017  0.00  0.00    +0.164 C 
BRANCH  18  20
ATOM     19  C   UNL     1       8.897   4.315  23.581  0.00  0.00    +0.040 C 
ATOM     20  C   UNL     1       9.491   2.984  24.022  0.00  0.00    +0.142 C 
BRANCH  20  21
ATOM     21  O   UNL     1       8.807   2.608  25.230  0.00  0.00    -0.389 OA
ATOM     22  H   UNL     1       8.105   1.982  24.961  0.00  0.00    +0.210 HD
ENDBRANCH  20  21
ENDBRANCH  18  20
BRANCH  18  23
ATOM     23  O   UNL     1       9.991   2.179  21.778  0.00  0.00    -0.387 OA
ATOM     24  H   UNL     1       9.609   1.615  21.083  0.00  0.00    +0.210 HD
ENDBRANCH  18  23
ENDBRANCH   1  18
TORSDOF 4
ENDMDL
MODEL 8
REMARK VINA RESULT:      -5.8      3.198      6.209
REMARK  Name = 
REMARK  5 active torsions:
REMARK  status: ('A' for Active; 'I' for Inactive)
REMARK    1  A    between atoms: C_1  and  C_2
REMARK    2  A    between atoms: C_2  and  O_3
REMARK    3  A    between atoms: C_2  and  C_4
REMARK    4  A    between atoms: C_4  and  O_5
REMARK    5  A    between atoms: C_4  and  C_6
REMARK                            x       y       z     vdW  Elec       q    Type
REMARK                         _______ _______ _______ _____ _____    ______ ____
ROOT
ATOM      1  C   UNL     1       8.354  -2.597  22.698  0.00  0.00    +0.119 C 
ATOM      2  N   UNL     1       7.637  -1.307  22.792  0.00  0.00    -0.330 N 
ATOM      3  H   UNL     1       6.884  -1.146  22.121  0.00  0.00    +0.147 HD
ATOM      4  C   UNL     1       8.421  -0.136  22.879  0.00  0.00    +0.133 A 
ATOM      5  C   UNL     1       7.784   1.212  22.565  0.00  0.00    +0.297 A 
ATOM      6  N   UNL     1       8.579   2.339  22.568  0.00  0.00    -0.176 NA
ATOM      7  C   UNL     1       9.825   2.202  22.873  0.00  0.00    +0.195 A 
ATOM      8  N   UNL     1      10.427   1.039  23.224  0.00  0.00    -0.315 N 
ATOM      9  H   UNL     1      11.423   0.963  23.092  0.00  0.00    +0.170 HD
ATOM     10  N   UNL     1      10.670   3.264  22.865  0.00  0.00    -0.329 N 
ATOM     11  H   UNL     1      11.297   3.308  23.658  0.00  0.00    +0.145 HD
ATOM     12  H   UNL     1      10.153   4.133  22.760  0.00  0.00    +0.145 HD
ATOM     13  O   UNL     1       6.587   1.238  22.278  0.00  0.00    -0.264 OA
ATOM     14  C   UNL     1       9.745  -0.147  23.178  0.00  0.00    +0.125 A 
ATOM     15  N   UNL     1      10.401  -1.356  23.404  0.00  0.00    -0.327 N 
ATOM     16  H   UNL     1      11.197  -1.258  24.026  0.00  0.00    +0.148 HD
ATOM     17  C   UNL     1       9.593  -2.571  23.644  0.00  0.00    +0.127 C 
ENDROOT
BRANCH   1  18
ATOM     18  C   UNL     1       7.431  -3.810  22.959  0.00  0.00    +0.164 C 
BRANCH  18  20
ATOM     19  C   UNL     1       5.895  -5.654  21.964  0.00  0.00    +0.040 C 
ATOM     20  C   UNL     1       6.517  -4.273  21.803  0.00  0.00    +0.142 C 
BRANCH  20  21
ATOM     21  O   UNL     1       5.428  -3.340  21.703  0.00  0.00    -0.389 OA
ATOM     22  H   UNL     1       4.745  -3.777  21.156  0.00  0.00    +0.210 HD
ENDBRANCH  20  21
ENDBRANCH  18  20
BRANCH  18  23
ATOM     23  O   UNL     1       8.199  -4.933  23.437  0.00  0.00    -0.387 OA
ATOM     24  H   UNL     1       7.794  -5.735  23.063  0.00  0.00    +0.210 HD
ENDBRANCH  18  23
ENDBRANCH   1  18
TORSDOF 4
ENDMDL
MODEL 9
REMARK VINA RESULT:      -5.8      2.707      3.756
REMARK  Name = 
REMARK  5 active torsions:
REMARK  status: ('A' for Active; 'I' for Inactive)
REMARK    1  A    between atoms: C_1  and  C_2
REMARK    2  A    between atoms: C_2  and  O_3
REMARK    3  A    between atoms: C_2  and  C_4
REMARK    4  A    between atoms: C_4  and  O_5
REMARK    5  A    between atoms: C_4  and  C_6
REMARK                            x       y       z     vdW  Elec       q    Type
REMARK                         _______ _______ _______ _____ _____    ______ ____
ROOT
ATOM      1  C   UNL     1       9.070   0.465  22.838  0.00  0.00    +0.119 C 
ATOM      2  N   UNL     1       7.694   0.126  23.264  0.00  0.00    -0.330 N 
ATOM      3  H   UNL     1       7.387   0.487  24.169  0.00  0.00    +0.147 HD
ATOM      4  C   UNL     1       7.299  -1.226  23.160  0.00  0.00    +0.133 A 
ATOM      5  C   UNL     1       6.085  -1.709  23.945  0.00  0.00    +0.297 A 
ATOM      6  N   UNL     1       5.760  -3.049  23.904  0.00  0.00    -0.176 NA
ATOM      7  C   UNL     1       6.483  -3.827  23.173  0.00  0.00    +0.195 A 
ATOM      8  N   UNL     1       7.530  -3.438  22.405  0.00  0.00    -0.315 N 
ATOM      9  H   UNL     1       8.227  -4.128  22.171  0.00  0.00    +0.170 HD
ATOM     10  N   UNL     1       6.238  -5.161  23.112  0.00  0.00    -0.329 N 
ATOM     11  H   UNL     1       6.278  -5.554  22.181  0.00  0.00    +0.145 HD
ATOM     12  H   UNL     1       5.355  -5.383  23.566  0.00  0.00    +0.145 HD
ATOM     13  O   UNL     1       5.464  -0.890  24.620  0.00  0.00    -0.264 OA
ATOM     14  C   UNL     1       7.980  -2.146  22.433  0.00  0.00    +0.125 A 
ATOM     15  N   UNL     1       9.141  -1.780  21.752  0.00  0.00    -0.327 N 
ATOM     16  H   UNL     1       9.308  -2.353  20.931  0.00  0.00    +0.148 HD
ATOM     17  C   UNL     1       9.428  -0.343  21.554  0.00  0.00    +0.127 C 
ENDROOT
BRANCH   1  18
ATOM     18  C   UNL     1       9.278   1.986  22.661  0.00  0.00    +0.164 C 
BRANCH  18  20
ATOM     19  C   UNL     1       9.241   4.251  23.936  0.00  0.00    +0.040 C 
ATOM     20  C   UNL     1       9.701   2.799  23.906  0.00  0.00    +0.142 C 
BRANCH  20  21
ATOM     21  O   UNL     1       9.130   2.161  25.062  0.00  0.00    -0.389 OA
ATOM     22  H   UNL     1       9.665   2.456  25.826  0.00  0.00    +0.210 HD
ENDBRANCH  20  21
ENDBRANCH  18  20
BRANCH  18  23
ATOM     23  O   UNL     1      10.205   2.246  21.588  0.00  0.00    -0.387 OA
ATOM     24  H   UNL     1      10.102   3.182  21.341  0.00  0.00    +0.210 HD
ENDBRANCH  18  23
ENDBRANCH   1  18
TORSDOF 4
ENDMDL
