MODEL 1
REMARK VINA RESULT:      -6.8      0.000      0.000
REMARK  Name = 
REMARK  8 active torsions:
REMARK  status: ('A' for Active; 'I' for Inactive)
REMARK    1  A    between atoms: C_2  and  O_3
REMARK    2  A    between atoms: C_5  and  N_16
REMARK    3  A    between atoms: C_8  and  C_10
REMARK    4  A    between atoms: C_10  and  O_11
REMARK    5  A    between atoms: O_11  and  P_12
REMARK    6  A    between atoms: P_12  and  O_13
REMARK    7  A    between atoms: P_12  and  O_14
REMARK    8  A    between atoms: C_21  and  N_25
REMARK                            x       y       z     vdW  Elec       q    Type
REMARK                         _______ _______ _______ _____ _____    ______ ____
ROOT
ATOM      1  C   UNL     1       9.452   0.825  22.207  0.00  0.00    +0.150 C 
ATOM      2  C   UNL     1      10.307   0.639  23.459  0.00  0.00    +0.175 C 
ATOM      3  O   UNL     1      10.486  -0.782  23.624  0.00  0.00    -0.348 OA
ATOM      4  C   UNL     1       9.828  -1.476  22.545  0.00  0.00    +0.222 C 
ATOM      5  C   UNL     1       9.753  -0.436  21.431  0.00  0.00    +0.088 C 
ENDROOT
BRANCH   4   6
ATOM      6  N   UNL     1       8.538  -2.003  23.016  0.00  0.00    -0.320 N 
ATOM      7  C   UNL     1       8.340  -3.007  23.958  0.00  0.00    +0.052 A 
ATOM      8  C   UNL     1       6.954  -3.119  24.147  0.00  0.00    +0.006 A 
ATOM      9  C   UNL     1       6.453  -4.028  25.101  0.00  0.00    +0.094 A 
ATOM     10  C   UNL     1       7.355  -4.816  25.828  0.00  0.00    +0.274 A 
ATOM     11  C   UNL     1       8.730  -4.725  25.611  0.00  0.00    +0.086 A 
ATOM     12  C   UNL     1       6.328  -2.231  23.243  0.00  0.00    +0.028 A 
ATOM     13  C   UNL     1       9.239  -3.822  24.671  0.00  0.00    +0.033 A 
ATOM     14  C   UNL     1       7.315  -1.601  22.526  0.00  0.00    +0.089 A 
BRANCH  10  15
ATOM     15  N   UNL     1       6.834  -5.747  26.836  0.00  0.00    +0.080 N 
ATOM     16  O   UNL     1       5.825  -6.411  26.548  0.00  0.00    +0.041 OA
ATOM     17  O   UNL     1       7.435  -5.820  27.916  0.00  0.00    -0.576 OA
ENDBRANCH  10  15
ENDBRANCH   4   6
BRANCH   1  18
ATOM     18  O   UNL     1       9.766   2.002  21.486  0.00  0.00    -0.389 OA
ATOM     19  H   UNL     1      10.506   2.458  21.923  0.00  0.00    +0.210 HD
ENDBRANCH   1  18
BRANCH   2  20
ATOM     20  C   UNL     1       9.645   1.248  24.695  0.00  0.00    +0.206 C 
BRANCH  20  21
ATOM     21  O   UNL     1       8.236   1.038  24.648  0.00  0.00    -0.284 OA
BRANCH  21  22
ATOM     22  P   UNL     1       7.615   0.268  26.066  0.00  0.00    +0.472 P 
ATOM     23  O   UNL     1       7.058  -0.422  27.337  0.00  0.00    -0.228 OA
BRANCH  22  24
ATOM     24  O   UNL     1       7.740   1.739  26.770  0.00  0.00    -0.303 OA
ATOM     25  H   UNL     1       7.642   2.462  26.129  0.00  0.00    +0.222 HD
ENDBRANCH  22  24
BRANCH  22  26
ATOM     26  O   UNL     1       9.157  -0.207  26.331  0.00  0.00    -0.303 OA
ATOM     27  H   UNL     1       9.478   0.139  27.180  0.00  0.00    +0.222 HD
ENDBRANCH  22  26
ENDBRANCH  21  22
ENDBRANCH  20  21
ENDBRANCH   2  20
TORSDOF 8
ENDMDL
MODEL 2
REMARK VINA RESULT:      -6.7      2.565      6.699
REMARK  Name = 
REMARK  8 active torsions:
REMARK  status: ('A' for Active; 'I' for Inactive)
REMARK    1  A    between atoms: C_2  and  O_3
REMARK    2  A    between atoms: C_5  and  N_16
REMARK    3  A    between atoms: C_8  and  C_10
REMARK    4  A    between atoms: C_10  and  O_11
REMARK    5  A    between atoms: O_11  and  P_12
REMARK    6  A    between atoms: P_12  and  O_13
REMARK    7  A    between atoms: P_12  and  O_14
REMARK    8  A    between atoms: C_21  and  N_25
REMARK                            x       y       z     vdW  Elec       q    Type
REMARK                         _______ _______ _______ _____ _____    ______ ____
ROOT
ATOM      1  C   UNL     1       5.100  -6.329  24.116  0.00  0.00    +0.150 C 
ATOM      2  C   UNL     1       4.304  -5.188  24.745  0.00  0.00    +0.175 C 
ATOM      3  O   UNL     1       4.710  -3.983  24.062  0.00  0.00    -0.348 OA
ATOM      4  C   UNL     1       5.671  -4.313  23.041  0.00  0.00    +0.222 C 
ATOM      5  C   UNL     1       5.397  -5.783  22.738  0.00  0.00    +0.088 C 
ENDROOT
BRANCH   4   6
ATOM      6  N   UNL     1       7.025  -3.999  23.523  0.00  0.00    -0.320 N 
ATOM      7  C   UNL     1       7.690  -2.783  23.413  0.00  0.00    +0.052 A 
ATOM      8  C   UNL     1       8.915  -2.928  24.080  0.00  0.00    +0.006 A 
ATOM      9  C   UNL     1       9.786  -1.824  24.185  0.00  0.00    +0.094 A 
ATOM     10  C   UNL     1       9.413  -0.606  23.600  0.00  0.00    +0.274 A 
ATOM     11  C   UNL     1       8.209  -0.478  22.908  0.00  0.00    +0.086 A 
ATOM     12  C   UNL     1       9.009  -4.271  24.513  0.00  0.00    +0.028 A 
ATOM     13  C   UNL     1       7.334  -1.566  22.802  0.00  0.00    +0.033 A 
ATOM     14  C   UNL     1       7.866  -4.918  24.112  0.00  0.00    +0.089 A 
BRANCH  10  15
ATOM     15  N   UNL     1      10.310   0.548  23.728  0.00  0.00    +0.080 N 
ATOM     16  O   UNL     1      10.242   1.436  22.862  0.00  0.00    +0.041 OA
ATOM     17  O   UNL     1      11.080   0.573  24.698  0.00  0.00    -0.576 OA
ENDBRANCH  10  15
ENDBRANCH   4   6
BRANCH   1  18
ATOM     18  O   UNL     1       4.388  -7.553  24.079  0.00  0.00    -0.389 OA
ATOM     19  H   UNL     1       3.436  -7.367  23.990  0.00  0.00    +0.210 HD
ENDBRANCH   1  18
BRANCH   2  20
ATOM     20  C   UNL     1       4.567  -5.073  26.246  0.00  0.00    +0.206 C 
BRANCH  20  21
ATOM     21  O   UNL     1       5.514  -6.057  26.654  0.00  0.00    -0.284 OA
BRANCH  21  22
ATOM     22  P   UNL     1       5.942  -5.940  28.325  0.00  0.00    +0.472 P 
ATOM     23  O   UNL     1       6.325  -5.835  29.822  0.00  0.00    -0.228 OA
BRANCH  22  24
ATOM     24  O   UNL     1       7.486  -6.120  27.816  0.00  0.00    -0.303 OA
ATOM     25  H   UNL     1       7.613  -6.942  27.314  0.00  0.00    +0.222 HD
ENDBRANCH  22  24
BRANCH  22  26
ATOM     26  O   UNL     1       5.575  -7.532  28.401  0.00  0.00    -0.303 OA
ATOM     27  H   UNL     1       6.079  -7.963  29.110  0.00  0.00    +0.222 HD
ENDBRANCH  22  26
ENDBRANCH  21  22
ENDBRANCH  20  21
ENDBRANCH   2  20
TORSDOF 8
ENDMDL
MODEL 3
REMARK VINA RESULT:      -6.6      1.586      2.214
REMARK  Name = 
REMARK  8 active torsions:
REMARK  status: ('A' for Active; 'I' for Inactive)
REMARK    1  A    between atoms: C_2  and  O_3
REMARK    2  A    between atoms: C_5  and  N_16
REMARK    3  A    between atoms: C_8  and  C_10
REMARK    4  A    between atoms: C_10  and  O_11
REMARK    5  A    between atoms: O_11  and  P_12
REMARK    6  A    between atoms: P_12  and  O_13
REMARK    7  A    between atoms: P_12  and  O_14
REMARK    8  A    between atoms: C_21  and  N_25
REMARK                            x       y       z     vdW  Elec       q    Type
REMARK                         _______ _______ _______ _____ _____    ______ ____
ROOT
ATOM      1  C   UNL     1       9.173   0.277  22.044  0.00  0.00    +0.150 C 
ATOM      2  C   UNL     1       9.797   0.354  23.436  0.00  0.00    +0.175 C 
ATOM      3  O   UNL     1      10.148  -0.996  23.802  0.00  0.00    -0.348 OA
ATOM      4  C   UNL     1       9.812  -1.888  22.720  0.00  0.00    +0.222 C 
ATOM      5  C   UNL     1       9.796  -0.984  21.491  0.00  0.00    +0.088 C 
ENDROOT
BRANCH   4   6
ATOM      6  N   UNL     1       8.549  -2.575  23.026  0.00  0.00    -0.320 N 
ATOM      7  C   UNL     1       8.312  -3.462  24.071  0.00  0.00    +0.052 A 
ATOM      8  C   UNL     1       6.952  -3.802  24.016  0.00  0.00    +0.006 A 
ATOM      9  C   UNL     1       6.407  -4.650  25.001  0.00  0.00    +0.094 A 
ATOM     10  C   UNL     1       7.244  -5.152  26.006  0.00  0.00    +0.274 A 
ATOM     11  C   UNL     1       8.603  -4.839  26.036  0.00  0.00    +0.086 A 
ATOM     12  C   UNL     1       6.403  -3.175  22.874  0.00  0.00    +0.028 A 
ATOM     13  C   UNL     1       9.155  -3.993  25.067  0.00  0.00    +0.033 A 
ATOM     14  C   UNL     1       7.411  -2.477  22.256  0.00  0.00    +0.089 A 
BRANCH  10  15
ATOM     15  N   UNL     1       6.670  -6.017  27.042  0.00  0.00    +0.080 N 
ATOM     16  O   UNL     1       7.192  -6.000  28.169  0.00  0.00    +0.041 OA
ATOM     17  O   UNL     1       5.693  -6.713  26.734  0.00  0.00    -0.576 OA
ENDBRANCH  10  15
ENDBRANCH   4   6
BRANCH   1  18
ATOM     18  O   UNL     1       9.440   1.416  21.248  0.00  0.00    -0.389 OA
ATOM     19  H   UNL     1      10.177   1.917  21.641  0.00  0.00    +0.210 HD
ENDBRANCH   1  18
BRANCH   2  20
ATOM     20  C   UNL     1       8.833   0.958  24.457  0.00  0.00    +0.206 C 
BRANCH  20  21
ATOM     21  O   UNL     1       8.117   2.042  23.872  0.00  0.00    -0.284 OA
BRANCH  21  22
ATOM     22  P   UNL     1       8.816   3.586  24.215  0.00  0.00    +0.472 P 
ATOM     23  O   UNL     1       9.444   4.968  24.522  0.00  0.00    -0.228 OA
BRANCH  22  24
ATOM     24  O   UNL     1       7.298   4.049  24.609  0.00  0.00    -0.303 OA
ATOM     25  H   UNL     1       6.638   3.377  24.377  0.00  0.00    +0.222 HD
ENDBRANCH  22  24
BRANCH  22  26
ATOM     26  O   UNL     1       8.692   3.859  22.607  0.00  0.00    -0.303 OA
ATOM     27  H   UNL     1       8.314   3.085  22.159  0.00  0.00    +0.222 HD
ENDBRANCH  22  26
ENDBRANCH  21  22
ENDBRANCH  20  21
ENDBRANCH   2  20
TORSDOF 8
ENDMDL
MODEL 4
REMARK VINA RESULT:      -6.5      2.971      6.600
REMARK  Name = 
REMARK  8 active torsions:
REMARK  status: ('A' for Active; 'I' for Inactive)
REMARK    1  A    between atoms: C_2  and  O_3
REMARK    2  A    between atoms: C_5  and  N_16
REMARK    3  A    between atoms: C_8  and  C_10
REMARK    4  A    between atoms: C_10  and  O_11
REMARK    5  A    between atoms: O_11  and  P_12
REMARK    6  A    between atoms: P_12  and  O_13
REMARK    7  A    between atoms: P_12  and  O_14
REMARK    8  A    between atoms: C_21  and  N_25
REMARK                            x       y       z     vdW  Elec       q    Type
REMARK                         _______ _______ _______ _____ _____    ______ ____
ROOT
ATOM      1  C   UNL     1       9.271  -3.035  24.070  0.00  0.00    +0.150 C 
ATOM      2  C   UNL     1       8.066  -3.586  23.312  0.00  0.00    +0.175 C 
ATOM      3  O   UNL     1       7.776  -2.639  22.263  0.00  0.00    -0.348 OA
ATOM      4  C   UNL     1       8.737  -1.567  22.306  0.00  0.00    +0.222 C 
ATOM      5  C   UNL     1       9.940  -2.180  23.018  0.00  0.00    +0.088 C 
ENDROOT
BRANCH   4   6
ATOM      6  N   UNL     1       8.135  -0.395  22.961  0.00  0.00    -0.320 N 
ATOM      7  C   UNL     1       8.758   0.816  23.243  0.00  0.00    +0.052 A 
ATOM      8  C   UNL     1       7.781   1.657  23.795  0.00  0.00    +0.006 A 
ATOM      9  C   UNL     1       8.114   2.986  24.127  0.00  0.00    +0.094 A 
ATOM     10  C   UNL     1       9.424   3.432  23.914  0.00  0.00    +0.274 A 
ATOM     11  C   UNL     1      10.401   2.581  23.397  0.00  0.00    +0.086 A 
ATOM     12  C   UNL     1       6.591   0.903  23.919  0.00  0.00    +0.028 A 
ATOM     13  C   UNL     1      10.081   1.261  23.058  0.00  0.00    +0.033 A 
ATOM     14  C   UNL     1       6.849  -0.363  23.453  0.00  0.00    +0.089 A 
BRANCH  10  15
ATOM     15  N   UNL     1       9.764   4.821  24.241  0.00  0.00    +0.080 N 
ATOM     16  O   UNL     1      10.700   5.353  23.620  0.00  0.00    +0.041 OA
ATOM     17  O   UNL     1       9.093   5.387  25.115  0.00  0.00    -0.576 OA
ENDBRANCH  10  15
ENDBRANCH   4   6
BRANCH   1  18
ATOM     18  O   UNL     1      10.122  -4.046  24.578  0.00  0.00    -0.389 OA
ATOM     19  H   UNL     1      10.293  -3.877  25.521  0.00  0.00    +0.210 HD
ENDBRANCH   1  18
BRANCH   2  20
ATOM     20  C   UNL     1       6.854  -3.767  24.227  0.00  0.00    +0.206 C 
BRANCH  20  21
ATOM     21  O   UNL     1       6.857  -5.078  24.787  0.00  0.00    -0.284 OA
BRANCH  21  22
ATOM     22  P   UNL     1       6.899  -5.080  26.516  0.00  0.00    +0.472 P 
ATOM     23  O   UNL     1       6.937  -5.081  28.064  0.00  0.00    -0.228 OA
BRANCH  22  24
ATOM     24  O   UNL     1       8.342  -5.832  26.357  0.00  0.00    -0.303 OA
ATOM     25  H   UNL     1       8.246  -6.754  26.067  0.00  0.00    +0.222 HD
ENDBRANCH  22  24
BRANCH  22  26
ATOM     26  O   UNL     1       5.968  -6.420  26.412  0.00  0.00    -0.303 OA
ATOM     27  H   UNL     1       5.033  -6.195  26.541  0.00  0.00    +0.222 HD
ENDBRANCH  22  26
ENDBRANCH  21  22
ENDBRANCH  20  21
ENDBRANCH   2  20
TORSDOF 8
ENDMDL
MODEL 5
REMARK VINA RESULT:      -6.4      2.530      3.452
REMARK  Name = 
REMARK  8 active torsions:
REMARK  status: ('A' for Active; 'I' for Inactive)
REMARK    1  A    between atoms: C_2  and  O_3
REMARK    2  A    between atoms: C_5  and  N_16
REMARK    3  A    between atoms: C_8  and  C_10
REMARK    4  A    between atoms: C_10  and  O_11
REMARK    5  A    between atoms: O_11  and  P_12
REMARK    6  A    between atoms: P_12  and  O_13
REMARK    7  A    between atoms: P_12  and  O_14
REMARK    8  A    between atoms: C_21  and  N_25
REMARK                            x       y       z     vdW  Elec       q    Type
REMARK                         _______ _______ _______ _____ _____    ______ ____
ROOT
ATOM      1  C   UNL     1       9.004   1.028  22.088  0.00  0.00    +0.150 C 
ATOM      2  C   UNL     1       9.972   1.973  22.797  0.00  0.00    +0.175 C 
ATOM      3  O   UNL     1      10.840   1.145  23.597  0.00  0.00    -0.348 OA
ATOM      4  C   UNL     1      10.492  -0.240  23.402  0.00  0.00    +0.222 C 
ATOM      5  C   UNL     1       9.797  -0.257  22.043  0.00  0.00    +0.088 C 
ENDROOT
BRANCH   4   6
ATOM      6  N   UNL     1       9.685  -0.708  24.540  0.00  0.00    -0.320 N 
ATOM      7  C   UNL     1       9.037  -1.932  24.657  0.00  0.00    +0.052 A 
ATOM      8  C   UNL     1       8.464  -1.969  25.936  0.00  0.00    +0.006 A 
ATOM      9  C   UNL     1       7.785  -3.128  26.362  0.00  0.00    +0.094 A 
ATOM     10  C   UNL     1       7.682  -4.216  25.486  0.00  0.00    +0.274 A 
ATOM     11  C   UNL     1       8.224  -4.162  24.202  0.00  0.00    +0.086 A 
ATOM     12  C   UNL     1       8.704  -0.715  26.546  0.00  0.00    +0.028 A 
ATOM     13  C   UNL     1       8.905  -3.018  23.770  0.00  0.00    +0.033 A 
ATOM     14  C   UNL     1       9.405   0.055  25.652  0.00  0.00    +0.089 A 
BRANCH  10  15
ATOM     15  N   UNL     1       6.994  -5.430  25.938  0.00  0.00    +0.080 N 
ATOM     16  O   UNL     1       7.450  -6.024  26.929  0.00  0.00    +0.041 OA
ATOM     17  O   UNL     1       5.991  -5.792  25.307  0.00  0.00    -0.576 OA
ENDBRANCH  10  15
ENDBRANCH   4   6
BRANCH   1  18
ATOM     18  O   UNL     1       8.621   1.482  20.803  0.00  0.00    -0.389 OA
ATOM     19  H   UNL     1       9.233   1.118  20.139  0.00  0.00    +0.210 HD
ENDBRANCH   1  18
BRANCH   2  20
ATOM     20  C   UNL     1       9.235   2.988  23.672  0.00  0.00    +0.206 C 
BRANCH  20  21
ATOM     21  O   UNL     1       8.443   3.850  22.859  0.00  0.00    -0.284 OA
BRANCH  21  22
ATOM     22  P   UNL     1       8.427   5.487  23.417  0.00  0.00    +0.472 P 
ATOM     23  O   UNL     1       8.413   6.953  23.917  0.00  0.00    -0.228 OA
BRANCH  22  24
ATOM     24  O   UNL     1       7.883   5.862  21.921  0.00  0.00    -0.303 OA
ATOM     25  H   UNL     1       8.500   5.582  21.226  0.00  0.00    +0.222 HD
ENDBRANCH  22  24
BRANCH  22  26
ATOM     26  O   UNL     1      10.021   5.495  23.052  0.00  0.00    -0.303 OA
ATOM     27  H   UNL     1      10.439   6.311  23.372  0.00  0.00    +0.222 HD
ENDBRANCH  22  26
ENDBRANCH  21  22
ENDBRANCH  20  21
ENDBRANCH   2  20
TORSDOF 8
ENDMDL
MODEL 6
REMARK VINA RESULT:      -6.4      3.202      7.023
REMARK  Name = 
REMARK  8 active torsions:
REMARK  status: ('A' for Active; 'I' for Inactive)
REMARK    1  A    between atoms: C_2  and  O_3
REMARK    2  A    between atoms: C_5  and  N_16
REMARK    3  A    between atoms: C_8  and  C_10
REMARK    4  A    between atoms: C_10  and  O_11
REMARK    5  A    between atoms: O_11  and  P_12
REMARK    6  A    between atoms: P_12  and  O_13
REMARK    7  A    between atoms: P_12  and  O_14
REMARK    8  A    between atoms: C_21  and  N_25
REMARK                            x       y       z     vdW  Elec       q    Type
REMARK                         _______ _______ _______ _____ _____    ______ ____
ROOT
ATOM      1  C   UNL     1       6.629  -2.609  24.394  0.00  0.00    +0.150 C 
ATOM      2  C   UNL     1       7.009  -3.805  23.524  0.00  0.00    +0.175 C 
ATOM      3  O   UNL     1       8.436  -3.728  23.326  0.00  0.00    -0.348 OA
ATOM      4  C   UNL     1       8.957  -2.589  24.039  0.00  0.00    +0.222 C 
ATOM      5  C   UNL     1       7.920  -2.331  25.128  0.00  0.00    +0.088 C 
ENDROOT
BRANCH   4   6
ATOM      6  N   UNL     1       9.185  -1.483  23.096  0.00  0.00    -0.320 N 
ATOM      7  C   UNL     1       9.512  -0.169  23.414  0.00  0.00    +0.052 A 
ATOM      8  C   UNL     1       9.709   0.505  22.200  0.00  0.00    +0.006 A 
ATOM      9  C   UNL     1      10.113   1.855  22.212  0.00  0.00    +0.094 A 
ATOM     10  C   UNL     1      10.292   2.501  23.442  0.00  0.00    +0.274 A 
ATOM     11  C   UNL     1      10.060   1.835  24.646  0.00  0.00    +0.086 A 
ATOM     12  C   UNL     1       9.410  -0.401  21.156  0.00  0.00    +0.028 A 
ATOM     13  C   UNL     1       9.664   0.493  24.647  0.00  0.00    +0.033 A 
ATOM     14  C   UNL     1       9.040  -1.591  21.731  0.00  0.00    +0.089 A 
BRANCH  10  15
ATOM     15  N   UNL     1      10.733   3.900  23.454  0.00  0.00    +0.080 N 
ATOM     16  O   UNL     1      11.940   4.131  23.275  0.00  0.00    +0.041 OA
ATOM     17  O   UNL     1       9.873   4.773  23.637  0.00  0.00    -0.576 OA
ENDBRANCH  10  15
ENDBRANCH   4   6
BRANCH   1  18
ATOM     18  O   UNL     1       5.547  -2.875  25.268  0.00  0.00    -0.389 OA
ATOM     19  H   UNL     1       5.890  -3.259  26.094  0.00  0.00    +0.210 HD
ENDBRANCH   1  18
BRANCH   2  20
ATOM     20  C   UNL     1       6.276  -3.788  22.183  0.00  0.00    +0.206 C 
BRANCH  20  21
ATOM     21  O   UNL     1       4.926  -4.212  22.359  0.00  0.00    -0.284 OA
BRANCH  21  22
ATOM     22  P   UNL     1       4.789  -5.723  23.190  0.00  0.00    +0.472 P 
ATOM     23  O   UNL     1       4.667  -7.076  23.935  0.00  0.00    -0.228 OA
BRANCH  22  24
ATOM     24  O   UNL     1       5.357  -6.392  21.810  0.00  0.00    -0.303 OA
ATOM     25  H   UNL     1       6.322  -6.312  21.734  0.00  0.00    +0.222 HD
ENDBRANCH  22  24
BRANCH  22  26
ATOM     26  O   UNL     1       3.215  -5.678  22.751  0.00  0.00    -0.303 OA
ATOM     27  H   UNL     1       2.647  -5.574  23.532  0.00  0.00    +0.222 HD
ENDBRANCH  22  26
ENDBRANCH  21  22
ENDBRANCH  20  21
ENDBRANCH   2  20
TORSDOF 8
ENDMDL
MODEL 7
REMARK VINA RESULT:      -6.4      2.790      6.551
REMARK  Name = 
REMARK  8 active torsions:
REMARK  status: ('A' for Active; 'I' for Inactive)
REMARK    1  A    between atoms: C_2  and  O_3
REMARK    2  A    between atoms: C_5  and  N_16
REMARK    3  A    between atoms: C_8  and  C_10
REMARK    4  A    between atoms: C_10  and  O_11
REMARK    5  A    between atoms: O_11  and  P_12
REMARK    6  A    between atoms: P_12  and  O_13
REMARK    7  A    between atoms: P_12  and  O_14
REMARK    8  A    between atoms: C_21  and  N_25
REMARK                            x       y       z     vdW  Elec       q    Type
REMARK                         _______ _______ _______ _____ _____    ______ ____
ROOT
ATOM      1  C   UNL     1       8.678  -4.320  25.803  0.00  0.00    +0.150 C 
ATOM      2  C   UNL     1       7.571  -5.074  25.071  0.00  0.00    +0.175 C 
ATOM      3  O   UNL     1       7.429  -4.441  23.783  0.00  0.00    -0.348 OA
ATOM      4  C   UNL     1       8.392  -3.375  23.664  0.00  0.00    +0.222 C 
ATOM      5  C   UNL     1       9.486  -3.757  24.657  0.00  0.00    +0.088 C 
ENDROOT
BRANCH   4   6
ATOM      6  N   UNL     1       7.728  -2.086  23.908  0.00  0.00    -0.320 N 
ATOM      7  C   UNL     1       8.340  -0.846  24.052  0.00  0.00    +0.052 A 
ATOM      8  C   UNL     1       7.314   0.101  24.188  0.00  0.00    +0.006 A 
ATOM      9  C   UNL     1       7.638   1.469  24.293  0.00  0.00    +0.094 A 
ATOM     10  C   UNL     1       8.985   1.852  24.277  0.00  0.00    +0.274 A 
ATOM     11  C   UNL     1      10.003   0.903  24.177  0.00  0.00    +0.086 A 
ATOM     12  C   UNL     1       6.087  -0.602  24.211  0.00  0.00    +0.028 A 
ATOM     13  C   UNL     1       9.693  -0.458  24.067  0.00  0.00    +0.033 A 
ATOM     14  C   UNL     1       6.371  -1.940  24.093  0.00  0.00    +0.089 A 
BRANCH  10  15
ATOM     15  N   UNL     1       9.321   3.277  24.365  0.00  0.00    +0.080 N 
ATOM     16  O   UNL     1      10.207   3.713  23.612  0.00  0.00    +0.041 OA
ATOM     17  O   UNL     1       8.695   3.965  25.182  0.00  0.00    -0.576 OA
ENDBRANCH  10  15
ENDBRANCH   4   6
BRANCH   1  18
ATOM     18  O   UNL     1       9.444  -5.146  26.661  0.00  0.00    -0.389 OA
ATOM     19  H   UNL     1      10.034  -5.706  26.125  0.00  0.00    +0.210 HD
ENDBRANCH   1  18
BRANCH   2  20
ATOM     20  C   UNL     1       6.251  -5.035  25.841  0.00  0.00    +0.206 C 
BRANCH  20  21
ATOM     21  O   UNL     1       6.085  -6.238  26.588  0.00  0.00    -0.284 OA
BRANCH  21  22
ATOM     22  P   UNL     1       6.025  -5.976  28.296  0.00  0.00    +0.472 P 
ATOM     23  O   UNL     1       5.971  -5.742  29.827  0.00  0.00    -0.228 OA
BRANCH  22  24
ATOM     24  O   UNL     1       7.591  -6.450  28.299  0.00  0.00    -0.303 OA
ATOM     25  H   UNL     1       8.188  -5.737  28.578  0.00  0.00    +0.222 HD
ENDBRANCH  22  24
BRANCH  22  26
ATOM     26  O   UNL     1       5.369  -7.472  28.375  0.00  0.00    -0.303 OA
ATOM     27  H   UNL     1       5.673  -8.016  27.630  0.00  0.00    +0.222 HD
ENDBRANCH  22  26
ENDBRANCH  21  22
ENDBRANCH  20  21
ENDBRANCH   2  20
TORSDOF 8
ENDMDL
MODEL 8
REMARK VINA RESULT:      -6.3      2.695      6.060
REMARK  Name = 
REMARK  8 active torsions:
REMARK  status: ('A' for Active; 'I' for Inactive)
REMARK    1  A    between atoms: C_2  and  O_3
REMARK    2  A    between atoms: C_5  and  N_16
REMARK    3  A    between atoms: C_8  and  C_10
REMARK    4  A    between atoms: C_10  and  O_11
REMARK    5  A    between atoms: O_11  and  P_12
REMARK    6  A    between atoms: P_12  and  O_13
REMARK    7  A    between atoms: P_12  and  O_14
REMARK    8  A    between atoms: C_21  and  N_25
REMARK                            x       y       z     vdW  Elec       q    Type
REMARK                         _______ _______ _______ _____ _____    ______ ____
ROOT
ATOM      1  C   UNL     1       5.344  -6.103  23.402  0.00  0.00    +0.150 C 
ATOM      2  C   UNL     1       4.593  -4.854  22.945  0.00  0.00    +0.175 C 
ATOM      3  O   UNL     1       5.523  -4.082  22.159  0.00  0.00    -0.348 OA
ATOM      4  C   UNL     1       6.779  -4.785  22.077  0.00  0.00    +0.222 C 
ATOM      5  C   UNL     1       6.401  -6.242  22.331  0.00  0.00    +0.088 C 
ENDROOT
BRANCH   4   6
ATOM      6  N   UNL     1       7.734  -4.196  23.028  0.00  0.00    -0.320 N 
ATOM      7  C   UNL     1       8.346  -2.951  22.933  0.00  0.00    +0.052 A 
ATOM      8  C   UNL     1       9.109  -2.784  24.098  0.00  0.00    +0.006 A 
ATOM      9  C   UNL     1       9.803  -1.575  24.308  0.00  0.00    +0.094 A 
ATOM     10  C   UNL     1       9.728  -0.570  23.334  0.00  0.00    +0.274 A 
ATOM     11  C   UNL     1       8.996  -0.755  22.161  0.00  0.00    +0.086 A 
ATOM     12  C   UNL     1       9.013  -3.980  24.846  0.00  0.00    +0.028 A 
ATOM     13  C   UNL     1       8.299  -1.950  21.945  0.00  0.00    +0.033 A 
ATOM     14  C   UNL     1       8.211  -4.846  24.144  0.00  0.00    +0.089 A 
BRANCH  10  15
ATOM     15  N   UNL     1      10.432   0.696  23.564  0.00  0.00    +0.080 N 
ATOM     16  O   UNL     1      11.183   0.774  24.551  0.00  0.00    +0.041 OA
ATOM     17  O   UNL     1      10.242   1.615  22.755  0.00  0.00    -0.576 OA
ENDBRANCH  10  15
ENDBRANCH   4   6
BRANCH   1  18
ATOM     18  O   UNL     1       4.515  -7.246  23.507  0.00  0.00    -0.389 OA
ATOM     19  H   UNL     1       4.931  -7.888  24.110  0.00  0.00    +0.210 HD
ENDBRANCH   1  18
BRANCH   2  20
ATOM     20  C   UNL     1       4.077  -4.037  24.130  0.00  0.00    +0.206 C 
BRANCH  20  21
ATOM     21  O   UNL     1       5.136  -3.790  25.051  0.00  0.00    -0.284 OA
BRANCH  21  22
ATOM     22  P   UNL     1       5.197  -2.150  25.595  0.00  0.00    +0.472 P 
ATOM     23  O   UNL     1       5.252  -0.680  26.083  0.00  0.00    -0.228 OA
BRANCH  22  24
ATOM     24  O   UNL     1       3.566  -2.244  25.672  0.00  0.00    -0.303 OA
ATOM     25  H   UNL     1       3.207  -1.762  26.435  0.00  0.00    +0.222 HD
ENDBRANCH  22  24
BRANCH  22  26
ATOM     26  O   UNL     1       5.295  -1.760  24.011  0.00  0.00    -0.303 OA
ATOM     27  H   UNL     1       6.169  -1.389  23.805  0.00  0.00    +0.222 HD
ENDBRANCH  22  26
ENDBRANCH  21  22
ENDBRANCH  20  21
ENDBRANCH   2  20
TORSDOF 8
ENDMDL
MODEL 9
REMARK VINA RESULT:      -6.3      3.599      7.031
REMARK  Name = 
REMARK  8 active torsions:
REMARK  status: ('A' for Active; 'I' for Inactive)
REMARK    1  A    between atoms: C_2  and  O_3
REMARK    2  A    between atoms: C_5  and  N_16
REMARK    3  A    between atoms: C_8  and  C_10
REMARK    4  A    between atoms: C_10  and  O_11
REMARK    5  A    between atoms: O_11  and  P_12
REMARK    6  A    between atoms: P_12  and  O_13
REMARK    7  A    between atoms: P_12  and  O_14
REMARK    8  A    between atoms: C_21  and  N_25
REMARK                            x       y       z     vdW  Elec       q    Type
REMARK                         _______ _______ _______ _____ _____    ______ ____
ROOT
ATOM      1  C   UNL     1       9.343  -2.670  23.846  0.00  0.00    +0.150 C 
ATOM      2  C   UNL     1       8.249  -3.181  22.912  0.00  0.00    +0.175 C 
ATOM      3  O   UNL     1       8.089  -2.182  21.885  0.00  0.00    -0.348 OA
ATOM      4  C   UNL     1       9.029  -1.112  22.107  0.00  0.00    +0.222 C 
ATOM      5  C   UNL     1      10.135  -1.761  22.935  0.00  0.00    +0.088 C 
ENDROOT
BRANCH   4   6
ATOM      6  N   UNL     1       8.339   0.023  22.738  0.00  0.00    -0.320 N 
ATOM      7  C   UNL     1       8.899   1.242  23.104  0.00  0.00    +0.052 A 
ATOM      8  C   UNL     1       7.853   2.040  23.592  0.00  0.00    +0.006 A 
ATOM      9  C   UNL     1       8.117   3.367  23.987  0.00  0.00    +0.094 A 
ATOM     10  C   UNL     1       9.427   3.856  23.899  0.00  0.00    +0.274 A 
ATOM     11  C   UNL     1      10.469   3.047  23.445  0.00  0.00    +0.086 A 
ATOM     12  C   UNL     1       6.681   1.250  23.594  0.00  0.00    +0.028 A 
ATOM     13  C   UNL     1      10.218   1.729  23.045  0.00  0.00    +0.033 A 
ATOM     14  C   UNL     1       7.015   0.006  23.119  0.00  0.00    +0.089 A 
BRANCH  10  15
ATOM     15  N   UNL     1       9.696   5.244  24.290  0.00  0.00    +0.080 N 
ATOM     16  O   UNL     1       9.269   5.632  25.390  0.00  0.00    +0.041 OA
ATOM     17  O   UNL     1      10.339   5.949  23.500  0.00  0.00    -0.576 OA
ENDBRANCH  10  15
ENDBRANCH   4   6
BRANCH   1  18
ATOM     18  O   UNL     1      10.130  -3.705  24.407  0.00  0.00    -0.389 OA
ATOM     19  H   UNL     1      10.547  -3.384  25.225  0.00  0.00    +0.210 HD
ENDBRANCH   1  18
BRANCH   2  20
ATOM     20  C   UNL     1       6.932  -3.412  23.652  0.00  0.00    +0.206 C 
BRANCH  20  21
ATOM     21  O   UNL     1       6.519  -4.768  23.505  0.00  0.00    -0.284 OA
BRANCH  21  22
ATOM     22  P   UNL     1       6.224  -5.216  21.861  0.00  0.00    +0.472 P 
ATOM     23  O   UNL     1       5.960  -5.617  20.388  0.00  0.00    -0.228 OA
BRANCH  22  24
ATOM     24  O   UNL     1       5.289  -3.876  21.793  0.00  0.00    -0.303 OA
ATOM     25  H   UNL     1       5.770  -3.111  21.439  0.00  0.00    +0.222 HD
ENDBRANCH  22  24
BRANCH  22  26
ATOM     26  O   UNL     1       5.085  -6.218  22.470  0.00  0.00    -0.303 OA
ATOM     27  H   UNL     1       5.244  -7.131  22.178  0.00  0.00    +0.222 HD
ENDBRANCH  22  26
ENDBRANCH  21  22
ENDBRANCH  20  21
ENDBRANCH   2  20
TORSDOF 8
ENDMDL
