MODEL 1
REMARK VINA RESULT:      -6.0      0.000      0.000
REMARK  Name = 
REMARK  5 active torsions:
REMARK  status: ('A' for Active; 'I' for Inactive)
REMARK    1  A    between atoms: C_2  and  C_4
REMARK    2  A    between atoms: C_4  and  C_6
REMARK    3  A    between atoms: C_7  and  C_8
REMARK    4  A    between atoms: C_8  and  C_9
REMARK    5  A    between atoms: C_9  and  C_11
REMARK                            x       y       z     vdW  Elec       q    Type
REMARK                         _______ _______ _______ _____ _____    ______ ____
ROOT
ATOM      1  C   UNL     1       8.675  -2.413  24.758  0.00  0.00    +0.107 C 
ENDROOT
BRANCH   1   3
ATOM      2  C   UNL     1       7.484  -3.190  22.709  0.00  0.00    +0.049 C 
ATOM      3  C   UNL     1       7.575  -3.138  24.048  0.00  0.00    -0.015 C 
BRANCH   2   4
ATOM      4  C   UNL     1       6.370  -3.904  22.021  0.00  0.00    +0.201 C 
ATOM      5  O   UNL     1       5.253  -3.408  21.878  0.00  0.00    -0.286 OA
BRANCH   4   7
ATOM      6  O   UNL     1       7.452  -6.071  22.071  0.00  0.00    -0.541 OA
ATOM      7  C   UNL     1       6.634  -5.318  21.456  0.00  0.00    +0.111 C 
ATOM      8  O   UNL     1       5.984  -5.609  20.397  0.00  0.00    -0.541 OA
ENDBRANCH   4   7
ENDBRANCH   2   4
ENDBRANCH   1   3
BRANCH   1   9
ATOM      9  C   UNL     1       9.795  -2.004  23.811  0.00  0.00    +0.167 C 
ATOM     10  O   UNL     1      10.576  -2.829  23.335  0.00  0.00    -0.292 OA
BRANCH   9  11
ATOM     11  C   UNL     1       9.907  -0.577  23.398  0.00  0.00    +0.018 A 
ATOM     12  C   UNL     1      10.322   0.362  24.352  0.00  0.00    +0.011 A 
ATOM     13  C   UNL     1      10.467   1.706  24.000  0.00  0.00    +0.001 A 
ATOM     14  C   UNL     1      10.185   2.120  22.700  0.00  0.00    +0.000 A 
ATOM     15  C   UNL     1       9.752   1.194  21.751  0.00  0.00    +0.001 A 
ATOM     16  C   UNL     1       9.614  -0.153  22.097  0.00  0.00    +0.011 A 
ENDBRANCH   9  11
ENDBRANCH   1   9
TORSDOF 5
ENDMDL
MODEL 2
REMARK VINA RESULT:      -6.0      2.266      3.079
REMARK  Name = 
REMARK  5 active torsions:
REMARK  status: ('A' for Active; 'I' for Inactive)
REMARK    1  A    between atoms: C_2  and  C_4
REMARK    2  A    between atoms: C_4  and  C_6
REMARK    3  A    between atoms: C_7  and  C_8
REMARK    4  A    between atoms: C_8  and  C_9
REMARK    5  A    between atoms: C_9  and  C_11
REMARK                            x       y       z     vdW  Elec       q    Type
REMARK                         _______ _______ _______ _____ _____    ______ ____
ROOT
ATOM      1  C   UNL     1       8.344  -2.470  22.682  0.00  0.00    +0.107 C 
ENDROOT
BRANCH   1   3
ATOM      2  C   UNL     1       7.888  -4.404  24.190  0.00  0.00    +0.049 C 
ATOM      3  C   UNL     1       7.717  -3.108  23.882  0.00  0.00    -0.015 C 
BRANCH   2   4
ATOM      4  C   UNL     1       7.240  -5.024  25.381  0.00  0.00    +0.201 C 
ATOM      5  O   UNL     1       6.089  -5.460  25.359  0.00  0.00    -0.286 OA
BRANCH   4   7
ATOM      6  O   UNL     1       9.187  -4.567  26.749  0.00  0.00    -0.541 OA
ATOM      7  C   UNL     1       8.052  -5.135  26.692  0.00  0.00    +0.111 C 
ATOM      8  O   UNL     1       7.488  -5.800  27.625  0.00  0.00    -0.541 OA
ENDBRANCH   4   7
ENDBRANCH   2   4
ENDBRANCH   1   3
BRANCH   1   9
ATOM      9  C   UNL     1       9.727  -1.912  22.989  0.00  0.00    +0.167 C 
ATOM     10  O   UNL     1      10.694  -2.647  23.190  0.00  0.00    -0.292 OA
BRANCH   9  11
ATOM     11  C   UNL     1       9.928  -0.435  22.982  0.00  0.00    +0.018 A 
ATOM     12  C   UNL     1      10.380   0.181  24.156  0.00  0.00    +0.011 A 
ATOM     13  C   UNL     1      10.608   1.559  24.185  0.00  0.00    +0.001 A 
ATOM     14  C   UNL     1      10.371   2.328  23.047  0.00  0.00    +0.000 A 
ATOM     15  C   UNL     1       9.901   1.724  21.882  0.00  0.00    +0.001 A 
ATOM     16  C   UNL     1       9.680   0.345  21.847  0.00  0.00    +0.011 A 
ENDBRANCH   9  11
ENDBRANCH   1   9
TORSDOF 5
ENDMDL
MODEL 3
REMARK VINA RESULT:      -5.8      0.790      1.483
REMARK  Name = 
REMARK  5 active torsions:
REMARK  status: ('A' for Active; 'I' for Inactive)
REMARK    1  A    between atoms: C_2  and  C_4
REMARK    2  A    between atoms: C_4  and  C_6
REMARK    3  A    between atoms: C_7  and  C_8
REMARK    4  A    between atoms: C_8  and  C_9
REMARK    5  A    between atoms: C_9  and  C_11
REMARK                            x       y       z     vdW  Elec       q    Type
REMARK                         _______ _______ _______ _____ _____    ______ ____
ROOT
ATOM      1  C   UNL     1       9.318  -2.409  24.269  0.00  0.00    +0.107 C 
ENDROOT
BRANCH   1   3
ATOM      2  C   UNL     1       7.405  -2.854  22.732  0.00  0.00    +0.049 C 
ATOM      3  C   UNL     1       8.310  -3.303  23.617  0.00  0.00    -0.015 C 
BRANCH   2   4
ATOM      4  C   UNL     1       6.398  -3.759  22.106  0.00  0.00    +0.201 C 
ATOM      5  O   UNL     1       5.435  -3.338  21.465  0.00  0.00    -0.286 OA
BRANCH   4   7
ATOM      6  O   UNL     1       6.011  -5.866  23.237  0.00  0.00    -0.541 OA
ATOM      7  C   UNL     1       6.578  -5.286  22.259  0.00  0.00    +0.111 C 
ATOM      8  O   UNL     1       7.296  -5.841  21.360  0.00  0.00    -0.541 OA
ENDBRANCH   4   7
ENDBRANCH   2   4
ENDBRANCH   1   3
BRANCH   1   9
ATOM      9  C   UNL     1      10.169  -1.668  23.248  0.00  0.00    +0.167 C 
ATOM     10  O   UNL     1      10.855  -2.265  22.417  0.00  0.00    -0.292 OA
BRANCH   9  11
ATOM     11  C   UNL     1      10.121  -0.178  23.212  0.00  0.00    +0.018 A 
ATOM     12  C   UNL     1       9.812   0.448  21.998  0.00  0.00    +0.011 A 
ATOM     13  C   UNL     1       9.729   1.842  21.926  0.00  0.00    +0.001 A 
ATOM     14  C   UNL     1       9.969   2.613  23.062  0.00  0.00    +0.000 A 
ATOM     15  C   UNL     1      10.297   1.995  24.268  0.00  0.00    +0.001 A 
ATOM     16  C   UNL     1      10.372   0.602  24.346  0.00  0.00    +0.011 A 
ENDBRANCH   9  11
ENDBRANCH   1   9
TORSDOF 5
ENDMDL
MODEL 4
REMARK VINA RESULT:      -5.5      2.435      3.058
REMARK  Name = 
REMARK  5 active torsions:
REMARK  status: ('A' for Active; 'I' for Inactive)
REMARK    1  A    between atoms: C_2  and  C_4
REMARK    2  A    between atoms: C_4  and  C_6
REMARK    3  A    between atoms: C_7  and  C_8
REMARK    4  A    between atoms: C_8  and  C_9
REMARK    5  A    between atoms: C_9  and  C_11
REMARK                            x       y       z     vdW  Elec       q    Type
REMARK                         _______ _______ _______ _____ _____    ______ ____
ROOT
ATOM      1  C   UNL     1       8.138  -2.845  23.256  0.00  0.00    +0.107 C 
ENDROOT
BRANCH   1   3
ATOM      2  C   UNL     1       7.098  -4.085  25.154  0.00  0.00    +0.049 C 
ATOM      3  C   UNL     1       7.900  -4.074  24.077  0.00  0.00    -0.015 C 
BRANCH   2   4
ATOM      4  C   UNL     1       6.888  -5.317  25.968  0.00  0.00    +0.201 C 
ATOM      5  O   UNL     1       7.795  -5.858  26.600  0.00  0.00    -0.286 OA
BRANCH   4   7
ATOM      6  O   UNL     1       4.554  -5.405  25.325  0.00  0.00    -0.541 OA
ATOM      7  C   UNL     1       5.471  -5.931  26.029  0.00  0.00    +0.111 C 
ATOM      8  O   UNL     1       5.350  -6.943  26.799  0.00  0.00    -0.541 OA
ENDBRANCH   4   7
ENDBRANCH   2   4
ENDBRANCH   1   3
BRANCH   1   9
ATOM      9  C   UNL     1       9.533  -2.276  23.472  0.00  0.00    +0.167 C 
ATOM     10  O   UNL     1      10.491  -2.996  23.760  0.00  0.00    -0.292 OA
BRANCH   9  11
ATOM     11  C   UNL     1       9.759  -0.818  23.265  0.00  0.00    +0.018 A 
ATOM     12  C   UNL     1      10.171  -0.046  24.359  0.00  0.00    +0.011 A 
ATOM     13  C   UNL     1      10.420   1.320  24.203  0.00  0.00    +0.001 A 
ATOM     14  C   UNL     1      10.245   1.922  22.959  0.00  0.00    +0.000 A 
ATOM     15  C   UNL     1       9.816   1.163  21.871  0.00  0.00    +0.001 A 
ATOM     16  C   UNL     1       9.574  -0.205  22.021  0.00  0.00    +0.011 A 
ENDBRANCH   9  11
ENDBRANCH   1   9
TORSDOF 5
ENDMDL
MODEL 5
REMARK VINA RESULT:      -5.4      2.525      6.287
REMARK  Name = 
REMARK  5 active torsions:
REMARK  status: ('A' for Active; 'I' for Inactive)
REMARK    1  A    between atoms: C_2  and  C_4
REMARK    2  A    between atoms: C_4  and  C_6
REMARK    3  A    between atoms: C_7  and  C_8
REMARK    4  A    between atoms: C_8  and  C_9
REMARK    5  A    between atoms: C_9  and  C_11
REMARK                            x       y       z     vdW  Elec       q    Type
REMARK                         _______ _______ _______ _____ _____    ______ ____
ROOT
ATOM      1  C   UNL     1       8.639  -3.437  25.520  0.00  0.00    +0.107 C 
ENDROOT
BRANCH   1   3
ATOM      2  C   UNL     1       9.890  -2.078  23.844  0.00  0.00    +0.049 C 
ATOM      3  C   UNL     1       8.826  -2.234  24.648  0.00  0.00    -0.015 C 
BRANCH   2   4
ATOM      4  C   UNL     1      10.065  -0.864  22.996  0.00  0.00    +0.201 C 
ATOM      5  O   UNL     1      10.014  -0.900  21.766  0.00  0.00    -0.286 OA
BRANCH   4   7
ATOM      6  O   UNL     1       9.795   1.537  23.176  0.00  0.00    -0.541 OA
ATOM      7  C   UNL     1      10.310   0.496  23.690  0.00  0.00    +0.111 C 
ATOM      8  O   UNL     1      11.022   0.444  24.748  0.00  0.00    -0.541 OA
ENDBRANCH   4   7
ENDBRANCH   2   4
ENDBRANCH   1   3
BRANCH   1   9
ATOM      9  C   UNL     1       8.617  -4.728  24.715  0.00  0.00    +0.167 C 
ATOM     10  O   UNL     1       9.564  -5.516  24.726  0.00  0.00    -0.292 OA
BRANCH   9  11
ATOM     11  C   UNL     1       7.391  -5.079  23.944  0.00  0.00    +0.018 A 
ATOM     12  C   UNL     1       7.520  -5.349  22.575  0.00  0.00    +0.011 A 
ATOM     13  C   UNL     1       6.400  -5.709  21.820  0.00  0.00    +0.001 A 
ATOM     14  C   UNL     1       5.147  -5.785  22.426  0.00  0.00    +0.000 A 
ATOM     15  C   UNL     1       5.010  -5.497  23.783  0.00  0.00    +0.001 A 
ATOM     16  C   UNL     1       6.128  -5.146  24.543  0.00  0.00    +0.011 A 
ENDBRANCH   9  11
ENDBRANCH   1   9
TORSDOF 5
ENDMDL
MODEL 6
REMARK VINA RESULT:      -5.4      2.601      4.210
REMARK  Name = 
REMARK  5 active torsions:
REMARK  status: ('A' for Active; 'I' for Inactive)
REMARK    1  A    between atoms: C_2  and  C_4
REMARK    2  A    between atoms: C_4  and  C_6
REMARK    3  A    between atoms: C_7  and  C_8
REMARK    4  A    between atoms: C_8  and  C_9
REMARK    5  A    between atoms: C_9  and  C_11
REMARK                            x       y       z     vdW  Elec       q    Type
REMARK                         _______ _______ _______ _____ _____    ______ ____
ROOT
ATOM      1  C   UNL     1      10.969   0.904  24.203  0.00  0.00    +0.107 C 
ENDROOT
BRANCH   1   3
ATOM      2  C   UNL     1       9.824  -1.312  24.187  0.00  0.00    +0.049 C 
ATOM      3  C   UNL     1       9.893  -0.045  24.629  0.00  0.00    -0.015 C 
BRANCH   2   4
ATOM      4  C   UNL     1       8.733  -2.236  24.610  0.00  0.00    +0.201 C 
ATOM      5  O   UNL     1       7.718  -1.845  25.186  0.00  0.00    -0.286 OA
BRANCH   4   7
ATOM      6  O   UNL     1       7.883  -4.359  23.811  0.00  0.00    -0.541 OA
ATOM      7  C   UNL     1       8.880  -3.744  24.303  0.00  0.00    +0.111 C 
ATOM      8  O   UNL     1      10.022  -4.245  24.574  0.00  0.00    -0.541 OA
ENDBRANCH   4   7
ENDBRANCH   2   4
ENDBRANCH   1   3
BRANCH   1   9
ATOM      9  C   UNL     1      10.472   1.904  23.169  0.00  0.00    +0.167 C 
ATOM     10  O   UNL     1       9.995   1.543  22.093  0.00  0.00    -0.292 OA
BRANCH   9  11
ATOM     11  C   UNL     1      10.505   3.358  23.496  0.00  0.00    +0.018 A 
ATOM     12  C   UNL     1      11.700   4.060  23.291  0.00  0.00    +0.011 A 
ATOM     13  C   UNL     1      11.767   5.430  23.559  0.00  0.00    +0.001 A 
ATOM     14  C   UNL     1      10.646   6.100  24.045  0.00  0.00    +0.000 A 
ATOM     15  C   UNL     1       9.460   5.402  24.270  0.00  0.00    +0.001 A 
ATOM     16  C   UNL     1       9.387   4.034  23.996  0.00  0.00    +0.011 A 
ENDBRANCH   9  11
ENDBRANCH   1   9
TORSDOF 5
ENDMDL
MODEL 7
REMARK VINA RESULT:      -5.3      2.898      5.895
REMARK  Name = 
REMARK  5 active torsions:
REMARK  status: ('A' for Active; 'I' for Inactive)
REMARK    1  A    between atoms: C_2  and  C_4
REMARK    2  A    between atoms: C_4  and  C_6
REMARK    3  A    between atoms: C_7  and  C_8
REMARK    4  A    between atoms: C_8  and  C_9
REMARK    5  A    between atoms: C_9  and  C_11
REMARK                            x       y       z     vdW  Elec       q    Type
REMARK                         _______ _______ _______ _____ _____    ______ ____
ROOT
ATOM      1  C   UNL     1       7.534  -3.447  26.395  0.00  0.00    +0.107 C 
ENDROOT
BRANCH   1   3
ATOM      2  C   UNL     1       8.511  -1.635  24.986  0.00  0.00    +0.049 C 
ATOM      3  C   UNL     1       8.678  -2.659  25.840  0.00  0.00    -0.015 C 
BRANCH   2   4
ATOM      4  C   UNL     1       9.667  -0.874  24.431  0.00  0.00    +0.201 C 
ATOM      5  O   UNL     1      10.258  -0.004  25.071  0.00  0.00    -0.286 OA
BRANCH   4   7
ATOM      6  O   UNL     1      10.032  -0.304  22.105  0.00  0.00    -0.541 OA
ATOM      7  C   UNL     1      10.149  -1.199  22.999  0.00  0.00    +0.111 C 
ATOM      8  O   UNL     1      10.639  -2.368  22.844  0.00  0.00    -0.541 OA
ENDBRANCH   4   7
ENDBRANCH   2   4
ENDBRANCH   1   3
BRANCH   1   9
ATOM      9  C   UNL     1       7.464  -4.847  25.803  0.00  0.00    +0.167 C 
ATOM     10  O   UNL     1       7.776  -5.845  26.455  0.00  0.00    -0.292 OA
BRANCH   9  11
ATOM     11  C   UNL     1       6.941  -5.020  24.417  0.00  0.00    +0.018 A 
ATOM     12  C   UNL     1       5.588  -4.749  24.178  0.00  0.00    +0.011 A 
ATOM     13  C   UNL     1       5.062  -4.872  22.889  0.00  0.00    +0.001 A 
ATOM     14  C   UNL     1       5.883  -5.280  21.839  0.00  0.00    +0.000 A 
ATOM     15  C   UNL     1       7.226  -5.570  22.075  0.00  0.00    +0.001 A 
ATOM     16  C   UNL     1       7.757  -5.440  23.361  0.00  0.00    +0.011 A 
ENDBRANCH   9  11
ENDBRANCH   1   9
TORSDOF 5
ENDMDL
MODEL 8
REMARK VINA RESULT:      -5.3      1.563      2.302
REMARK  Name = 
REMARK  5 active torsions:
REMARK  status: ('A' for Active; 'I' for Inactive)
REMARK    1  A    between atoms: C_2  and  C_4
REMARK    2  A    between atoms: C_4  and  C_6
REMARK    3  A    between atoms: C_7  and  C_8
REMARK    4  A    between atoms: C_8  and  C_9
REMARK    5  A    between atoms: C_9  and  C_11
REMARK                            x       y       z     vdW  Elec       q    Type
REMARK                         _______ _______ _______ _____ _____    ______ ____
ROOT
ATOM      1  C   UNL     1       8.767  -2.013  25.610  0.00  0.00    +0.107 C 
ENDROOT
BRANCH   1   3
ATOM      2  C   UNL     1       6.545  -2.241  24.500  0.00  0.00    +0.049 C 
ATOM      3  C   UNL     1       7.429  -2.656  25.422  0.00  0.00    -0.015 C 
BRANCH   2   4
ATOM      4  C   UNL     1       5.210  -2.886  24.340  0.00  0.00    +0.201 C 
ATOM      5  O   UNL     1       4.207  -2.491  24.936  0.00  0.00    -0.286 OA
BRANCH   4   7
ATOM      6  O   UNL     1       4.942  -3.859  22.138  0.00  0.00    -0.541 OA
ATOM      7  C   UNL     1       5.078  -4.090  23.380  0.00  0.00    +0.111 C 
ATOM      8  O   UNL     1       5.125  -5.237  23.939  0.00  0.00    -0.541 OA
ENDBRANCH   4   7
ENDBRANCH   2   4
ENDBRANCH   1   3
BRANCH   1   9
ATOM      9  C   UNL     1       9.586  -2.014  24.327  0.00  0.00    +0.167 C 
ATOM     10  O   UNL     1      10.075  -3.049  23.870  0.00  0.00    -0.292 OA
BRANCH   9  11
ATOM     11  C   UNL     1       9.746  -0.740  23.571  0.00  0.00    +0.018 A 
ATOM     12  C   UNL     1       9.355  -0.711  22.226  0.00  0.00    +0.011 A 
ATOM     13  C   UNL     1       9.462   0.470  21.487  0.00  0.00    +0.001 A 
ATOM     14  C   UNL     1       9.973   1.621  22.084  0.00  0.00    +0.000 A 
ATOM     15  C   UNL     1      10.382   1.593  23.417  0.00  0.00    +0.001 A 
ATOM     16  C   UNL     1      10.269   0.416  24.161  0.00  0.00    +0.011 A 
ENDBRANCH   9  11
ENDBRANCH   1   9
TORSDOF 5
ENDMDL
MODEL 9
REMARK VINA RESULT:      -5.2      2.795      6.480
REMARK  Name = 
REMARK  5 active torsions:
REMARK  status: ('A' for Active; 'I' for Inactive)
REMARK    1  A    between atoms: C_2  and  C_4
REMARK    2  A    between atoms: C_4  and  C_6
REMARK    3  A    between atoms: C_7  and  C_8
REMARK    4  A    between atoms: C_8  and  C_9
REMARK    5  A    between atoms: C_9  and  C_11
REMARK                            x       y       z     vdW  Elec       q    Type
REMARK                         _______ _______ _______ _____ _____    ______ ____
ROOT
ATOM      1  C   UNL     1       8.301  -2.734  22.901  0.00  0.00    +0.107 C 
ENDROOT
BRANCH   1   3
ATOM      2  C   UNL     1       9.727  -0.716  22.561  0.00  0.00    +0.049 C 
ATOM      3  C   UNL     1       8.617  -1.280  23.065  0.00  0.00    -0.015 C 
BRANCH   2   4
ATOM      4  C   UNL     1      10.031   0.732  22.751  0.00  0.00    +0.201 C 
ATOM      5  O   UNL     1      10.073   1.530  21.815  0.00  0.00    -0.286 OA
BRANCH   4   7
ATOM      6  O   UNL     1      11.016   0.551  24.957  0.00  0.00    -0.541 OA
ATOM      7  C   UNL     1      10.293   1.252  24.183  0.00  0.00    +0.111 C 
ATOM      8  O   UNL     1       9.747   2.373  24.461  0.00  0.00    -0.541 OA
ENDBRANCH   4   7
ENDBRANCH   2   4
ENDBRANCH   1   3
BRANCH   1   9
ATOM      9  C   UNL     1       8.877  -3.575  24.031  0.00  0.00    +0.167 C 
ATOM     10  O   UNL     1      10.088  -3.630  24.248  0.00  0.00    -0.292 OA
BRANCH   9  11
ATOM     11  C   UNL     1       7.944  -4.299  24.941  0.00  0.00    +0.018 A 
ATOM     12  C   UNL     1       6.705  -4.711  24.432  0.00  0.00    +0.011 A 
ATOM     13  C   UNL     1       5.811  -5.417  25.242  0.00  0.00    +0.001 A 
ATOM     14  C   UNL     1       6.145  -5.700  26.565  0.00  0.00    +0.000 A 
ATOM     15  C   UNL     1       7.368  -5.274  27.082  0.00  0.00    +0.001 A 
ATOM     16  C   UNL     1       8.268  -4.576  26.273  0.00  0.00    +0.011 A 
ENDBRANCH   9  11
ENDBRANCH   1   9
TORSDOF 5
ENDMDL
