MODEL 1
REMARK VINA RESULT:      -6.6      0.000      0.000
REMARK  Name = 
REMARK  6 active torsions:
REMARK  status: ('A' for Active; 'I' for Inactive)
REMARK    1  A    between atoms: C_2  and  O_3
REMARK    2  A    between atoms: C_2  and  C_4
REMARK    3  A    between atoms: C_2  and  C_19
REMARK    4  A    between atoms: C_4  and  O_6
REMARK    5  A    between atoms: O_6  and  C_7
REMARK    6  A    between atoms: N_17  and  C_18
REMARK                            x       y       z     vdW  Elec       q    Type
REMARK                         _______ _______ _______ _____ _____    ______ ____
ROOT
ATOM      1  C   UNL     1       9.386  -2.486  24.251  0.00  0.00    +0.341 C 
ATOM      2  O   UNL     1      10.390  -3.009  23.785  0.00  0.00    -0.248 OA
ENDROOT
BRANCH   1   3
ATOM      3  C   UNL     1       9.347  -1.123  24.933  0.00  0.00    +0.253 C 
BRANCH   3   4
ATOM      4  C   UNL     1       9.688  -0.026  23.955  0.00  0.00    -0.008 A 
ATOM      5  C   UNL     1       9.267  -0.136  22.622  0.00  0.00    +0.007 A 
ATOM      6  C   UNL     1       9.494   0.903  21.720  0.00  0.00    +0.000 A 
ATOM      7  C   UNL     1      10.137   2.064  22.142  0.00  0.00    +0.000 A 
ATOM      8  C   UNL     1      10.561   2.186  23.465  0.00  0.00    +0.000 A 
ATOM      9  C   UNL     1      10.339   1.147  24.367  0.00  0.00    +0.007 A 
ENDBRANCH   3   4
BRANCH   3  10
ATOM     10  O   UNL     1       8.096  -0.854  25.575  0.00  0.00    -0.376 OA
ATOM     11  H   UNL     1       7.956  -1.598  26.189  0.00  0.00    +0.211 HD
ENDBRANCH   3  10
ENDBRANCH   1   3
BRANCH   1  12
ATOM     12  O   UNL     1       8.136  -3.056  24.292  0.00  0.00    -0.459 OA
BRANCH  12  13
ATOM     13  C   UNL     1       7.781  -3.787  23.103  0.00  0.00    +0.179 C 
ATOM     14  C   UNL     1       7.465  -5.237  23.518  0.00  0.00    +0.063 C 
ATOM     15  C   UNL     1       6.008  -5.659  23.333  0.00  0.00    +0.060 C 
ATOM     16  N   UNL     1       5.451  -5.182  22.067  0.00  0.00    -0.299 NA
ATOM     17  C   UNL     1       6.179  -5.587  20.875  0.00  0.00    +0.105 C 
ATOM     18  C   UNL     1       5.322  -3.739  22.279  0.00  0.00    +0.060 C 
ATOM     19  C   UNL     1       4.611  -3.707  23.635  0.00  0.00    +0.020 C 
ATOM     20  C   UNL     1       5.093  -4.966  24.349  0.00  0.00    +0.020 C 
ATOM     21  C   UNL     1       6.676  -3.020  22.350  0.00  0.00    +0.063 C 
ENDBRANCH  12  13
ENDBRANCH   1  12
TORSDOF 5
ENDMDL
MODEL 2
REMARK VINA RESULT:      -6.5      2.171      5.767
REMARK  Name = 
REMARK  6 active torsions:
REMARK  status: ('A' for Active; 'I' for Inactive)
REMARK    1  A    between atoms: C_2  and  O_3
REMARK    2  A    between atoms: C_2  and  C_4
REMARK    3  A    between atoms: C_2  and  C_19
REMARK    4  A    between atoms: C_4  and  O_6
REMARK    5  A    between atoms: O_6  and  C_7
REMARK    6  A    between atoms: N_17  and  C_18
REMARK                            x       y       z     vdW  Elec       q    Type
REMARK                         _______ _______ _______ _____ _____    ______ ____
ROOT
ATOM      1  C   UNL     1       9.132  -4.003  25.077  0.00  0.00    +0.341 C 
ATOM      2  O   UNL     1      10.197  -4.504  24.740  0.00  0.00    -0.248 OA
ENDROOT
BRANCH   1   3
ATOM      3  C   UNL     1       7.888  -4.785  25.483  0.00  0.00    +0.253 C 
BRANCH   3   4
ATOM      4  C   UNL     1       7.090  -5.188  24.268  0.00  0.00    -0.008 A 
ATOM      5  C   UNL     1       5.689  -5.180  24.331  0.00  0.00    +0.007 A 
ATOM      6  C   UNL     1       4.928  -5.465  23.197  0.00  0.00    +0.000 A 
ATOM      7  C   UNL     1       5.559  -5.754  21.990  0.00  0.00    +0.000 A 
ATOM      8  C   UNL     1       6.951  -5.766  21.914  0.00  0.00    +0.000 A 
ATOM      9  C   UNL     1       7.713  -5.485  23.046  0.00  0.00    +0.007 A 
ENDBRANCH   3   4
BRANCH   3  10
ATOM     10  O   UNL     1       8.184  -5.927  26.293  0.00  0.00    -0.376 OA
ATOM     11  H   UNL     1       7.444  -5.995  26.924  0.00  0.00    +0.211 HD
ENDBRANCH   3  10
ENDBRANCH   1   3
BRANCH   1  12
ATOM     12  O   UNL     1       8.853  -2.657  25.093  0.00  0.00    -0.459 OA
BRANCH  12  13
ATOM     13  C   UNL     1       9.191  -1.970  23.872  0.00  0.00    +0.179 C 
ATOM     14  C   UNL     1       7.886  -1.732  23.089  0.00  0.00    +0.063 C 
ATOM     15  C   UNL     1       7.477  -0.267  22.943  0.00  0.00    +0.060 C 
ATOM     16  N   UNL     1       8.617   0.597  22.635  0.00  0.00    -0.299 NA
ATOM     17  C   UNL     1       9.370   0.232  21.446  0.00  0.00    +0.105 C 
ATOM     18  C   UNL     1       9.372   0.618  23.890  0.00  0.00    +0.060 C 
ATOM     19  C   UNL     1       8.259   0.933  24.893  0.00  0.00    +0.020 C 
ATOM     20  C   UNL     1       7.005   0.316  24.281  0.00  0.00    +0.020 C 
ATOM     21  C   UNL     1      10.038  -0.727  24.211  0.00  0.00    +0.063 C 
ENDBRANCH  12  13
ENDBRANCH   1  12
TORSDOF 5
ENDMDL
MODEL 3
REMARK VINA RESULT:      -6.4      2.262      6.136
REMARK  Name = 
REMARK  6 active torsions:
REMARK  status: ('A' for Active; 'I' for Inactive)
REMARK    1  A    between atoms: C_2  and  O_3
REMARK    2  A    between atoms: C_2  and  C_4
REMARK    3  A    between atoms: C_2  and  C_19
REMARK    4  A    between atoms: C_4  and  O_6
REMARK    5  A    between atoms: O_6  and  C_7
REMARK    6  A    between atoms: N_17  and  C_18
REMARK                            x       y       z     vdW  Elec       q    Type
REMARK                         _______ _______ _______ _____ _____    ______ ____
ROOT
ATOM      1  C   UNL     1       9.636  -2.152  23.864  0.00  0.00    +0.341 C 
ATOM      2  O   UNL     1      10.425  -2.624  23.056  0.00  0.00    -0.248 OA
ENDROOT
BRANCH   1   3
ATOM      3  C   UNL     1       8.441  -2.893  24.454  0.00  0.00    +0.253 C 
BRANCH   3   4
ATOM      4  C   UNL     1       7.717  -3.675  23.387  0.00  0.00    -0.008 A 
ATOM      5  C   UNL     1       7.858  -5.069  23.339  0.00  0.00    +0.007 A 
ATOM      6  C   UNL     1       7.133  -5.824  22.418  0.00  0.00    +0.000 A 
ATOM      7  C   UNL     1       6.254  -5.193  21.540  0.00  0.00    +0.000 A 
ATOM      8  C   UNL     1       6.104  -3.808  21.577  0.00  0.00    +0.000 A 
ATOM      9  C   UNL     1       6.831  -3.052  22.494  0.00  0.00    +0.007 A 
ENDBRANCH   3   4
BRANCH   3  10
ATOM     10  O   UNL     1       8.795  -3.744  25.549  0.00  0.00    -0.376 OA
ATOM     11  H   UNL     1       9.761  -3.653  25.646  0.00  0.00    +0.211 HD
ENDBRANCH   3  10
ENDBRANCH   1   3
BRANCH   1  12
ATOM     12  O   UNL     1       9.652  -0.861  24.335  0.00  0.00    -0.459 OA
BRANCH  12  13
ATOM     13  C   UNL     1       8.533  -0.062  23.905  0.00  0.00    +0.179 C 
ATOM     14  C   UNL     1       8.502   1.211  24.772  0.00  0.00    +0.063 C 
ATOM     15  C   UNL     1       8.785   2.512  24.021  0.00  0.00    +0.060 C 
ATOM     16  N   UNL     1       8.107   2.560  22.726  0.00  0.00    -0.299 NA
ATOM     17  C   UNL     1       6.664   2.385  22.772  0.00  0.00    +0.105 C 
ATOM     18  C   UNL     1       8.845   1.583  21.923  0.00  0.00    +0.060 C 
ATOM     19  C   UNL     1      10.289   2.018  22.192  0.00  0.00    +0.020 C 
ATOM     20  C   UNL     1      10.256   2.604  23.600  0.00  0.00    +0.020 C 
ATOM     21  C   UNL     1       8.612   0.136  22.377  0.00  0.00    +0.063 C 
ENDBRANCH  12  13
ENDBRANCH   1  12
TORSDOF 5
ENDMDL
MODEL 4
REMARK VINA RESULT:      -6.3      2.153      5.862
REMARK  Name = 
REMARK  6 active torsions:
REMARK  status: ('A' for Active; 'I' for Inactive)
REMARK    1  A    between atoms: C_2  and  O_3
REMARK    2  A    between atoms: C_2  and  C_4
REMARK    3  A    between atoms: C_2  and  C_19
REMARK    4  A    between atoms: C_4  and  O_6
REMARK    5  A    between atoms: O_6  and  C_7
REMARK    6  A    between atoms: N_17  and  C_18
REMARK                            x       y       z     vdW  Elec       q    Type
REMARK                         _______ _______ _______ _____ _____    ______ ____
ROOT
ATOM      1  C   UNL     1       8.547  -3.919  25.943  0.00  0.00    +0.341 C 
ATOM      2  O   UNL     1       8.098  -3.670  27.054  0.00  0.00    -0.248 OA
ENDROOT
BRANCH   1   3
ATOM      3  C   UNL     1       8.496  -5.284  25.266  0.00  0.00    +0.253 C 
BRANCH   3   4
ATOM      4  C   UNL     1       7.401  -5.327  24.229  0.00  0.00    -0.008 A 
ATOM      5  C   UNL     1       7.738  -5.468  22.876  0.00  0.00    +0.007 A 
ATOM      6  C   UNL     1       6.743  -5.597  21.908  0.00  0.00    +0.000 A 
ATOM      7  C   UNL     1       5.402  -5.593  22.283  0.00  0.00    +0.000 A 
ATOM      8  C   UNL     1       5.052  -5.453  23.625  0.00  0.00    +0.000 A 
ATOM      9  C   UNL     1       6.045  -5.320  24.594  0.00  0.00    +0.007 A 
ENDBRANCH   3   4
BRANCH   3  10
ATOM     10  O   UNL     1       9.748  -5.671  24.690  0.00  0.00    -0.376 OA
ATOM     11  H   UNL     1       9.933  -6.560  25.048  0.00  0.00    +0.211 HD
ENDBRANCH   3  10
ENDBRANCH   1   3
BRANCH   1  12
ATOM     12  O   UNL     1       9.222  -3.033  25.138  0.00  0.00    -0.459 OA
BRANCH  12  13
ATOM     13  C   UNL     1       8.600  -1.737  25.035  0.00  0.00    +0.179 C 
ATOM     14  C   UNL     1       9.719  -0.688  24.883  0.00  0.00    +0.063 C 
ATOM     15  C   UNL     1       9.753   0.029  23.534  0.00  0.00    +0.060 C 
ATOM     16  N   UNL     1       8.415   0.395  23.069  0.00  0.00    -0.299 NA
ATOM     17  C   UNL     1       7.643   1.220  23.985  0.00  0.00    +0.105 C 
ATOM     18  C   UNL     1       7.819  -0.894  22.710  0.00  0.00    +0.060 C 
ATOM     19  C   UNL     1       8.930  -1.496  21.846  0.00  0.00    +0.020 C 
ATOM     20  C   UNL     1      10.218  -0.911  22.415  0.00  0.00    +0.020 C 
ATOM     21  C   UNL     1       7.527  -1.779  23.929  0.00  0.00    +0.063 C 
ENDBRANCH  12  13
ENDBRANCH   1  12
TORSDOF 5
ENDMDL
MODEL 5
REMARK VINA RESULT:      -6.3      2.276      6.143
REMARK  Name = 
REMARK  6 active torsions:
REMARK  status: ('A' for Active; 'I' for Inactive)
REMARK    1  A    between atoms: C_2  and  O_3
REMARK    2  A    between atoms: C_2  and  C_4
REMARK    3  A    between atoms: C_2  and  C_19
REMARK    4  A    between atoms: C_4  and  O_6
REMARK    5  A    between atoms: O_6  and  C_7
REMARK    6  A    between atoms: N_17  and  C_18
REMARK                            x       y       z     vdW  Elec       q    Type
REMARK                         _______ _______ _______ _____ _____    ______ ____
ROOT
ATOM      1  C   UNL     1       8.993  -1.839  24.976  0.00  0.00    +0.341 C 
ATOM      2  O   UNL     1       8.232  -1.984  25.923  0.00  0.00    -0.248 OA
ENDROOT
BRANCH   1   3
ATOM      3  C   UNL     1       9.404  -2.942  24.008  0.00  0.00    +0.253 C 
BRANCH   3   4
ATOM      4  C   UNL     1       8.190  -3.593  23.392  0.00  0.00    -0.008 A 
ATOM      5  C   UNL     1       7.426  -2.879  22.458  0.00  0.00    +0.007 A 
ATOM      6  C   UNL     1       6.350  -3.487  21.811  0.00  0.00    +0.000 A 
ATOM      7  C   UNL     1       6.034  -4.815  22.084  0.00  0.00    +0.000 A 
ATOM      8  C   UNL     1       6.786  -5.536  23.010  0.00  0.00    +0.000 A 
ATOM      9  C   UNL     1       7.858  -4.930  23.661  0.00  0.00    +0.007 A 
ENDBRANCH   3   4
BRANCH   3  10
ATOM     10  O   UNL     1      10.303  -2.489  22.990  0.00  0.00    -0.376 OA
ATOM     11  H   UNL     1      10.691  -1.664  23.336  0.00  0.00    +0.211 HD
ENDBRANCH   3  10
ENDBRANCH   1   3
BRANCH   1  12
ATOM     12  O   UNL     1       9.654  -0.677  24.654  0.00  0.00    -0.459 OA
BRANCH  12  13
ATOM     13  C   UNL     1       8.821   0.499  24.670  0.00  0.00    +0.179 C 
ATOM     14  C   UNL     1       9.738   1.727  24.515  0.00  0.00    +0.063 C 
ATOM     15  C   UNL     1       9.557   2.507  23.213  0.00  0.00    +0.060 C 
ATOM     16  N   UNL     1       8.148   2.665  22.854  0.00  0.00    -0.299 NA
ATOM     17  C   UNL     1       7.316   3.301  23.864  0.00  0.00    +0.105 C 
ATOM     18  C   UNL     1       7.749   1.314  22.453  0.00  0.00    +0.060 C 
ATOM     19  C   UNL     1       8.880   0.952  21.487  0.00  0.00    +0.020 C 
ATOM     20  C   UNL     1      10.091   1.718  22.012  0.00  0.00    +0.020 C 
ATOM     21  C   UNL     1       7.694   0.332  23.631  0.00  0.00    +0.063 C 
ENDBRANCH  12  13
ENDBRANCH   1  12
TORSDOF 5
ENDMDL
MODEL 6
REMARK VINA RESULT:      -6.2      2.580      6.171
REMARK  Name = 
REMARK  6 active torsions:
REMARK  status: ('A' for Active; 'I' for Inactive)
REMARK    1  A    between atoms: C_2  and  O_3
REMARK    2  A    between atoms: C_2  and  C_4
REMARK    3  A    between atoms: C_2  and  C_19
REMARK    4  A    between atoms: C_4  and  O_6
REMARK    5  A    between atoms: O_6  and  C_7
REMARK    6  A    between atoms: N_17  and  C_18
REMARK                            x       y       z     vdW  Elec       q    Type
REMARK                         _______ _______ _______ _____ _____    ______ ____
ROOT
ATOM      1  C   UNL     1       6.596  -3.495  22.083  0.00  0.00    +0.341 C 
ATOM      2  O   UNL     1       5.396  -3.284  21.970  0.00  0.00    -0.248 OA
ENDROOT
BRANCH   1   3
ATOM      3  C   UNL     1       7.220  -4.854  22.381  0.00  0.00    +0.253 C 
BRANCH   3   4
ATOM      4  C   UNL     1       7.331  -5.077  23.868  0.00  0.00    -0.008 A 
ATOM      5  C   UNL     1       8.597  -5.100  24.469  0.00  0.00    +0.007 A 
ATOM      6  C   UNL     1       8.723  -5.218  25.853  0.00  0.00    +0.000 A 
ATOM      7  C   UNL     1       7.584  -5.307  26.650  0.00  0.00    +0.000 A 
ATOM      8  C   UNL     1       6.319  -5.285  26.066  0.00  0.00    +0.000 A 
ATOM      9  C   UNL     1       6.191  -5.172  24.683  0.00  0.00    +0.007 A 
ENDBRANCH   3   4
BRANCH   3  10
ATOM     10  O   UNL     1       6.523  -5.939  21.760  0.00  0.00    -0.376 OA
ATOM     11  H   UNL     1       6.339  -5.641  20.849  0.00  0.00    +0.211 HD
ENDBRANCH   3  10
ENDBRANCH   1   3
BRANCH   1  12
ATOM     12  O   UNL     1       7.584  -2.541  22.020  0.00  0.00    -0.459 OA
BRANCH  12  13
ATOM     13  C   UNL     1       7.670  -1.704  23.189  0.00  0.00    +0.179 C 
ATOM     14  C   UNL     1       9.150  -1.640  23.614  0.00  0.00    +0.063 C 
ATOM     15  C   UNL     1       9.804  -0.266  23.476  0.00  0.00    +0.060 C 
ATOM     16  N   UNL     1       8.924   0.812  23.927  0.00  0.00    -0.299 NA
ATOM     17  C   UNL     1       8.443   0.691  25.295  0.00  0.00    +0.105 C 
ATOM     18  C   UNL     1       7.893   0.863  22.888  0.00  0.00    +0.060 C 
ATOM     19  C   UNL     1       8.757   0.887  21.624  0.00  0.00    +0.020 C 
ATOM     20  C   UNL     1      10.012   0.107  22.003  0.00  0.00    +0.020 C 
ATOM     21  C   UNL     1       6.968  -0.361  22.901  0.00  0.00    +0.063 C 
ENDBRANCH  12  13
ENDBRANCH   1  12
TORSDOF 5
ENDMDL
MODEL 7
REMARK VINA RESULT:      -6.1      2.236      3.644
REMARK  Name = 
REMARK  6 active torsions:
REMARK  status: ('A' for Active; 'I' for Inactive)
REMARK    1  A    between atoms: C_2  and  O_3
REMARK    2  A    between atoms: C_2  and  C_4
REMARK    3  A    between atoms: C_2  and  C_19
REMARK    4  A    between atoms: C_4  and  O_6
REMARK    5  A    between atoms: O_6  and  C_7
REMARK    6  A    between atoms: N_17  and  C_18
REMARK                            x       y       z     vdW  Elec       q    Type
REMARK                         _______ _______ _______ _____ _____    ______ ____
ROOT
ATOM      1  C   UNL     1       6.742   0.204  25.678  0.00  0.00    +0.341 C 
ATOM      2  O   UNL     1       7.003   0.293  26.871  0.00  0.00    -0.248 OA
ENDROOT
BRANCH   1   3
ATOM      3  C   UNL     1       6.534   1.387  24.739  0.00  0.00    +0.253 C 
BRANCH   3   4
ATOM      4  C   UNL     1       7.694   1.522  23.784  0.00  0.00    -0.008 A 
ATOM      5  C   UNL     1       8.966   1.833  24.284  0.00  0.00    +0.007 A 
ATOM      6  C   UNL     1      10.070   1.878  23.434  0.00  0.00    +0.000 A 
ATOM      7  C   UNL     1       9.915   1.606  22.077  0.00  0.00    +0.000 A 
ATOM      8  C   UNL     1       8.656   1.295  21.566  0.00  0.00    +0.000 A 
ATOM      9  C   UNL     1       7.550   1.253  22.413  0.00  0.00    +0.007 A 
ENDBRANCH   3   4
BRANCH   3  10
ATOM     10  O   UNL     1       5.296   1.323  24.022  0.00  0.00    -0.376 OA
ATOM     11  H   UNL     1       5.241   2.161  23.526  0.00  0.00    +0.211 HD
ENDBRANCH   3  10
ENDBRANCH   1   3
BRANCH   1  12
ATOM     12  O   UNL     1       6.534  -0.968  24.992  0.00  0.00    -0.459 OA
BRANCH  12  13
ATOM     13  C   UNL     1       7.398  -2.049  25.395  0.00  0.00    +0.179 C 
ATOM     14  C   UNL     1       6.848  -3.348  24.776  0.00  0.00    +0.063 C 
ATOM     15  C   UNL     1       7.746  -3.992  23.720  0.00  0.00    +0.060 C 
ATOM     16  N   UNL     1       9.156  -3.972  24.108  0.00  0.00    -0.299 NA
ATOM     17  C   UNL     1       9.459  -4.602  25.383  0.00  0.00    +0.105 C 
ATOM     18  C   UNL     1       9.518  -2.558  23.989  0.00  0.00    +0.060 C 
ATOM     19  C   UNL     1       8.971  -2.234  22.596  0.00  0.00    +0.020 C 
ATOM     20  C   UNL     1       7.772  -3.162  22.430  0.00  0.00    +0.020 C 
ATOM     21  C   UNL     1       8.857  -1.678  25.059  0.00  0.00    +0.063 C 
ENDBRANCH  12  13
ENDBRANCH   1  12
TORSDOF 5
ENDMDL
MODEL 8
REMARK VINA RESULT:      -6.0      2.107      2.452
REMARK  Name = 
REMARK  6 active torsions:
REMARK  status: ('A' for Active; 'I' for Inactive)
REMARK    1  A    between atoms: C_2  and  O_3
REMARK    2  A    between atoms: C_2  and  C_4
REMARK    3  A    between atoms: C_2  and  C_19
REMARK    4  A    between atoms: C_4  and  O_6
REMARK    5  A    between atoms: O_6  and  C_7
REMARK    6  A    between atoms: N_17  and  C_18
REMARK                            x       y       z     vdW  Elec       q    Type
REMARK                         _______ _______ _______ _____ _____    ______ ____
ROOT
ATOM      1  C   UNL     1      10.186  -1.425  23.489  0.00  0.00    +0.341 C 
ATOM      2  O   UNL     1      10.684  -1.862  22.459  0.00  0.00    -0.248 OA
ENDROOT
BRANCH   1   3
ATOM      3  C   UNL     1      10.255   0.029  23.943  0.00  0.00    +0.253 C 
BRANCH   3   4
ATOM      4  C   UNL     1       9.087   0.814  23.400  0.00  0.00    -0.008 A 
ATOM      5  C   UNL     1       9.106   1.243  22.066  0.00  0.00    +0.007 A 
ATOM      6  C   UNL     1       8.004   1.896  21.515  0.00  0.00    +0.000 A 
ATOM      7  C   UNL     1       6.868   2.118  22.291  0.00  0.00    +0.000 A 
ATOM      8  C   UNL     1       6.836   1.696  23.619  0.00  0.00    +0.000 A 
ATOM      9  C   UNL     1       7.938   1.048  24.172  0.00  0.00    +0.007 A 
ENDBRANCH   3   4
BRANCH   3  10
ATOM     10  O   UNL     1      10.337   0.168  25.366  0.00  0.00    -0.376 OA
ATOM     11  H   UNL     1       9.528  -0.251  25.714  0.00  0.00    +0.211 HD
ENDBRANCH   3  10
ENDBRANCH   1   3
BRANCH   1  12
ATOM     12  O   UNL     1       9.533  -2.173  24.440  0.00  0.00    -0.459 OA
BRANCH  12  13
ATOM     13  C   UNL     1       8.617  -3.144  23.899  0.00  0.00    +0.179 C 
ATOM     14  C   UNL     1       8.868  -4.482  24.622  0.00  0.00    +0.063 C 
ATOM     15  C   UNL     1       7.717  -4.965  25.505  0.00  0.00    +0.060 C 
ATOM     16  N   UNL     1       6.414  -4.775  24.867  0.00  0.00    -0.299 NA
ATOM     17  C   UNL     1       6.261  -5.404  23.565  0.00  0.00    +0.105 C 
ATOM     18  C   UNL     1       6.231  -3.322  24.902  0.00  0.00    +0.060 C 
ATOM     19  C   UNL     1       6.560  -3.023  26.367  0.00  0.00    +0.020 C 
ATOM     20  C   UNL     1       7.573  -4.094  26.759  0.00  0.00    +0.020 C 
ATOM     21  C   UNL     1       7.185  -2.575  23.960  0.00  0.00    +0.063 C 
ENDBRANCH  12  13
ENDBRANCH   1  12
TORSDOF 5
ENDMDL
MODEL 9
REMARK VINA RESULT:      -6.0      2.316      6.268
REMARK  Name = 
REMARK  6 active torsions:
REMARK  status: ('A' for Active; 'I' for Inactive)
REMARK    1  A    between atoms: C_2  and  O_3
REMARK    2  A    between atoms: C_2  and  C_4
REMARK    3  A    between atoms: C_2  and  C_19
REMARK    4  A    between atoms: C_4  and  O_6
REMARK    5  A    between atoms: O_6  and  C_7
REMARK    6  A    between atoms: N_17  and  C_18
REMARK                            x       y       z     vdW  Elec       q    Type
REMARK                         _______ _______ _______ _____ _____    ______ ____
ROOT
ATOM      1  C   UNL     1       9.033  -2.843  24.052  0.00  0.00    +0.341 C 
ATOM      2  O   UNL     1      10.151  -3.341  24.085  0.00  0.00    -0.248 OA
ENDROOT
BRANCH   1   3
ATOM      3  C   UNL     1       7.800  -3.419  24.740  0.00  0.00    +0.253 C 
BRANCH   3   4
ATOM      4  C   UNL     1       6.977  -4.230  23.771  0.00  0.00    -0.008 A 
ATOM      5  C   UNL     1       7.605  -5.199  22.977  0.00  0.00    +0.007 A 
ATOM      6  C   UNL     1       6.855  -6.021  22.136  0.00  0.00    +0.000 A 
ATOM      7  C   UNL     1       5.470  -5.887  22.087  0.00  0.00    +0.000 A 
ATOM      8  C   UNL     1       4.832  -4.928  22.872  0.00  0.00    +0.000 A 
ATOM      9  C   UNL     1       5.580  -4.103  23.709  0.00  0.00    +0.007 A 
ENDBRANCH   3   4
BRANCH   3  10
ATOM     10  O   UNL     1       8.117  -4.192  25.902  0.00  0.00    -0.376 OA
ATOM     11  H   UNL     1       9.051  -3.992  26.100  0.00  0.00    +0.211 HD
ENDBRANCH   3  10
ENDBRANCH   1   3
BRANCH   1  12
ATOM     12  O   UNL     1       8.681  -1.717  23.348  0.00  0.00    -0.459 OA
BRANCH  12  13
ATOM     13  C   UNL     1       9.450  -0.546  23.684  0.00  0.00    +0.179 C 
ATOM     14  C   UNL     1      10.184  -0.082  22.411  0.00  0.00    +0.063 C 
ATOM     15  C   UNL     1       9.729   1.269  21.859  0.00  0.00    +0.060 C 
ATOM     16  N   UNL     1       9.522   2.257  22.918  0.00  0.00    -0.299 NA
ATOM     17  C   UNL     1      10.671   2.499  23.777  0.00  0.00    +0.105 C 
ATOM     18  C   UNL     1       8.310   1.782  23.589  0.00  0.00    +0.060 C 
ATOM     19  C   UNL     1       7.385   1.552  22.390  0.00  0.00    +0.020 C 
ATOM     20  C   UNL     1       8.325   1.178  21.249  0.00  0.00    +0.020 C 
ATOM     21  C   UNL     1       8.529   0.481  24.374  0.00  0.00    +0.063 C 
ENDBRANCH  12  13
ENDBRANCH   1  12
TORSDOF 5
ENDMDL
