MODEL 1
REMARK VINA RESULT:      -7.7      0.000      0.000
REMARK  Name = 
REMARK  7 active torsions:
REMARK  status: ('A' for Active; 'I' for Inactive)
REMARK    1  A    between atoms: C_2  and  O_3
REMARK    2  A    between atoms: N_5  and  C_6
REMARK    3  A    between atoms: C_6  and  C_7
REMARK    4  A    between atoms: C_18  and  C_20
REMARK    5  A    between atoms: C_20  and  S_21
REMARK    6  A    between atoms: S_21  and  C_22
REMARK    7  A    between atoms: C_22  and  C_23
REMARK                            x       y       z     vdW  Elec       q    Type
REMARK                         _______ _______ _______ _____ _____    ______ ____
ROOT
ATOM      1  C   UNL     1       5.781  -2.686  23.719  0.00  0.00    +0.134 C 
ATOM      2  C   UNL     1       6.256  -2.673  22.260  0.00  0.00    +0.043 C 
ATOM      3  C   UNL     1       5.517  -3.857  21.615  0.00  0.00    +0.091 C 
ATOM      4  N   UNL     1       4.867  -4.630  22.685  0.00  0.00    -0.295 NA
ATOM      5  C   UNL     1       4.556  -3.606  23.699  0.00  0.00    +0.116 C 
ENDROOT
BRANCH   1   6
ATOM      6  O   UNL     1       5.476  -1.376  24.174  0.00  0.00    -0.390 OA
ATOM      7  H   UNL     1       4.617  -1.114  23.798  0.00  0.00    +0.210 HD
ENDBRANCH   1   6
BRANCH   2   8
ATOM      8  C   UNL     1       7.784  -2.759  22.156  0.00  0.00    +0.076 C 
BRANCH   8   9
ATOM      9  S   UNL     1       8.534  -2.592  23.813  0.00  0.00    -0.156 S 
BRANCH   9  10
ATOM     10  C   UNL     1      10.191  -2.001  23.346  0.00  0.00    +0.104 C 
BRANCH  10  11
ATOM     11  C   UNL     1      10.193  -0.499  23.203  0.00  0.00    -0.038 A 
ATOM     12  C   UNL     1      10.600   0.323  24.264  0.00  0.00    +0.004 A 
ATOM     13  C   UNL     1      10.643   1.711  24.112  0.00  0.00    +0.000 A 
ATOM     14  C   UNL     1      10.282   2.292  22.896  0.00  0.00    +0.000 A 
ATOM     15  C   UNL     1       9.884   1.485  21.832  0.00  0.00    +0.000 A 
ATOM     16  C   UNL     1       9.840   0.098  21.983  0.00  0.00    +0.004 A 
ENDBRANCH  10  11
ENDBRANCH   9  10
ENDBRANCH   8   9
ENDBRANCH   2   8
BRANCH   4  17
ATOM     17  C   UNL     1       5.708  -5.688  23.276  0.00  0.00    +0.123 C 
BRANCH  17  18
ATOM     18  C   UNL     1       5.179  -6.194  24.582  0.00  0.00    +0.010 A 
ATOM     19  C   UNL     1       5.763  -6.015  25.869  0.00  0.00    +0.098 A 
ATOM     20  N   UNL     1       6.874  -5.335  26.223  0.00  0.00    -0.233 NA
ATOM     21  C   UNL     1       7.146  -5.410  27.534  0.00  0.00    +0.224 A 
ATOM     22  N   UNL     1       6.464  -6.076  28.490  0.00  0.00    -0.219 NA
ATOM     23  C   UNL     1       5.368  -6.755  28.125  0.00  0.00    +0.144 A 
ATOM     24  N   UNL     1       4.673  -7.453  29.101  0.00  0.00    -0.341 N 
ATOM     25  H   UNL     1       3.671  -7.455  28.988  0.00  0.00    +0.144 HD
ATOM     26  H   UNL     1       5.001  -7.164  30.015  0.00  0.00    +0.144 HD
ATOM     27  C   UNL     1       4.999  -6.719  26.791  0.00  0.00    +0.105 A 
ATOM     28  N   UNL     1       3.972  -7.308  26.103  0.00  0.00    -0.356 N 
ATOM     29  H   UNL     1       3.269  -7.902  26.522  0.00  0.00    +0.165 HD
ATOM     30  C   UNL     1       4.079  -7.019  24.769  0.00  0.00    +0.090 A 
ENDBRANCH  17  18
ENDBRANCH   4  17
TORSDOF 7
ENDMDL
MODEL 2
REMARK VINA RESULT:      -7.7      2.531      3.967
REMARK  Name = 
REMARK  7 active torsions:
REMARK  status: ('A' for Active; 'I' for Inactive)
REMARK    1  A    between atoms: C_2  and  O_3
REMARK    2  A    between atoms: N_5  and  C_6
REMARK    3  A    between atoms: C_6  and  C_7
REMARK    4  A    between atoms: C_18  and  C_20
REMARK    5  A    between atoms: C_20  and  S_21
REMARK    6  A    between atoms: S_21  and  C_22
REMARK    7  A    between atoms: C_22  and  C_23
REMARK                            x       y       z     vdW  Elec       q    Type
REMARK                         _______ _______ _______ _____ _____    ______ ____
ROOT
ATOM      1  C   UNL     1       9.488  -1.741  22.694  0.00  0.00    +0.134 C 
ATOM      2  C   UNL     1       9.126  -0.447  23.434  0.00  0.00    +0.043 C 
ATOM      3  C   UNL     1       8.941  -0.890  24.894  0.00  0.00    +0.091 C 
ATOM      4  N   UNL     1       8.953  -2.361  24.933  0.00  0.00    -0.295 NA
ATOM      5  C   UNL     1       9.847  -2.719  23.817  0.00  0.00    +0.116 C 
ENDROOT
BRANCH   1   6
ATOM      6  O   UNL     1      10.558  -1.533  21.784  0.00  0.00    -0.390 OA
ATOM      7  H   UNL     1      10.788  -2.390  21.382  0.00  0.00    +0.210 HD
ENDBRANCH   1   6
BRANCH   2   8
ATOM      8  C   UNL     1       7.891   0.232  22.825  0.00  0.00    +0.076 C 
BRANCH   8   9
ATOM      9  S   UNL     1       8.324   1.904  22.233  0.00  0.00    -0.156 S 
BRANCH   9  10
ATOM     10  C   UNL     1       8.553   2.749  23.828  0.00  0.00    +0.104 C 
BRANCH  10  11
ATOM     11  C   UNL     1       9.664   3.765  23.731  0.00  0.00    -0.038 A 
ATOM     12  C   UNL     1       9.445   5.106  24.081  0.00  0.00    +0.004 A 
ATOM     13  C   UNL     1      10.489   6.033  24.031  0.00  0.00    +0.000 A 
ATOM     14  C   UNL     1      11.764   5.629  23.634  0.00  0.00    +0.000 A 
ATOM     15  C   UNL     1      11.996   4.300  23.291  0.00  0.00    +0.000 A 
ATOM     16  C   UNL     1      10.953   3.371  23.340  0.00  0.00    +0.004 A 
ENDBRANCH  10  11
ENDBRANCH   9  10
ENDBRANCH   8   9
ENDBRANCH   2   8
BRANCH   4  17
ATOM     17  C   UNL     1       7.633  -2.991  24.745  0.00  0.00    +0.123 C 
BRANCH  17  18
ATOM     18  C   UNL     1       7.402  -4.149  25.666  0.00  0.00    +0.010 A 
ATOM     19  C   UNL     1       6.152  -4.763  25.973  0.00  0.00    +0.098 A 
ATOM     20  N   UNL     1       4.920  -4.491  25.494  0.00  0.00    -0.233 NA
ATOM     21  C   UNL     1       3.961  -5.255  26.039  0.00  0.00    +0.224 A 
ATOM     22  N   UNL     1       4.092  -6.213  26.980  0.00  0.00    -0.219 NA
ATOM     23  C   UNL     1       5.319  -6.467  27.453  0.00  0.00    +0.144 A 
ATOM     24  N   UNL     1       5.456  -7.440  28.432  0.00  0.00    -0.341 N 
ATOM     25  H   UNL     1       6.297  -7.993  28.366  0.00  0.00    +0.144 HD
ATOM     26  H   UNL     1       4.597  -7.973  28.497  0.00  0.00    +0.144 HD
ATOM     27  C   UNL     1       6.377  -5.738  26.936  0.00  0.00    +0.105 A 
ATOM     28  N   UNL     1       7.718  -5.737  27.212  0.00  0.00    -0.356 N 
ATOM     29  H   UNL     1       8.161  -6.335  27.896  0.00  0.00    +0.165 HD
ATOM     30  C   UNL     1       8.345  -4.771  26.472  0.00  0.00    +0.090 A 
ENDBRANCH  17  18
ENDBRANCH   4  17
TORSDOF 7
ENDMDL
MODEL 3
REMARK VINA RESULT:      -7.6      3.699      7.506
REMARK  Name = 
REMARK  7 active torsions:
REMARK  status: ('A' for Active; 'I' for Inactive)
REMARK    1  A    between atoms: C_2  and  O_3
REMARK    2  A    between atoms: N_5  and  C_6
REMARK    3  A    between atoms: C_6  and  C_7
REMARK    4  A    between atoms: C_18  and  C_20
REMARK    5  A    between atoms: C_20  and  S_21
REMARK    6  A    between atoms: S_21  and  C_22
REMARK    7  A    between atoms: C_22  and  C_23
REMARK                            x       y       z     vdW  Elec       q    Type
REMARK                         _______ _______ _______ _____ _____    ______ ____
ROOT
ATOM      1  C   UNL     1       7.750  -4.889  27.042  0.00  0.00    +0.134 C 
ATOM      2  C   UNL     1       6.867  -5.013  25.794  0.00  0.00    +0.043 C 
ATOM      3  C   UNL     1       7.758  -4.493  24.653  0.00  0.00    +0.091 C 
ATOM      4  N   UNL     1       8.961  -3.889  25.248  0.00  0.00    -0.295 NA
ATOM      5  C   UNL     1       9.158  -4.678  26.478  0.00  0.00    +0.116 C 
ENDROOT
BRANCH   1   6
ATOM      6  O   UNL     1       7.653  -6.046  27.860  0.00  0.00    -0.390 OA
ATOM      7  H   UNL     1       7.853  -6.825  27.311  0.00  0.00    +0.210 HD
ENDBRANCH   1   6
BRANCH   2   8
ATOM      8  C   UNL     1       5.545  -4.250  25.951  0.00  0.00    +0.076 C 
BRANCH   8   9
ATOM      9  S   UNL     1       4.135  -5.399  25.774  0.00  0.00    -0.156 S 
BRANCH   9  10
ATOM     10  C   UNL     1       3.426  -4.782  24.216  0.00  0.00    +0.104 C 
BRANCH  10  11
ATOM     11  C   UNL     1       4.467  -4.790  23.124  0.00  0.00    -0.038 A 
ATOM     12  C   UNL     1       4.989  -3.590  22.620  0.00  0.00    +0.004 A 
ATOM     13  C   UNL     1       5.985  -3.604  21.641  0.00  0.00    +0.000 A 
ATOM     14  C   UNL     1       6.472  -4.819  21.157  0.00  0.00    +0.000 A 
ATOM     15  C   UNL     1       5.967  -6.017  21.655  0.00  0.00    +0.000 A 
ATOM     16  C   UNL     1       4.971  -6.005  22.634  0.00  0.00    +0.004 A 
ENDBRANCH  10  11
ENDBRANCH   9  10
ENDBRANCH   8   9
ENDBRANCH   2   8
BRANCH   4  17
ATOM     17  C   UNL     1       8.830  -2.458  25.580  0.00  0.00    +0.123 C 
BRANCH  17  18
ATOM     18  C   UNL     1       9.336  -1.559  24.495  0.00  0.00    +0.010 A 
ATOM     19  C   UNL     1       9.186  -0.144  24.417  0.00  0.00    +0.098 A 
ATOM     20  N   UNL     1       8.608   0.710  25.289  0.00  0.00    -0.233 NA
ATOM     21  C   UNL     1       8.618   1.983  24.868  0.00  0.00    +0.224 A 
ATOM     22  N   UNL     1       9.109   2.475  23.711  0.00  0.00    -0.219 NA
ATOM     23  C   UNL     1       9.671   1.617  22.850  0.00  0.00    +0.144 A 
ATOM     24  N   UNL     1      10.164   2.116  21.653  0.00  0.00    -0.341 N 
ATOM     25  H   UNL     1      11.006   1.671  21.322  0.00  0.00    +0.144 HD
ATOM     26  H   UNL     1      10.206   3.127  21.705  0.00  0.00    +0.144 HD
ATOM     27  C   UNL     1       9.723   0.281  23.209  0.00  0.00    +0.105 A 
ATOM     28  N   UNL     1      10.199  -0.829  22.562  0.00  0.00    -0.356 N 
ATOM     29  H   UNL     1      10.626  -0.818  21.647  0.00  0.00    +0.165 HD
ATOM     30  C   UNL     1       9.954  -1.947  23.315  0.00  0.00    +0.090 A 
ENDBRANCH  17  18
ENDBRANCH   4  17
TORSDOF 7
ENDMDL
MODEL 4
REMARK VINA RESULT:      -7.6      3.949      6.606
REMARK  Name = 
REMARK  7 active torsions:
REMARK  status: ('A' for Active; 'I' for Inactive)
REMARK    1  A    between atoms: C_2  and  O_3
REMARK    2  A    between atoms: N_5  and  C_6
REMARK    3  A    between atoms: C_6  and  C_7
REMARK    4  A    between atoms: C_18  and  C_20
REMARK    5  A    between atoms: C_20  and  S_21
REMARK    6  A    between atoms: S_21  and  C_22
REMARK    7  A    between atoms: C_22  and  C_23
REMARK                            x       y       z     vdW  Elec       q    Type
REMARK                         _______ _______ _______ _____ _____    ______ ____
ROOT
ATOM      1  C   UNL     1       8.283  -4.928  26.370  0.00  0.00    +0.134 C 
ATOM      2  C   UNL     1       7.075  -4.146  25.837  0.00  0.00    +0.043 C 
ATOM      3  C   UNL     1       7.416  -3.894  24.359  0.00  0.00    +0.091 C 
ATOM      4  N   UNL     1       8.817  -4.285  24.137  0.00  0.00    -0.295 NA
ATOM      5  C   UNL     1       9.017  -5.380  25.104  0.00  0.00    +0.116 C 
ENDROOT
BRANCH   1   6
ATOM      6  O   UNL     1       7.875  -6.016  27.186  0.00  0.00    -0.390 OA
ATOM      7  H   UNL     1       6.941  -5.883  27.427  0.00  0.00    +0.210 HD
ENDBRANCH   1   6
BRANCH   2   8
ATOM      8  C   UNL     1       6.821  -2.868  26.646  0.00  0.00    +0.076 C 
BRANCH   8   9
ATOM      9  S   UNL     1       6.226  -1.538  25.545  0.00  0.00    -0.156 S 
BRANCH   9  10
ATOM     10  C   UNL     1       7.304  -0.177  26.091  0.00  0.00    +0.104 C 
BRANCH  10  11
ATOM     11  C   UNL     1       7.139   1.020  25.188  0.00  0.00    -0.038 A 
ATOM     12  C   UNL     1       6.477   0.906  23.957  0.00  0.00    +0.004 A 
ATOM     13  C   UNL     1       6.289   2.026  23.145  0.00  0.00    +0.000 A 
ATOM     14  C   UNL     1       6.758   3.274  23.556  0.00  0.00    +0.000 A 
ATOM     15  C   UNL     1       7.410   3.402  24.780  0.00  0.00    +0.000 A 
ATOM     16  C   UNL     1       7.600   2.283  25.593  0.00  0.00    +0.004 A 
ENDBRANCH  10  11
ENDBRANCH   9  10
ENDBRANCH   8   9
ENDBRANCH   2   8
BRANCH   4  17
ATOM     17  C   UNL     1       9.800  -3.212  24.378  0.00  0.00    +0.123 C 
BRANCH  17  18
ATOM     18  C   UNL     1       9.663  -2.070  23.420  0.00  0.00    +0.010 A 
ATOM     19  C   UNL     1      10.072  -0.721  23.632  0.00  0.00    +0.098 A 
ATOM     20  N   UNL     1      10.698  -0.168  24.693  0.00  0.00    -0.233 NA
ATOM     21  C   UNL     1      10.897   1.152  24.561  0.00  0.00    +0.224 A 
ATOM     22  N   UNL     1      10.542   1.950  23.533  0.00  0.00    -0.219 NA
ATOM     23  C   UNL     1       9.913   1.391  22.490  0.00  0.00    +0.144 A 
ATOM     24  N   UNL     1       9.532   2.211  21.438  0.00  0.00    -0.341 N 
ATOM     25  H   UNL     1       9.607   1.790  20.524  0.00  0.00    +0.144 HD
ATOM     26  H   UNL     1       9.987   3.111  21.533  0.00  0.00    +0.144 HD
ATOM     27  C   UNL     1       9.680   0.027  22.530  0.00  0.00    +0.105 A 
ATOM     28  N   UNL     1       9.058  -0.827  21.659  0.00  0.00    -0.356 N 
ATOM     29  H   UNL     1       8.650  -0.548  20.777  0.00  0.00    +0.165 HD
ATOM     30  C   UNL     1       9.021  -2.089  22.190  0.00  0.00    +0.090 A 
ENDBRANCH  17  18
ENDBRANCH   4  17
TORSDOF 7
ENDMDL
MODEL 5
REMARK VINA RESULT:      -7.3      2.778      4.205
REMARK  Name = 
REMARK  7 active torsions:
REMARK  status: ('A' for Active; 'I' for Inactive)
REMARK    1  A    between atoms: C_2  and  O_3
REMARK    2  A    between atoms: N_5  and  C_6
REMARK    3  A    between atoms: C_6  and  C_7
REMARK    4  A    between atoms: C_18  and  C_20
REMARK    5  A    between atoms: C_20  and  S_21
REMARK    6  A    between atoms: S_21  and  C_22
REMARK    7  A    between atoms: C_22  and  C_23
REMARK                            x       y       z     vdW  Elec       q    Type
REMARK                         _______ _______ _______ _____ _____    ______ ____
ROOT
ATOM      1  C   UNL     1       9.466  -1.771  22.754  0.00  0.00    +0.134 C 
ATOM      2  C   UNL     1       9.104  -0.518  23.561  0.00  0.00    +0.043 C 
ATOM      3  C   UNL     1       8.933  -1.035  24.999  0.00  0.00    +0.091 C 
ATOM      4  N   UNL     1       8.952  -2.506  24.963  0.00  0.00    -0.295 NA
ATOM      5  C   UNL     1       9.838  -2.803  23.823  0.00  0.00    +0.116 C 
ENDROOT
BRANCH   1   6
ATOM      6  O   UNL     1      10.527  -1.512  21.846  0.00  0.00    -0.390 OA
ATOM      7  H   UNL     1      10.214  -0.867  21.187  0.00  0.00    +0.210 HD
ENDBRANCH   1   6
BRANCH   2   8
ATOM      8  C   UNL     1       7.862   0.185  22.998  0.00  0.00    +0.076 C 
BRANCH   8   9
ATOM      9  S   UNL     1       8.356   1.441  21.768  0.00  0.00    -0.156 S 
BRANCH   9  10
ATOM     10  C   UNL     1       7.108   2.720  22.111  0.00  0.00    +0.104 C 
BRANCH  10  11
ATOM     11  C   UNL     1       7.774   4.002  22.547  0.00  0.00    -0.038 A 
ATOM     12  C   UNL     1       7.308   5.244  22.094  0.00  0.00    +0.004 A 
ATOM     13  C   UNL     1       7.900   6.430  22.536  0.00  0.00    +0.000 A 
ATOM     14  C   UNL     1       8.964   6.386  23.438  0.00  0.00    +0.000 A 
ATOM     15  C   UNL     1       9.431   5.158  23.901  0.00  0.00    +0.000 A 
ATOM     16  C   UNL     1       8.840   3.972  23.460  0.00  0.00    +0.004 A 
ENDBRANCH  10  11
ENDBRANCH   9  10
ENDBRANCH   8   9
ENDBRANCH   2   8
BRANCH   4  17
ATOM     17  C   UNL     1       7.633  -3.132  24.754  0.00  0.00    +0.123 C 
BRANCH  17  18
ATOM     18  C   UNL     1       7.370  -4.267  25.694  0.00  0.00    +0.010 A 
ATOM     19  C   UNL     1       6.111  -4.875  25.971  0.00  0.00    +0.098 A 
ATOM     20  N   UNL     1       4.896  -4.617  25.442  0.00  0.00    -0.233 NA
ATOM     21  C   UNL     1       3.918  -5.369  25.970  0.00  0.00    +0.224 A 
ATOM     22  N   UNL     1       4.016  -6.303  26.939  0.00  0.00    -0.219 NA
ATOM     23  C   UNL     1       5.226  -6.544  27.462  0.00  0.00    +0.144 A 
ATOM     24  N   UNL     1       5.328  -7.492  28.469  0.00  0.00    -0.341 N 
ATOM     25  H   UNL     1       6.171  -8.046  28.446  0.00  0.00    +0.144 HD
ATOM     26  H   UNL     1       4.468  -8.025  28.516  0.00  0.00    +0.144 HD
ATOM     27  C   UNL     1       6.300  -5.826  26.965  0.00  0.00    +0.105 A 
ATOM     28  N   UNL     1       7.631  -5.817  27.289  0.00  0.00    -0.356 N 
ATOM     29  H   UNL     1       8.050  -6.397  28.003  0.00  0.00    +0.165 HD
ATOM     30  C   UNL     1       8.284  -4.868  26.548  0.00  0.00    +0.090 A 
ENDBRANCH  17  18
ENDBRANCH   4  17
TORSDOF 7
ENDMDL
MODEL 6
REMARK VINA RESULT:      -7.3      2.744      5.003
REMARK  Name = 
REMARK  7 active torsions:
REMARK  status: ('A' for Active; 'I' for Inactive)
REMARK    1  A    between atoms: C_2  and  O_3
REMARK    2  A    between atoms: N_5  and  C_6
REMARK    3  A    between atoms: C_6  and  C_7
REMARK    4  A    between atoms: C_18  and  C_20
REMARK    5  A    between atoms: C_20  and  S_21
REMARK    6  A    between atoms: S_21  and  C_22
REMARK    7  A    between atoms: C_22  and  C_23
REMARK                            x       y       z     vdW  Elec       q    Type
REMARK                         _______ _______ _______ _____ _____    ______ ____
ROOT
ATOM      1  C   UNL     1       9.575  -1.300  22.659  0.00  0.00    +0.134 C 
ATOM      2  C   UNL     1       9.970   0.016  23.343  0.00  0.00    +0.043 C 
ATOM      3  C   UNL     1      10.053  -0.348  24.835  0.00  0.00    +0.091 C 
ATOM      4  N   UNL     1       9.505  -1.703  25.008  0.00  0.00    -0.295 NA
ATOM      5  C   UNL     1       9.832  -2.363  23.731  0.00  0.00    +0.116 C 
ENDROOT
BRANCH   1   6
ATOM      6  O   UNL     1      10.333  -1.515  21.478  0.00  0.00    -0.390 OA
ATOM      7  H   UNL     1      10.571  -0.647  21.106  0.00  0.00    +0.210 HD
ENDBRANCH   1   6
BRANCH   2   8
ATOM      8  C   UNL     1       8.977   1.143  23.030  0.00  0.00    +0.076 C 
BRANCH   8   9
ATOM      9  S   UNL     1       8.749   2.203  24.500  0.00  0.00    -0.156 S 
BRANCH   9  10
ATOM     10  C   UNL     1       8.660   3.833  23.696  0.00  0.00    +0.104 C 
BRANCH  10  11
ATOM     11  C   UNL     1       9.975   4.560  23.835  0.00  0.00    -0.038 A 
ATOM     12  C   UNL     1      11.155   4.020  23.302  0.00  0.00    +0.004 A 
ATOM     13  C   UNL     1      12.361   4.718  23.395  0.00  0.00    +0.000 A 
ATOM     14  C   UNL     1      12.401   5.966  24.018  0.00  0.00    +0.000 A 
ATOM     15  C   UNL     1      11.234   6.516  24.543  0.00  0.00    +0.000 A 
ATOM     16  C   UNL     1      10.027   5.819  24.453  0.00  0.00    +0.004 A 
ENDBRANCH  10  11
ENDBRANCH   9  10
ENDBRANCH   8   9
ENDBRANCH   2   8
BRANCH   4  17
ATOM     17  C   UNL     1       8.050  -1.752  25.244  0.00  0.00    +0.123 C 
BRANCH  17  18
ATOM     18  C   UNL     1       7.471  -3.118  25.041  0.00  0.00    +0.010 A 
ATOM     19  C   UNL     1       6.633  -3.541  23.969  0.00  0.00    +0.098 A 
ATOM     20  N   UNL     1       6.205  -2.854  22.889  0.00  0.00    -0.233 NA
ATOM     21  C   UNL     1       5.391  -3.568  22.096  0.00  0.00    +0.224 A 
ATOM     22  N   UNL     1       4.966  -4.837  22.265  0.00  0.00    -0.219 NA
ATOM     23  C   UNL     1       5.391  -5.505  23.346  0.00  0.00    +0.144 A 
ATOM     24  N   UNL     1       4.943  -6.805  23.531  0.00  0.00    -0.341 N 
ATOM     25  H   UNL     1       5.622  -7.434  23.931  0.00  0.00    +0.144 HD
ATOM     26  H   UNL     1       4.505  -7.133  22.678  0.00  0.00    +0.144 HD
ATOM     27  C   UNL     1       6.250  -4.853  24.213  0.00  0.00    +0.105 A 
ATOM     28  N   UNL     1       6.835  -5.236  25.391  0.00  0.00    -0.356 N 
ATOM     29  H   UNL     1       6.711  -6.140  25.824  0.00  0.00    +0.165 HD
ATOM     30  C   UNL     1       7.555  -4.194  25.913  0.00  0.00    +0.090 A 
ENDBRANCH  17  18
ENDBRANCH   4  17
TORSDOF 7
ENDMDL
MODEL 7
REMARK VINA RESULT:      -7.3      2.071      3.481
REMARK  Name = 
REMARK  7 active torsions:
REMARK  status: ('A' for Active; 'I' for Inactive)
REMARK    1  A    between atoms: C_2  and  O_3
REMARK    2  A    between atoms: N_5  and  C_6
REMARK    3  A    between atoms: C_6  and  C_7
REMARK    4  A    between atoms: C_18  and  C_20
REMARK    5  A    between atoms: C_20  and  S_21
REMARK    6  A    between atoms: S_21  and  C_22
REMARK    7  A    between atoms: C_22  and  C_23
REMARK                            x       y       z     vdW  Elec       q    Type
REMARK                         _______ _______ _______ _____ _____    ______ ____
ROOT
ATOM      1  C   UNL     1       7.497  -0.820  23.885  0.00  0.00    +0.134 C 
ATOM      2  C   UNL     1       8.865  -0.674  23.207  0.00  0.00    +0.043 C 
ATOM      3  C   UNL     1       8.830  -1.708  22.069  0.00  0.00    +0.091 C 
ATOM      4  N   UNL     1       7.633  -2.545  22.246  0.00  0.00    -0.295 NA
ATOM      5  C   UNL     1       6.670  -1.625  22.878  0.00  0.00    +0.116 C 
ENDROOT
BRANCH   1   6
ATOM      6  O   UNL     1       6.926   0.448  24.175  0.00  0.00    -0.390 OA
ATOM      7  H   UNL     1       6.025   0.469  23.806  0.00  0.00    +0.210 HD
ENDBRANCH   1   6
BRANCH   2   8
ATOM      8  C   UNL     1      10.018  -0.875  24.198  0.00  0.00    +0.076 C 
BRANCH   8   9
ATOM      9  S   UNL     1      10.804   0.729  24.579  0.00  0.00    -0.156 S 
BRANCH   9  10
ATOM     10  C   UNL     1      10.171   1.721  23.191  0.00  0.00    +0.104 C 
BRANCH  10  11
ATOM     11  C   UNL     1      10.348   3.193  23.473  0.00  0.00    -0.038 A 
ATOM     12  C   UNL     1       9.300   3.954  24.010  0.00  0.00    +0.004 A 
ATOM     13  C   UNL     1       9.483   5.305  24.310  0.00  0.00    +0.000 A 
ATOM     14  C   UNL     1      10.719   5.911  24.079  0.00  0.00    +0.000 A 
ATOM     15  C   UNL     1      11.770   5.164  23.553  0.00  0.00    +0.000 A 
ATOM     16  C   UNL     1      11.588   3.813  23.252  0.00  0.00    +0.004 A 
ENDBRANCH  10  11
ENDBRANCH   9  10
ENDBRANCH   8   9
ENDBRANCH   2   8
BRANCH   4  17
ATOM     17  C   UNL     1       7.834  -3.732  23.099  0.00  0.00    +0.123 C 
BRANCH  17  18
ATOM     18  C   UNL     1       6.667  -4.670  23.079  0.00  0.00    +0.010 A 
ATOM     19  C   UNL     1       6.069  -5.315  24.200  0.00  0.00    +0.098 A 
ATOM     20  N   UNL     1       6.368  -5.212  25.512  0.00  0.00    -0.233 NA
ATOM     21  C   UNL     1       5.611  -6.001  26.291  0.00  0.00    +0.224 A 
ATOM     22  N   UNL     1       4.637  -6.857  25.914  0.00  0.00    -0.219 NA
ATOM     23  C   UNL     1       4.357  -6.956  24.608  0.00  0.00    +0.144 A 
ATOM     24  N   UNL     1       3.368  -7.846  24.216  0.00  0.00    -0.341 N 
ATOM     25  H   UNL     1       2.802  -7.536  23.440  0.00  0.00    +0.144 HD
ATOM     26  H   UNL     1       2.848  -8.149  25.031  0.00  0.00    +0.144 HD
ATOM     27  C   UNL     1       5.076  -6.165  23.729  0.00  0.00    +0.105 A 
ATOM     28  N   UNL     1       5.052  -6.046  22.365  0.00  0.00    -0.356 N 
ATOM     29  H   UNL     1       4.437  -6.568  21.756  0.00  0.00    +0.165 HD
ATOM     30  C   UNL     1       6.019  -5.166  21.957  0.00  0.00    +0.090 A 
ENDBRANCH  17  18
ENDBRANCH   4  17
TORSDOF 7
ENDMDL
MODEL 8
REMARK VINA RESULT:      -7.3      4.183      7.966
REMARK  Name = 
REMARK  7 active torsions:
REMARK  status: ('A' for Active; 'I' for Inactive)
REMARK    1  A    between atoms: C_2  and  O_3
REMARK    2  A    between atoms: N_5  and  C_6
REMARK    3  A    between atoms: C_6  and  C_7
REMARK    4  A    between atoms: C_18  and  C_20
REMARK    5  A    between atoms: C_20  and  S_21
REMARK    6  A    between atoms: S_21  and  C_22
REMARK    7  A    between atoms: C_22  and  C_23
REMARK                            x       y       z     vdW  Elec       q    Type
REMARK                         _______ _______ _______ _____ _____    ______ ____
ROOT
ATOM      1  C   UNL     1       8.718  -0.825  26.278  0.00  0.00    +0.134 C 
ATOM      2  C   UNL     1       8.622  -2.349  26.134  0.00  0.00    +0.043 C 
ATOM      3  C   UNL     1       9.150  -2.624  24.716  0.00  0.00    +0.091 C 
ATOM      4  N   UNL     1       9.298  -1.334  24.023  0.00  0.00    -0.295 NA
ATOM      5  C   UNL     1       9.622  -0.401  25.117  0.00  0.00    +0.116 C 
ENDROOT
BRANCH   1   6
ATOM      6  O   UNL     1       9.244  -0.459  27.546  0.00  0.00    -0.390 OA
ATOM      7  H   UNL     1       9.275  -1.255  28.105  0.00  0.00    +0.210 HD
ENDBRANCH   1   6
BRANCH   2   8
ATOM      8  C   UNL     1       7.195  -2.857  26.379  0.00  0.00    +0.076 C 
BRANCH   8   9
ATOM      9  S   UNL     1       7.212  -4.663  26.654  0.00  0.00    -0.156 S 
BRANCH   9  10
ATOM     10  C   UNL     1       5.763  -5.141  25.663  0.00  0.00    +0.104 C 
BRANCH  10  11
ATOM     11  C   UNL     1       5.948  -4.723  24.225  0.00  0.00    -0.038 A 
ATOM     12  C   UNL     1       5.179  -3.687  23.674  0.00  0.00    +0.004 A 
ATOM     13  C   UNL     1       5.384  -3.274  22.355  0.00  0.00    +0.000 A 
ATOM     14  C   UNL     1       6.364  -3.889  21.575  0.00  0.00    +0.000 A 
ATOM     15  C   UNL     1       7.139  -4.913  22.114  0.00  0.00    +0.000 A 
ATOM     16  C   UNL     1       6.934  -5.329  23.431  0.00  0.00    +0.004 A 
ENDBRANCH  10  11
ENDBRANCH   9  10
ENDBRANCH   8   9
ENDBRANCH   2   8
BRANCH   4  17
ATOM     17  C   UNL     1       8.091  -0.878  23.309  0.00  0.00    +0.123 C 
BRANCH  17  18
ATOM     18  C   UNL     1       8.211   0.523  22.796  0.00  0.00    +0.010 A 
ATOM     19  C   UNL     1       7.370   1.628  23.120  0.00  0.00    +0.098 A 
ATOM     20  N   UNL     1       6.324   1.693  23.970  0.00  0.00    -0.233 NA
ATOM     21  C   UNL     1       5.739   2.900  23.997  0.00  0.00    +0.224 A 
ATOM     22  N   UNL     1       6.064   4.001  23.287  0.00  0.00    -0.219 NA
ATOM     23  C   UNL     1       7.099   3.920  22.440  0.00  0.00    +0.144 A 
ATOM     24  N   UNL     1       7.427   5.045  21.697  0.00  0.00    -0.341 N 
ATOM     25  H   UNL     1       8.415   5.179  21.544  0.00  0.00    +0.144 HD
ATOM     26  H   UNL     1       6.939   5.848  22.074  0.00  0.00    +0.144 HD
ATOM     27  C   UNL     1       7.776   2.716  22.358  0.00  0.00    +0.105 A 
ATOM     28  N   UNL     1       8.837   2.305  21.594  0.00  0.00    -0.356 N 
ATOM     29  H   UNL     1       9.320   2.889  20.926  0.00  0.00    +0.165 HD
ATOM     30  C   UNL     1       9.096   0.981  21.831  0.00  0.00    +0.090 A 
ENDBRANCH  17  18
ENDBRANCH   4  17
TORSDOF 7
ENDMDL
MODEL 9
REMARK VINA RESULT:      -7.2      3.307      4.848
REMARK  Name = 
REMARK  7 active torsions:
REMARK  status: ('A' for Active; 'I' for Inactive)
REMARK    1  A    between atoms: C_2  and  O_3
REMARK    2  A    between atoms: N_5  and  C_6
REMARK    3  A    between atoms: C_6  and  C_7
REMARK    4  A    between atoms: C_18  and  C_20
REMARK    5  A    between atoms: C_20  and  S_21
REMARK    6  A    between atoms: S_21  and  C_22
REMARK    7  A    between atoms: C_22  and  C_23
REMARK                            x       y       z     vdW  Elec       q    Type
REMARK                         _______ _______ _______ _____ _____    ______ ____
ROOT
ATOM      1  C   UNL     1       9.170   0.864  21.862  0.00  0.00    +0.134 C 
ATOM      2  C   UNL     1       8.638   1.023  23.292  0.00  0.00    +0.043 C 
ATOM      3  C   UNL     1       9.029  -0.292  23.985  0.00  0.00    +0.091 C 
ATOM      4  N   UNL     1       9.523  -1.223  22.958  0.00  0.00    -0.295 NA
ATOM      5  C   UNL     1      10.128  -0.327  21.955  0.00  0.00    +0.116 C 
ENDROOT
BRANCH   1   6
ATOM      6  O   UNL     1       9.810   2.050  21.414  0.00  0.00    -0.390 OA
ATOM      7  H   UNL     1      10.155   1.891  20.517  0.00  0.00    +0.210 HD
ENDBRANCH   1   6
BRANCH   2   8
ATOM      8  C   UNL     1       7.132   1.316  23.312  0.00  0.00    +0.076 C 
BRANCH   8   9
ATOM      9  S   UNL     1       6.845   3.112  23.483  0.00  0.00    -0.156 S 
BRANCH   9  10
ATOM     10  C   UNL     1       7.685   3.410  25.070  0.00  0.00    +0.104 C 
BRANCH  10  11
ATOM     11  C   UNL     1       8.671   4.544  24.938  0.00  0.00    -0.038 A 
ATOM     12  C   UNL     1       8.675   5.604  25.856  0.00  0.00    +0.004 A 
ATOM     13  C   UNL     1       9.619   6.629  25.756  0.00  0.00    +0.000 A 
ATOM     14  C   UNL     1      10.572   6.603  24.737  0.00  0.00    +0.000 A 
ATOM     15  C   UNL     1      10.583   5.552  23.824  0.00  0.00    +0.000 A 
ATOM     16  C   UNL     1       9.640   4.527  23.922  0.00  0.00    +0.004 A 
ENDBRANCH  10  11
ENDBRANCH   9  10
ENDBRANCH   8   9
ENDBRANCH   2   8
BRANCH   4  17
ATOM     17  C   UNL     1       8.479  -2.054  22.329  0.00  0.00    +0.123 C 
BRANCH  17  18
ATOM     18  C   UNL     1       7.677  -2.835  23.324  0.00  0.00    +0.010 A 
ATOM     19  C   UNL     1       8.168  -3.803  24.248  0.00  0.00    +0.098 A 
ATOM     20  N   UNL     1       9.435  -4.210  24.476  0.00  0.00    -0.233 NA
ATOM     21  C   UNL     1       9.522  -5.174  25.405  0.00  0.00    +0.224 A 
ATOM     22  N   UNL     1       8.520  -5.761  26.093  0.00  0.00    -0.219 NA
ATOM     23  C   UNL     1       7.267  -5.355  25.850  0.00  0.00    +0.144 A 
ATOM     24  N   UNL     1       6.234  -5.967  26.544  0.00  0.00    -0.341 N 
ATOM     25  H   UNL     1       5.472  -5.356  26.798  0.00  0.00    +0.144 HD
ATOM     26  H   UNL     1       6.619  -6.510  27.307  0.00  0.00    +0.144 HD
ATOM     27  C   UNL     1       7.081  -4.349  24.918  0.00  0.00    +0.105 A 
ATOM     28  N   UNL     1       5.955  -3.737  24.435  0.00  0.00    -0.356 N 
ATOM     29  H   UNL     1       5.014  -3.955  24.731  0.00  0.00    +0.165 HD
ATOM     30  C   UNL     1       6.297  -2.838  23.459  0.00  0.00    +0.090 A 
ENDBRANCH  17  18
ENDBRANCH   4  17
TORSDOF 7
ENDMDL
