MODEL 1
REMARK VINA RESULT:      -6.4      0.000      0.000
REMARK  Name = 
REMARK  7 active torsions:
REMARK  status: ('A' for Active; 'I' for Inactive)
REMARK    1  A    between atoms: C_1  and  C_2
REMARK    2  A    between atoms: C_2  and  N_3
REMARK    3  A    between atoms: N_3  and  C_4
REMARK    4  A    between atoms: C_4  and  C_5
REMARK    5  A    between atoms: C_6  and  C_8
REMARK    6  A    between atoms: C_9  and  N_10
REMARK    7  A    between atoms: C_11  and  C_13
REMARK                            x       y       z     vdW  Elec       q    Type
REMARK                         _______ _______ _______ _____ _____    ______ ____
ROOT
ATOM      1  C   UNL     1       8.065  -3.249  24.680  0.00  0.00    +0.069 A 
ATOM      2  C   UNL     1       8.821  -2.036  24.364  0.00  0.00    -0.023 A 
ATOM      3  C   UNL     1       9.654  -1.768  23.132  0.00  0.00    +0.037 C 
ATOM      4  C   UNL     1      10.597  -0.566  23.326  0.00  0.00    +0.005 C 
ATOM      5  C   UNL     1       9.865   0.633  23.938  0.00  0.00    +0.005 C 
ATOM      6  C   UNL     1       9.299   0.298  25.323  0.00  0.00    +0.043 C 
ATOM      7  C   UNL     1       8.667  -1.061  25.332  0.00  0.00    -0.004 A 
ATOM      8  S   UNL     1       7.697  -1.568  26.625  0.00  0.00    -0.077 S 
ATOM      9  C   UNL     1       7.467  -3.105  25.931  0.00  0.00    +0.085 A 
ENDROOT
BRANCH   9  10
ATOM     10  N   UNL     1       6.549  -3.906  26.584  0.00  0.00    -0.275 N 
ATOM     11  H   UNL     1       5.739  -3.414  26.942  0.00  0.00    +0.156 HD
ATOM     12  C   UNL     1       6.872  -5.018  27.335  0.00  0.00    +0.255 C 
ATOM     13  O   UNL     1       7.970  -5.556  27.319  0.00  0.00    -0.269 OA
BRANCH  12  14
ATOM     14  C   UNL     1       5.752  -5.552  28.127  0.00  0.00    +0.074 A 
ATOM     15  S   UNL     1       4.701  -6.782  27.546  0.00  0.00    -0.092 S 
ATOM     16  C   UNL     1       3.848  -6.867  29.023  0.00  0.00    +0.046 A 
ATOM     17  C   UNL     1       4.313  -5.944  29.932  0.00  0.00    +0.008 A 
ATOM     18  C   UNL     1       5.405  -5.189  29.414  0.00  0.00    +0.021 A 
ENDBRANCH  12  14
ENDBRANCH   9  10
BRANCH   1  20
ATOM     19  N   UNL     1       7.202  -4.615  22.736  0.00  0.00    -0.298 N 
ATOM     20  C   UNL     1       8.083  -4.465  23.831  0.00  0.00    +0.249 C 
ATOM     21  O   UNL     1       8.907  -5.353  24.073  0.00  0.00    -0.270 OA
BRANCH  19  23
ATOM     22  C   UNL     1       6.268  -5.970  20.869  0.00  0.00    +0.024 C 
ATOM     23  C   UNL     1       7.069  -5.958  22.160  0.00  0.00    +0.104 C 
ENDBRANCH  19  23
BRANCH  19  24
ATOM     24  C   UNL     1       6.234  -3.611  22.329  0.00  0.00    +0.104 C 
ATOM     25  C   UNL     1       4.934  -3.491  23.096  0.00  0.00    +0.024 C 
ENDBRANCH  19  24
ENDBRANCH   1  20
TORSDOF 5
ENDMDL
MODEL 2
REMARK VINA RESULT:      -6.2      3.048      5.286
REMARK  Name = 
REMARK  7 active torsions:
REMARK  status: ('A' for Active; 'I' for Inactive)
REMARK    1  A    between atoms: C_1  and  C_2
REMARK    2  A    between atoms: C_2  and  N_3
REMARK    3  A    between atoms: N_3  and  C_4
REMARK    4  A    between atoms: C_4  and  C_5
REMARK    5  A    between atoms: C_6  and  C_8
REMARK    6  A    between atoms: C_9  and  N_10
REMARK    7  A    between atoms: C_11  and  C_13
REMARK                            x       y       z     vdW  Elec       q    Type
REMARK                         _______ _______ _______ _____ _____    ______ ____
ROOT
ATOM      1  C   UNL     1       7.544   0.117  23.836  0.00  0.00    +0.069 A 
ATOM      2  C   UNL     1       8.443   1.268  23.745  0.00  0.00    -0.023 A 
ATOM      3  C   UNL     1       8.456   2.496  24.627  0.00  0.00    +0.037 C 
ATOM      4  C   UNL     1       9.264   3.647  23.999  0.00  0.00    +0.005 C 
ATOM      5  C   UNL     1      10.619   3.162  23.471  0.00  0.00    +0.005 C 
ATOM      6  C   UNL     1      10.449   2.103  22.375  0.00  0.00    +0.043 C 
ATOM      7  C   UNL     1       9.381   1.117  22.740  0.00  0.00    -0.004 A 
ATOM      8  S   UNL     1       9.188  -0.326  21.874  0.00  0.00    -0.077 S 
ATOM      9  C   UNL     1       7.840  -0.780  22.810  0.00  0.00    +0.085 A 
ENDROOT
BRANCH   9  10
ATOM     10  N   UNL     1       7.373  -2.059  22.574  0.00  0.00    -0.275 N 
ATOM     11  H   UNL     1       6.371  -2.125  22.440  0.00  0.00    +0.156 HD
ATOM     12  C   UNL     1       7.915  -3.205  23.120  0.00  0.00    +0.255 C 
ATOM     13  O   UNL     1       9.000  -3.245  23.684  0.00  0.00    -0.269 OA
BRANCH  12  14
ATOM     14  C   UNL     1       7.095  -4.410  22.917  0.00  0.00    +0.074 A 
ATOM     15  S   UNL     1       6.048  -5.043  24.126  0.00  0.00    -0.092 S 
ATOM     16  C   UNL     1       5.456  -6.265  23.092  0.00  0.00    +0.046 A 
ATOM     17  C   UNL     1       6.073  -6.235  21.863  0.00  0.00    +0.008 A 
ATOM     18  C   UNL     1       7.015  -5.170  21.765  0.00  0.00    +0.021 A 
ENDBRANCH  12  14
ENDBRANCH   9  10
BRANCH   1  20
ATOM     19  N   UNL     1       6.521  -0.726  25.989  0.00  0.00    -0.298 N 
ATOM     20  C   UNL     1       6.421   0.034  24.801  0.00  0.00    +0.249 C 
ATOM     21  O   UNL     1       5.385   0.668  24.571  0.00  0.00    -0.270 OA
BRANCH  19  23
ATOM     22  C   UNL     1       4.573  -2.260  26.209  0.00  0.00    +0.024 C 
ATOM     23  C   UNL     1       5.275  -1.009  26.711  0.00  0.00    +0.104 C 
ENDBRANCH  19  23
BRANCH  19  24
ATOM     24  C   UNL     1       7.708  -1.463  26.384  0.00  0.00    +0.104 C 
ATOM     25  C   UNL     1       8.807  -0.739  27.134  0.00  0.00    +0.024 C 
ENDBRANCH  19  24
ENDBRANCH   1  20
TORSDOF 5
ENDMDL
MODEL 3
REMARK VINA RESULT:      -6.1      2.047      6.212
REMARK  Name = 
REMARK  7 active torsions:
REMARK  status: ('A' for Active; 'I' for Inactive)
REMARK    1  A    between atoms: C_1  and  C_2
REMARK    2  A    between atoms: C_2  and  N_3
REMARK    3  A    between atoms: N_3  and  C_4
REMARK    4  A    between atoms: C_4  and  C_5
REMARK    5  A    between atoms: C_6  and  C_8
REMARK    6  A    between atoms: C_9  and  N_10
REMARK    7  A    between atoms: C_11  and  C_13
REMARK                            x       y       z     vdW  Elec       q    Type
REMARK                         _______ _______ _______ _____ _____    ______ ____
ROOT
ATOM      1  C   UNL     1       7.071  -4.012  25.111  0.00  0.00    +0.069 A 
ATOM      2  C   UNL     1       6.217  -4.553  26.170  0.00  0.00    -0.023 A 
ATOM      3  C   UNL     1       5.714  -5.972  26.309  0.00  0.00    +0.037 C 
ATOM      4  C   UNL     1       4.546  -6.072  27.309  0.00  0.00    +0.005 C 
ATOM      5  C   UNL     1       4.850  -5.317  28.608  0.00  0.00    +0.005 C 
ATOM      6  C   UNL     1       5.073  -3.821  28.349  0.00  0.00    +0.043 C 
ATOM      7  C   UNL     1       5.920  -3.606  27.132  0.00  0.00    -0.004 A 
ATOM      8  S   UNL     1       6.580  -2.086  26.782  0.00  0.00    -0.077 S 
ATOM      9  C   UNL     1       7.271  -2.651  25.332  0.00  0.00    +0.085 A 
ENDROOT
BRANCH   9  10
ATOM     10  N   UNL     1       8.110  -1.753  24.700  0.00  0.00    -0.275 N 
ATOM     11  H   UNL     1       8.813  -1.338  25.301  0.00  0.00    +0.156 HD
ATOM     12  C   UNL     1       7.733  -0.921  23.666  0.00  0.00    +0.255 C 
ATOM     13  O   UNL     1       6.691  -1.043  23.038  0.00  0.00    -0.269 OA
BRANCH  12  14
ATOM     14  C   UNL     1       8.730   0.110  23.332  0.00  0.00    +0.074 A 
ATOM     15  S   UNL     1       9.062   0.600  21.718  0.00  0.00    -0.092 S 
ATOM     16  C   UNL     1      10.159   1.806  22.221  0.00  0.00    +0.046 A 
ATOM     17  C   UNL     1      10.317   1.812  23.588  0.00  0.00    +0.008 A 
ATOM     18  C   UNL     1       9.497   0.836  24.224  0.00  0.00    +0.021 A 
ENDBRANCH  12  14
ENDBRANCH   9  10
BRANCH   1  20
ATOM     19  N   UNL     1       6.700  -4.921  22.781  0.00  0.00    -0.298 N 
ATOM     20  C   UNL     1       7.509  -4.802  23.935  0.00  0.00    +0.249 C 
ATOM     21  O   UNL     1       8.619  -5.344  23.956  0.00  0.00    -0.270 OA
BRANCH  19  23
ATOM     22  C   UNL     1       6.227  -5.905  20.544  0.00  0.00    +0.024 C 
ATOM     23  C   UNL     1       7.061  -5.964  21.813  0.00  0.00    +0.104 C 
ENDBRANCH  19  23
BRANCH  19  24
ATOM     24  C   UNL     1       5.406  -4.281  22.627  0.00  0.00    +0.104 C 
ATOM     25  C   UNL     1       4.176  -4.966  23.186  0.00  0.00    +0.024 C 
ENDBRANCH  19  24
ENDBRANCH   1  20
TORSDOF 5
ENDMDL
MODEL 4
REMARK VINA RESULT:      -5.8      2.084      2.301
REMARK  Name = 
REMARK  7 active torsions:
REMARK  status: ('A' for Active; 'I' for Inactive)
REMARK    1  A    between atoms: C_1  and  C_2
REMARK    2  A    between atoms: C_2  and  N_3
REMARK    3  A    between atoms: N_3  and  C_4
REMARK    4  A    between atoms: C_4  and  C_5
REMARK    5  A    between atoms: C_6  and  C_8
REMARK    6  A    between atoms: C_9  and  N_10
REMARK    7  A    between atoms: C_11  and  C_13
REMARK                            x       y       z     vdW  Elec       q    Type
REMARK                         _______ _______ _______ _____ _____    ______ ____
ROOT
ATOM      1  C   UNL     1       7.996  -1.714  24.153  0.00  0.00    +0.069 A 
ATOM      2  C   UNL     1       8.402  -0.575  23.328  0.00  0.00    -0.023 A 
ATOM      3  C   UNL     1       9.038  -0.614  21.958  0.00  0.00    +0.037 C 
ATOM      4  C   UNL     1       9.670   0.739  21.579  0.00  0.00    +0.005 C 
ATOM      5  C   UNL     1       8.718   1.906  21.865  0.00  0.00    +0.005 C 
ATOM      6  C   UNL     1       8.368   1.992  23.356  0.00  0.00    +0.043 C 
ATOM      7  C   UNL     1       8.093   0.634  23.924  0.00  0.00    -0.004 A 
ATOM      8  S   UNL     1       7.389   0.450  25.453  0.00  0.00    -0.077 S 
ATOM      9  C   UNL     1       7.487  -1.247  25.364  0.00  0.00    +0.085 A 
ENDROOT
BRANCH   9  10
ATOM     10  N   UNL     1       6.851  -1.921  26.389  0.00  0.00    -0.275 N 
ATOM     11  H   UNL     1       7.384  -2.686  26.786  0.00  0.00    +0.156 HD
ATOM     12  C   UNL     1       5.489  -2.122  26.470  0.00  0.00    +0.255 C 
ATOM     13  O   UNL     1       4.670  -1.535  25.776  0.00  0.00    -0.269 OA
BRANCH  12  14
ATOM     14  C   UNL     1       5.085  -3.074  27.518  0.00  0.00    +0.074 A 
ATOM     15  S   UNL     1       5.844  -4.600  27.736  0.00  0.00    -0.092 S 
ATOM     16  C   UNL     1       4.911  -4.961  29.120  0.00  0.00    +0.046 A 
ATOM     17  C   UNL     1       3.999  -3.967  29.391  0.00  0.00    +0.008 A 
ATOM     18  C   UNL     1       4.099  -2.885  28.469  0.00  0.00    +0.021 A 
ENDBRANCH  12  14
ENDBRANCH   9  10
BRANCH   1  20
ATOM     19  N   UNL     1       7.295  -3.866  23.027  0.00  0.00    -0.298 N 
ATOM     20  C   UNL     1       8.243  -3.126  23.770  0.00  0.00    +0.249 C 
ATOM     21  O   UNL     1       9.313  -3.655  24.087  0.00  0.00    -0.270 OA
BRANCH  19  23
ATOM     22  C   UNL     1       7.146  -5.906  21.608  0.00  0.00    +0.024 C 
ATOM     23  C   UNL     1       7.474  -5.322  22.972  0.00  0.00    +0.104 C 
ENDBRANCH  19  23
BRANCH  19  24
ATOM     24  C   UNL     1       6.032  -3.327  22.556  0.00  0.00    +0.104 C 
ATOM     25  C   UNL     1       4.744  -3.809  23.193  0.00  0.00    +0.024 C 
ENDBRANCH  19  24
ENDBRANCH   1  20
TORSDOF 5
ENDMDL
MODEL 5
REMARK VINA RESULT:      -5.7      3.729      5.292
REMARK  Name = 
REMARK  7 active torsions:
REMARK  status: ('A' for Active; 'I' for Inactive)
REMARK    1  A    between atoms: C_1  and  C_2
REMARK    2  A    between atoms: C_2  and  N_3
REMARK    3  A    between atoms: N_3  and  C_4
REMARK    4  A    between atoms: C_4  and  C_5
REMARK    5  A    between atoms: C_6  and  C_8
REMARK    6  A    between atoms: C_9  and  N_10
REMARK    7  A    between atoms: C_11  and  C_13
REMARK                            x       y       z     vdW  Elec       q    Type
REMARK                         _______ _______ _______ _____ _____    ______ ____
ROOT
ATOM      1  C   UNL     1       9.265   1.828  24.514  0.00  0.00    +0.069 A 
ATOM      2  C   UNL     1       9.645   3.218  24.258  0.00  0.00    -0.023 A 
ATOM      3  C   UNL     1      10.852   3.715  23.496  0.00  0.00    +0.037 C 
ATOM      4  C   UNL     1      11.128   5.206  23.765  0.00  0.00    +0.005 C 
ATOM      5  C   UNL     1       9.850   6.045  23.654  0.00  0.00    +0.005 C 
ATOM      6  C   UNL     1       8.799   5.605  24.682  0.00  0.00    +0.043 C 
ATOM      7  C   UNL     1       8.720   4.112  24.767  0.00  0.00    -0.004 A 
ATOM      8  S   UNL     1       7.449   3.346  25.583  0.00  0.00    -0.077 S 
ATOM      9  C   UNL     1       8.105   1.803  25.287  0.00  0.00    +0.085 A 
ENDROOT
BRANCH   9  10
ATOM     10  N   UNL     1       7.293   0.747  25.653  0.00  0.00    -0.275 N 
ATOM     11  H   UNL     1       6.300   0.944  25.614  0.00  0.00    +0.156 HD
ATOM     12  C   UNL     1       7.613  -0.193  26.611  0.00  0.00    +0.255 C 
ATOM     13  O   UNL     1       8.735  -0.338  27.077  0.00  0.00    -0.269 OA
BRANCH  12  14
ATOM     14  C   UNL     1       6.490  -1.065  26.994  0.00  0.00    +0.074 A 
ATOM     15  S   UNL     1       5.089  -0.482  27.802  0.00  0.00    -0.092 S 
ATOM     16  C   UNL     1       4.323  -2.007  27.752  0.00  0.00    +0.046 A 
ATOM     17  C   UNL     1       5.130  -2.962  27.179  0.00  0.00    +0.008 A 
ATOM     18  C   UNL     1       6.375  -2.420  26.746  0.00  0.00    +0.021 A 
ENDBRANCH  12  14
ENDBRANCH   9  10
BRANCH   1  20
ATOM     19  N   UNL     1       9.755  -0.136  22.999  0.00  0.00    -0.298 N 
ATOM     20  C   UNL     1      10.097   0.668  24.111  0.00  0.00    +0.249 C 
ATOM     21  O   UNL     1      11.126   0.418  24.746  0.00  0.00    -0.270 OA
BRANCH  19  23
ATOM     22  C   UNL     1       9.814  -2.516  23.725  0.00  0.00    +0.024 C 
ATOM     23  C   UNL     1      10.439  -1.427  22.869  0.00  0.00    +0.104 C 
ENDBRANCH  19  23
BRANCH  19  24
ATOM     24  C   UNL     1       8.601   0.101  22.150  0.00  0.00    +0.104 C 
ATOM     25  C   UNL     1       8.635   1.253  21.167  0.00  0.00    +0.024 C 
ENDBRANCH  19  24
ENDBRANCH   1  20
TORSDOF 5
ENDMDL
MODEL 6
REMARK VINA RESULT:      -5.6      4.304      6.734
REMARK  Name = 
REMARK  7 active torsions:
REMARK  status: ('A' for Active; 'I' for Inactive)
REMARK    1  A    between atoms: C_1  and  C_2
REMARK    2  A    between atoms: C_2  and  N_3
REMARK    3  A    between atoms: N_3  and  C_4
REMARK    4  A    between atoms: C_4  and  C_5
REMARK    5  A    between atoms: C_6  and  C_8
REMARK    6  A    between atoms: C_9  and  N_10
REMARK    7  A    between atoms: C_11  and  C_13
REMARK                            x       y       z     vdW  Elec       q    Type
REMARK                         _______ _______ _______ _____ _____    ______ ____
ROOT
ATOM      1  C   UNL     1       8.587   2.460  24.710  0.00  0.00    +0.069 A 
ATOM      2  C   UNL     1       9.412   3.603  24.317  0.00  0.00    -0.023 A 
ATOM      3  C   UNL     1       9.098   5.070  24.502  0.00  0.00    +0.037 C 
ATOM      4  C   UNL     1       9.999   5.965  23.630  0.00  0.00    +0.005 C 
ATOM      5  C   UNL     1      11.472   5.557  23.737  0.00  0.00    +0.005 C 
ATOM      6  C   UNL     1      11.692   4.118  23.253  0.00  0.00    +0.043 C 
ATOM      7  C   UNL     1      10.616   3.208  23.762  0.00  0.00    -0.004 A 
ATOM      8  S   UNL     1      10.764   1.525  23.647  0.00  0.00    -0.077 S 
ATOM      9  C   UNL     1       9.222   1.280  24.325  0.00  0.00    +0.085 A 
ENDROOT
BRANCH   9  10
ATOM     10  N   UNL     1       8.912  -0.037  24.604  0.00  0.00    -0.275 N 
ATOM     11  H   UNL     1       9.545  -0.491  25.252  0.00  0.00    +0.156 HD
ATOM     12  C   UNL     1       8.347  -0.918  23.704  0.00  0.00    +0.255 C 
ATOM     13  O   UNL     1       7.845  -0.579  22.642  0.00  0.00    -0.269 OA
BRANCH  12  14
ATOM     14  C   UNL     1       8.344  -2.318  24.158  0.00  0.00    +0.074 A 
ATOM     15  S   UNL     1       6.906  -3.248  24.307  0.00  0.00    -0.092 S 
ATOM     16  C   UNL     1       7.764  -4.660  24.739  0.00  0.00    +0.046 A 
ATOM     17  C   UNL     1       9.117  -4.427  24.821  0.00  0.00    +0.008 A 
ATOM     18  C   UNL     1       9.448  -3.081  24.489  0.00  0.00    +0.021 A 
ENDBRANCH  12  14
ENDBRANCH   9  10
BRANCH   1  20
ATOM     19  N   UNL     1       6.074   2.624  24.484  0.00  0.00    -0.298 N 
ATOM     20  C   UNL     1       7.232   2.597  25.296  0.00  0.00    +0.249 C 
ATOM     21  O   UNL     1       7.112   2.662  26.524  0.00  0.00    -0.270 OA
BRANCH  19  23
ATOM     22  C   UNL     1       4.700   4.593  25.142  0.00  0.00    +0.024 C 
ATOM     23  C   UNL     1       4.826   3.079  25.109  0.00  0.00    +0.104 C 
ENDBRANCH  19  23
BRANCH  19  24
ATOM     24  C   UNL     1       6.094   2.500  23.037  0.00  0.00    +0.104 C 
ATOM     25  C   UNL     1       6.442   3.714  22.200  0.00  0.00    +0.024 C 
ENDBRANCH  19  24
ENDBRANCH   1  20
TORSDOF 5
ENDMDL
MODEL 7
REMARK VINA RESULT:      -5.6      2.481      2.863
REMARK  Name = 
REMARK  7 active torsions:
REMARK  status: ('A' for Active; 'I' for Inactive)
REMARK    1  A    between atoms: C_1  and  C_2
REMARK    2  A    between atoms: C_2  and  N_3
REMARK    3  A    between atoms: N_3  and  C_4
REMARK    4  A    between atoms: C_4  and  C_5
REMARK    5  A    between atoms: C_6  and  C_8
REMARK    6  A    between atoms: C_9  and  N_10
REMARK    7  A    between atoms: C_11  and  C_13
REMARK                            x       y       z     vdW  Elec       q    Type
REMARK                         _______ _______ _______ _____ _____    ______ ____
ROOT
ATOM      1  C   UNL     1       7.298  -2.027  24.278  0.00  0.00    +0.069 A 
ATOM      2  C   UNL     1       8.236  -1.261  23.458  0.00  0.00    -0.023 A 
ATOM      3  C   UNL     1       8.530  -1.442  21.986  0.00  0.00    +0.037 C 
ATOM      4  C   UNL     1       9.831  -0.731  21.568  0.00  0.00    +0.005 C 
ATOM      5  C   UNL     1       9.893   0.700  22.112  0.00  0.00    +0.005 C 
ATOM      6  C   UNL     1       9.861   0.719  23.646  0.00  0.00    +0.043 C 
ATOM      7  C   UNL     1       8.849  -0.250  24.176  0.00  0.00    -0.004 A 
ATOM      8  S   UNL     1       8.380  -0.225  25.803  0.00  0.00    -0.077 S 
ATOM      9  C   UNL     1       7.355  -1.568  25.593  0.00  0.00    +0.085 A 
ENDROOT
BRANCH   9  10
ATOM     10  N   UNL     1       6.564  -1.872  26.685  0.00  0.00    -0.275 N 
ATOM     11  H   UNL     1       6.839  -2.708  27.186  0.00  0.00    +0.156 HD
ATOM     12  C   UNL     1       5.210  -1.621  26.766  0.00  0.00    +0.255 C 
ATOM     13  O   UNL     1       4.602  -0.900  25.988  0.00  0.00    -0.269 OA
BRANCH  12  14
ATOM     14  C   UNL     1       4.551  -2.256  27.920  0.00  0.00    +0.074 A 
ATOM     15  S   UNL     1       4.621  -3.947  28.221  0.00  0.00    -0.092 S 
ATOM     16  C   UNL     1       3.766  -3.806  29.691  0.00  0.00    +0.046 A 
ATOM     17  C   UNL     1       3.384  -2.507  29.934  0.00  0.00    +0.008 A 
ATOM     18  C   UNL     1       3.835  -1.619  28.915  0.00  0.00    +0.021 A 
ENDBRANCH  12  14
ENDBRANCH   9  10
BRANCH   1  20
ATOM     19  N   UNL     1       7.047  -4.506  23.852  0.00  0.00    -0.298 N 
ATOM     20  C   UNL     1       6.533  -3.191  23.769  0.00  0.00    +0.249 C 
ATOM     21  O   UNL     1       5.411  -3.008  23.288  0.00  0.00    -0.270 OA
BRANCH  19  23
ATOM     22  C   UNL     1       7.109  -5.835  21.748  0.00  0.00    +0.024 C 
ATOM     23  C   UNL     1       6.381  -5.539  23.049  0.00  0.00    +0.104 C 
ENDBRANCH  19  23
BRANCH  19  24
ATOM     24  C   UNL     1       8.328  -4.842  24.448  0.00  0.00    +0.104 C 
ATOM     25  C   UNL     1       8.374  -5.264  25.902  0.00  0.00    +0.024 C 
ENDBRANCH  19  24
ENDBRANCH   1  20
TORSDOF 5
ENDMDL
MODEL 8
REMARK VINA RESULT:      -5.5      4.362      6.970
REMARK  Name = 
REMARK  7 active torsions:
REMARK  status: ('A' for Active; 'I' for Inactive)
REMARK    1  A    between atoms: C_1  and  C_2
REMARK    2  A    between atoms: C_2  and  N_3
REMARK    3  A    between atoms: N_3  and  C_4
REMARK    4  A    between atoms: C_4  and  C_5
REMARK    5  A    between atoms: C_6  and  C_8
REMARK    6  A    between atoms: C_9  and  N_10
REMARK    7  A    between atoms: C_11  and  C_13
REMARK                            x       y       z     vdW  Elec       q    Type
REMARK                         _______ _______ _______ _____ _____    ______ ____
ROOT
ATOM      1  C   UNL     1       8.243   2.473  23.891  0.00  0.00    +0.069 A 
ATOM      2  C   UNL     1       9.085   3.664  23.767  0.00  0.00    -0.023 A 
ATOM      3  C   UNL     1       8.644   5.109  23.811  0.00  0.00    +0.037 C 
ATOM      4  C   UNL     1       9.727   6.058  23.264  0.00  0.00    +0.005 C 
ATOM      5  C   UNL     1      11.106   5.739  23.852  0.00  0.00    +0.005 C 
ATOM      6  C   UNL     1      11.554   4.316  23.494  0.00  0.00    +0.043 C 
ATOM      7  C   UNL     1      10.424   3.343  23.641  0.00  0.00    -0.004 A 
ATOM      8  S   UNL     1      10.698   1.672  23.613  0.00  0.00    -0.077 S 
ATOM      9  C   UNL     1       9.035   1.334  23.757  0.00  0.00    +0.085 A 
ENDROOT
BRANCH   9  10
ATOM     10  N   UNL     1       8.728  -0.000  23.944  0.00  0.00    -0.275 N 
ATOM     11  H   UNL     1       8.959  -0.361  24.862  0.00  0.00    +0.156 HD
ATOM     12  C   UNL     1       8.789  -0.965  22.960  0.00  0.00    +0.255 C 
ATOM     13  O   UNL     1       8.896  -0.717  21.767  0.00  0.00    -0.269 OA
BRANCH  12  14
ATOM     14  C   UNL     1       8.656  -2.343  23.463  0.00  0.00    +0.074 A 
ATOM     15  S   UNL     1       7.530  -3.468  22.814  0.00  0.00    -0.092 S 
ATOM     16  C   UNL     1       8.089  -4.732  23.816  0.00  0.00    +0.046 A 
ATOM     17  C   UNL     1       9.080  -4.304  24.669  0.00  0.00    +0.008 A 
ATOM     18  C   UNL     1       9.403  -2.931  24.466  0.00  0.00    +0.021 A 
ENDBRANCH  12  14
ENDBRANCH   9  10
BRANCH   1  20
ATOM     19  N   UNL     1       6.120   2.649  25.253  0.00  0.00    -0.298 N 
ATOM     20  C   UNL     1       6.765   2.528  24.001  0.00  0.00    +0.249 C 
ATOM     21  O   UNL     1       6.085   2.494  22.970  0.00  0.00    -0.270 OA
BRANCH  19  23
ATOM     22  C   UNL     1       3.838   3.640  25.306  0.00  0.00    +0.024 C 
ATOM     23  C   UNL     1       4.679   2.375  25.296  0.00  0.00    +0.104 C 
ENDBRANCH  19  23
BRANCH  19  24
ATOM     24  C   UNL     1       6.822   2.753  26.521  0.00  0.00    +0.104 C 
ATOM     25  C   UNL     1       7.019   4.121  27.141  0.00  0.00    +0.024 C 
ENDBRANCH  19  24
ENDBRANCH   1  20
TORSDOF 5
ENDMDL
MODEL 9
REMARK VINA RESULT:      -5.5      3.358      4.996
REMARK  Name = 
REMARK  7 active torsions:
REMARK  status: ('A' for Active; 'I' for Inactive)
REMARK    1  A    between atoms: C_1  and  C_2
REMARK    2  A    between atoms: C_2  and  N_3
REMARK    3  A    between atoms: N_3  and  C_4
REMARK    4  A    between atoms: C_4  and  C_5
REMARK    5  A    between atoms: C_6  and  C_8
REMARK    6  A    between atoms: C_9  and  N_10
REMARK    7  A    between atoms: C_11  and  C_13
REMARK                            x       y       z     vdW  Elec       q    Type
REMARK                         _______ _______ _______ _____ _____    ______ ____
ROOT
ATOM      1  C   UNL     1       6.709  -0.494  24.093  0.00  0.00    +0.069 A 
ATOM      2  C   UNL     1       7.721   0.253  23.345  0.00  0.00    -0.023 A 
ATOM      3  C   UNL     1       8.106   1.704  23.519  0.00  0.00    +0.037 C 
ATOM      4  C   UNL     1       8.913   2.233  22.318  0.00  0.00    +0.005 C 
ATOM      5  C   UNL     1      10.032   1.265  21.920  0.00  0.00    +0.005 C 
ATOM      6  C   UNL     1       9.472  -0.099  21.500  0.00  0.00    +0.043 C 
ATOM      7  C   UNL     1       8.382  -0.542  22.427  0.00  0.00    -0.004 A 
ATOM      8  S   UNL     1       7.795  -2.131  22.393  0.00  0.00    -0.077 S 
ATOM      9  C   UNL     1       6.637  -1.795  23.596  0.00  0.00    +0.085 A 
ENDROOT
BRANCH   9  10
ATOM     10  N   UNL     1       5.950  -2.898  24.065  0.00  0.00    -0.275 N 
ATOM     11  H   UNL     1       6.363  -3.338  24.879  0.00  0.00    +0.156 HD
ATOM     12  C   UNL     1       5.261  -3.790  23.269  0.00  0.00    +0.255 C 
ATOM     13  O   UNL     1       4.984  -3.584  22.096  0.00  0.00    -0.269 OA
BRANCH  12  14
ATOM     14  C   UNL     1       4.826  -5.008  23.972  0.00  0.00    +0.074 A 
ATOM     15  S   UNL     1       3.568  -6.024  23.389  0.00  0.00    -0.092 S 
ATOM     16  C   UNL     1       3.788  -7.159  24.645  0.00  0.00    +0.046 A 
ATOM     17  C   UNL     1       4.765  -6.758  25.527  0.00  0.00    +0.008 A 
ATOM     18  C   UNL     1       5.358  -5.522  25.140  0.00  0.00    +0.021 A 
ENDBRANCH  12  14
ENDBRANCH   9  10
BRANCH   1  20
ATOM     19  N   UNL     1       5.984  -0.153  26.491  0.00  0.00    -0.298 N 
ATOM     20  C   UNL     1       5.828   0.124  25.113  0.00  0.00    +0.249 C 
ATOM     21  O   UNL     1       4.956   0.920  24.750  0.00  0.00    -0.270 OA
BRANCH  19  23
ATOM     22  C   UNL     1       4.245  -0.946  28.085  0.00  0.00    +0.024 C 
ATOM     23  C   UNL     1       4.888   0.239  27.383  0.00  0.00    +0.104 C 
ENDBRANCH  19  23
BRANCH  19  24
ATOM     24  C   UNL     1       7.010  -1.028  27.032  0.00  0.00    +0.104 C 
ATOM     25  C   UNL     1       8.432  -0.517  27.137  0.00  0.00    +0.024 C 
ENDBRANCH  19  24
ENDBRANCH   1  20
TORSDOF 5
ENDMDL
