MODEL 1
REMARK VINA RESULT:      -7.7      0.000      0.000
REMARK  Name = 
REMARK  4 active torsions:
REMARK  status: ('A' for Active; 'I' for Inactive)
REMARK    1  A    between atoms: C_2  and  N_3
REMARK    2  A    between atoms: C_2  and  C_4
REMARK    3  A    between atoms: C_2  and  C_10
REMARK    4  A    between atoms: C_13  and  C_16
REMARK                            x       y       z     vdW  Elec       q    Type
REMARK                         _______ _______ _______ _____ _____    ______ ____
ROOT
ATOM      1  C   UNL     1       9.170  -2.478  23.599  0.00  0.00    -0.026 A 
ATOM      2  C   UNL     1       7.785  -2.332  23.738  0.00  0.00    +0.006 A 
ATOM      3  C   UNL     1       7.069  -3.153  24.619  0.00  0.00    +0.010 A 
ATOM      4  C   UNL     1       7.708  -4.138  25.396  0.00  0.00    +0.003 A 
ATOM      5  C   UNL     1       9.104  -4.231  25.287  0.00  0.00    +0.010 A 
ATOM      6  C   UNL     1       9.824  -3.420  24.406  0.00  0.00    +0.006 A 
ENDROOT
BRANCH   4   7
ATOM      7  C   UNL     1       6.933  -5.075  26.218  0.00  0.00    +0.102 A 
ATOM      8  N   UNL     1       7.206  -5.125  27.559  0.00  0.00    -0.233 NA
ATOM      9  C   UNL     1       6.437  -5.905  28.346  0.00  0.00    +0.224 A 
ATOM     10  N   UNL     1       5.404  -6.689  27.984  0.00  0.00    -0.216 NA
ATOM     11  C   UNL     1       5.194  -6.619  26.661  0.00  0.00    +0.161 A 
ATOM     12  N   UNL     1       4.227  -7.278  25.961  0.00  0.00    -0.329 N 
ATOM     13  H   UNL     1       3.544  -7.904  26.359  0.00  0.00    +0.168 HD
ATOM     14  C   UNL     1       4.357  -6.926  24.647  0.00  0.00    +0.198 A 
ATOM     15  N   UNL     1       5.344  -6.074  24.466  0.00  0.00    -0.232 NA
ATOM     16  C   UNL     1       5.883  -5.867  25.723  0.00  0.00    +0.134 A 
ENDBRANCH   4   7
BRANCH   1  17
ATOM     17  C   UNL     1       9.936  -1.701  22.532  0.00  0.00    +0.112 C 
BRANCH  17  18
ATOM     18  C   UNL     1      10.066  -0.226  22.914  0.00  0.00    -0.026 A 
ATOM     19  C   UNL     1      10.479   0.207  24.184  0.00  0.00    +0.005 A 
ATOM     20  C   UNL     1      10.686   1.564  24.446  0.00  0.00    +0.000 A 
ATOM     21  C   UNL     1      10.472   2.512  23.449  0.00  0.00    +0.000 A 
ATOM     22  C   UNL     1      10.030   2.109  22.193  0.00  0.00    +0.000 A 
ATOM     23  C   UNL     1       9.821   0.754  21.931  0.00  0.00    +0.005 A 
ENDBRANCH  17  18
BRANCH  17  24
ATOM     24  N   UNL     1       9.328  -1.930  21.214  0.00  0.00    -0.320 NA
ATOM     25  H   UNL     1       9.662  -2.829  20.869  0.00  0.00    +0.119 HD
ATOM     26  H   UNL     1       8.326  -2.052  21.344  0.00  0.00    +0.119 HD
ENDBRANCH  17  24
ENDBRANCH   1  17
TORSDOF 4
ENDMDL
MODEL 2
REMARK VINA RESULT:      -7.5      2.357      3.685
REMARK  Name = 
REMARK  4 active torsions:
REMARK  status: ('A' for Active; 'I' for Inactive)
REMARK    1  A    between atoms: C_2  and  N_3
REMARK    2  A    between atoms: C_2  and  C_4
REMARK    3  A    between atoms: C_2  and  C_10
REMARK    4  A    between atoms: C_13  and  C_16
REMARK                            x       y       z     vdW  Elec       q    Type
REMARK                         _______ _______ _______ _____ _____    ______ ____
ROOT
ATOM      1  C   UNL     1       9.544   0.972  23.640  0.00  0.00    -0.026 A 
ATOM      2  C   UNL     1       8.317   0.411  23.270  0.00  0.00    +0.006 A 
ATOM      3  C   UNL     1       7.738  -0.604  24.043  0.00  0.00    +0.010 A 
ATOM      4  C   UNL     1       8.356  -1.086  25.213  0.00  0.00    +0.003 A 
ATOM      5  C   UNL     1       9.557  -0.471  25.600  0.00  0.00    +0.010 A 
ATOM      6  C   UNL     1      10.143   0.536  24.831  0.00  0.00    +0.006 A 
ENDROOT
BRANCH   4   7
ATOM      7  C   UNL     1       7.806  -2.234  25.943  0.00  0.00    +0.102 A 
ATOM      8  N   UNL     1       6.668  -2.037  26.679  0.00  0.00    -0.233 NA
ATOM      9  C   UNL     1       6.091  -3.101  27.275  0.00  0.00    +0.224 A 
ATOM     10  N   UNL     1       6.500  -4.383  27.262  0.00  0.00    -0.216 NA
ATOM     11  C   UNL     1       7.627  -4.516  26.547  0.00  0.00    +0.161 A 
ATOM     12  N   UNL     1       8.309  -5.675  26.322  0.00  0.00    -0.329 N 
ATOM     13  H   UNL     1       8.044  -6.584  26.669  0.00  0.00    +0.168 HD
ATOM     14  C   UNL     1       9.392  -5.373  25.545  0.00  0.00    +0.198 A 
ATOM     15  N   UNL     1       9.438  -4.091  25.252  0.00  0.00    -0.232 NA
ATOM     16  C   UNL     1       8.335  -3.533  25.873  0.00  0.00    +0.134 A 
ENDBRANCH   4   7
BRANCH   1  17
ATOM     17  C   UNL     1      10.260   1.962  22.725  0.00  0.00    +0.112 C 
BRANCH  17  18
ATOM     18  C   UNL     1      10.357   3.342  23.379  0.00  0.00    -0.026 A 
ATOM     19  C   UNL     1      11.511   4.140  23.322  0.00  0.00    +0.005 A 
ATOM     20  C   UNL     1      11.510   5.438  23.842  0.00  0.00    +0.000 A 
ATOM     21  C   UNL     1      10.362   5.955  24.437  0.00  0.00    +0.000 A 
ATOM     22  C   UNL     1       9.219   5.169  24.535  0.00  0.00    +0.000 A 
ATOM     23  C   UNL     1       9.219   3.873  24.017  0.00  0.00    +0.005 A 
ENDBRANCH  17  18
BRANCH  17  24
ATOM     24  N   UNL     1       9.624   1.968  21.400  0.00  0.00    -0.320 NA
ATOM     25  H   UNL     1      10.155   1.341  20.798  0.00  0.00    +0.119 HD
ATOM     26  H   UNL     1       8.706   1.538  21.488  0.00  0.00    +0.119 HD
ENDBRANCH  17  24
ENDBRANCH   1  17
TORSDOF 4
ENDMDL
MODEL 3
REMARK VINA RESULT:      -7.4      0.855      2.019
REMARK  Name = 
REMARK  4 active torsions:
REMARK  status: ('A' for Active; 'I' for Inactive)
REMARK    1  A    between atoms: C_2  and  N_3
REMARK    2  A    between atoms: C_2  and  C_4
REMARK    3  A    between atoms: C_2  and  C_10
REMARK    4  A    between atoms: C_13  and  C_16
REMARK                            x       y       z     vdW  Elec       q    Type
REMARK                         _______ _______ _______ _____ _____    ______ ____
ROOT
ATOM      1  C   UNL     1       8.926  -2.283  23.545  0.00  0.00    -0.026 A 
ATOM      2  C   UNL     1       7.566  -2.128  23.254  0.00  0.00    +0.006 A 
ATOM      3  C   UNL     1       6.632  -3.073  23.698  0.00  0.00    +0.010 A 
ATOM      4  C   UNL     1       7.019  -4.197  24.452  0.00  0.00    +0.003 A 
ATOM      5  C   UNL     1       8.379  -4.306  24.784  0.00  0.00    +0.010 A 
ATOM      6  C   UNL     1       9.316  -3.371  24.339  0.00  0.00    +0.006 A 
ENDROOT
BRANCH   4   7
ATOM      7  C   UNL     1       6.053  -5.245  24.802  0.00  0.00    +0.102 A 
ATOM      8  N   UNL     1       5.339  -5.821  23.785  0.00  0.00    -0.233 NA
ATOM      9  C   UNL     1       4.521  -6.853  24.074  0.00  0.00    +0.224 A 
ATOM     10  N   UNL     1       4.282  -7.414  25.274  0.00  0.00    -0.216 NA
ATOM     11  C   UNL     1       4.987  -6.799  26.235  0.00  0.00    +0.161 A 
ATOM     12  N   UNL     1       4.990  -7.113  27.562  0.00  0.00    -0.329 N 
ATOM     13  H   UNL     1       4.455  -7.856  27.985  0.00  0.00    +0.168 HD
ATOM     14  C   UNL     1       5.844  -6.251  28.189  0.00  0.00    +0.198 A 
ATOM     15  N   UNL     1       6.396  -5.409  27.341  0.00  0.00    -0.232 NA
ATOM     16  C   UNL     1       5.870  -5.738  26.104  0.00  0.00    +0.134 A 
ENDBRANCH   4   7
BRANCH   1  17
ATOM     17  C   UNL     1       9.968  -1.349  22.935  0.00  0.00    +0.112 C 
BRANCH  17  18
ATOM     18  C   UNL     1       9.586   0.116  23.154  0.00  0.00    -0.026 A 
ATOM     19  C   UNL     1       9.622   0.741  24.411  0.00  0.00    +0.005 A 
ATOM     20  C   UNL     1       9.369   2.110  24.537  0.00  0.00    +0.000 A 
ATOM     21  C   UNL     1       9.065   2.874  23.414  0.00  0.00    +0.000 A 
ATOM     22  C   UNL     1       8.990   2.269  22.164  0.00  0.00    +0.000 A 
ATOM     23  C   UNL     1       9.241   0.902  22.036  0.00  0.00    +0.005 A 
ENDBRANCH  17  18
BRANCH  17  24
ATOM     24  N   UNL     1      10.199  -1.707  21.529  0.00  0.00    -0.320 NA
ATOM     25  H   UNL     1      10.455  -0.856  21.030  0.00  0.00    +0.119 HD
ATOM     26  H   UNL     1      11.025  -2.299  21.485  0.00  0.00    +0.119 HD
ENDBRANCH  17  24
ENDBRANCH   1  17
TORSDOF 4
ENDMDL
MODEL 4
REMARK VINA RESULT:      -7.3      3.953      9.205
REMARK  Name = 
REMARK  4 active torsions:
REMARK  status: ('A' for Active; 'I' for Inactive)
REMARK    1  A    between atoms: C_2  and  N_3
REMARK    2  A    between atoms: C_2  and  C_4
REMARK    3  A    between atoms: C_2  and  C_10
REMARK    4  A    between atoms: C_13  and  C_16
REMARK                            x       y       z     vdW  Elec       q    Type
REMARK                         _______ _______ _______ _____ _____    ______ ____
ROOT
ATOM      1  C   UNL     1       9.073   0.128  22.551  0.00  0.00    -0.026 A 
ATOM      2  C   UNL     1       9.677   0.364  23.792  0.00  0.00    +0.006 A 
ATOM      3  C   UNL     1       9.882   1.674  24.244  0.00  0.00    +0.010 A 
ATOM      4  C   UNL     1       9.487   2.789  23.481  0.00  0.00    +0.003 A 
ATOM      5  C   UNL     1       8.832   2.533  22.267  0.00  0.00    +0.010 A 
ATOM      6  C   UNL     1       8.629   1.230  21.807  0.00  0.00    +0.006 A 
ENDROOT
BRANCH   4   7
ATOM      7  C   UNL     1       9.822   4.154  23.905  0.00  0.00    +0.102 A 
ATOM      8  N   UNL     1       8.872   4.861  24.594  0.00  0.00    -0.233 NA
ATOM      9  C   UNL     1       9.196   6.076  25.079  0.00  0.00    +0.224 A 
ATOM     10  N   UNL     1      10.367   6.732  24.964  0.00  0.00    -0.216 NA
ATOM     11  C   UNL     1      11.251   6.007  24.264  0.00  0.00    +0.161 A 
ATOM     12  N   UNL     1      12.533   6.365  23.965  0.00  0.00    -0.329 N 
ATOM     13  H   UNL     1      12.976   7.228  24.239  0.00  0.00    +0.168 HD
ATOM     14  C   UNL     1      13.089   5.345  23.245  0.00  0.00    +0.198 A 
ATOM     15  N   UNL     1      12.243   4.352  23.074  0.00  0.00    -0.232 NA
ATOM     16  C   UNL     1      11.080   4.749  23.709  0.00  0.00    +0.134 A 
ENDBRANCH   4   7
BRANCH   1  17
ATOM     17  C   UNL     1       8.987  -1.285  21.979  0.00  0.00    +0.112 C 
BRANCH  17  18
ATOM     18  C   UNL     1       8.030  -2.152  22.799  0.00  0.00    -0.026 A 
ATOM     19  C   UNL     1       8.460  -3.206  23.621  0.00  0.00    +0.005 A 
ATOM     20  C   UNL     1       7.554  -3.896  24.433  0.00  0.00    +0.000 A 
ATOM     21  C   UNL     1       6.205  -3.552  24.429  0.00  0.00    +0.000 A 
ATOM     22  C   UNL     1       5.752  -2.533  23.598  0.00  0.00    +0.000 A 
ATOM     23  C   UNL     1       6.655  -1.844  22.785  0.00  0.00    +0.005 A 
ENDBRANCH  17  18
BRANCH  17  24
ATOM     24  N   UNL     1      10.336  -1.849  21.836  0.00  0.00    -0.320 NA
ATOM     25  H   UNL     1      10.421  -2.215  20.888  0.00  0.00    +0.119 HD
ATOM     26  H   UNL     1      11.007  -1.085  21.885  0.00  0.00    +0.119 HD
ENDBRANCH  17  24
ENDBRANCH   1  17
TORSDOF 4
ENDMDL
MODEL 5
REMARK VINA RESULT:      -7.3      3.651      8.602
REMARK  Name = 
REMARK  4 active torsions:
REMARK  status: ('A' for Active; 'I' for Inactive)
REMARK    1  A    between atoms: C_2  and  N_3
REMARK    2  A    between atoms: C_2  and  C_4
REMARK    3  A    between atoms: C_2  and  C_10
REMARK    4  A    between atoms: C_13  and  C_16
REMARK                            x       y       z     vdW  Elec       q    Type
REMARK                         _______ _______ _______ _____ _____    ______ ____
ROOT
ATOM      1  C   UNL     1       9.821  -0.979  23.162  0.00  0.00    -0.026 A 
ATOM      2  C   UNL     1       9.724  -0.137  22.048  0.00  0.00    +0.006 A 
ATOM      3  C   UNL     1       9.956   1.239  22.175  0.00  0.00    +0.010 A 
ATOM      4  C   UNL     1      10.300   1.819  23.410  0.00  0.00    +0.003 A 
ATOM      5  C   UNL     1      10.449   0.952  24.504  0.00  0.00    +0.010 A 
ATOM      6  C   UNL     1      10.214  -0.419  24.386  0.00  0.00    +0.006 A 
ENDROOT
BRANCH   4   7
ATOM      7  C   UNL     1      10.415   3.275  23.557  0.00  0.00    +0.102 A 
ATOM      8  N   UNL     1      11.647   3.842  23.366  0.00  0.00    -0.233 NA
ATOM      9  C   UNL     1      11.752   5.186  23.398  0.00  0.00    +0.224 A 
ATOM     10  N   UNL     1      10.780   6.091  23.615  0.00  0.00    -0.216 NA
ATOM     11  C   UNL     1       9.601   5.484  23.816  0.00  0.00    +0.161 A 
ATOM     12  N   UNL     1       8.407   6.096  24.058  0.00  0.00    -0.329 N 
ATOM     13  H   UNL     1       8.265   7.093  24.113  0.00  0.00    +0.168 HD
ATOM     14  C   UNL     1       7.462   5.119  24.198  0.00  0.00    +0.198 A 
ATOM     15  N   UNL     1       7.979   3.918  24.052  0.00  0.00    -0.232 NA
ATOM     16  C   UNL     1       9.325   4.125  23.809  0.00  0.00    +0.134 A 
ENDBRANCH   4   7
BRANCH   1  17
ATOM     17  C   UNL     1       9.418  -2.448  23.070  0.00  0.00    +0.112 C 
BRANCH  17  18
ATOM     18  C   UNL     1       7.897  -2.603  23.114  0.00  0.00    -0.026 A 
ATOM     19  C   UNL     1       7.171  -3.335  22.160  0.00  0.00    +0.005 A 
ATOM     20  C   UNL     1       5.795  -3.536  22.308  0.00  0.00    +0.000 A 
ATOM     21  C   UNL     1       5.121  -3.001  23.403  0.00  0.00    +0.000 A 
ATOM     22  C   UNL     1       5.815  -2.244  24.341  0.00  0.00    +0.000 A 
ATOM     23  C   UNL     1       7.188  -2.041  24.194  0.00  0.00    +0.005 A 
ENDBRANCH  17  18
BRANCH  17  24
ATOM     24  N   UNL     1      10.132  -3.228  24.091  0.00  0.00    -0.320 NA
ATOM     25  H   UNL     1       9.434  -3.661  24.694  0.00  0.00    +0.119 HD
ATOM     26  H   UNL     1      10.600  -4.003  23.627  0.00  0.00    +0.119 HD
ENDBRANCH  17  24
ENDBRANCH   1  17
TORSDOF 4
ENDMDL
MODEL 6
REMARK VINA RESULT:      -7.2      2.666      7.987
REMARK  Name = 
REMARK  4 active torsions:
REMARK  status: ('A' for Active; 'I' for Inactive)
REMARK    1  A    between atoms: C_2  and  N_3
REMARK    2  A    between atoms: C_2  and  C_4
REMARK    3  A    between atoms: C_2  and  C_10
REMARK    4  A    between atoms: C_13  and  C_16
REMARK                            x       y       z     vdW  Elec       q    Type
REMARK                         _______ _______ _______ _____ _____    ______ ____
ROOT
ATOM      1  C   UNL     1       8.686  -3.426  24.065  0.00  0.00    -0.026 A 
ATOM      2  C   UNL     1       8.296  -3.069  22.769  0.00  0.00    +0.006 A 
ATOM      3  C   UNL     1       8.153  -1.720  22.418  0.00  0.00    +0.010 A 
ATOM      4  C   UNL     1       8.400  -0.685  23.340  0.00  0.00    +0.003 A 
ATOM      5  C   UNL     1       8.846  -1.061  24.617  0.00  0.00    +0.010 A 
ATOM      6  C   UNL     1       8.986  -2.403  24.976  0.00  0.00    +0.006 A 
ENDROOT
BRANCH   4   7
ATOM      7  C   UNL     1       8.124   0.715  22.999  0.00  0.00    +0.102 A 
ATOM      8  N   UNL     1       6.852   1.039  22.608  0.00  0.00    -0.233 NA
ATOM      9  C   UNL     1       6.554   2.335  22.388  0.00  0.00    +0.224 A 
ATOM     10  N   UNL     1       7.367   3.404  22.488  0.00  0.00    -0.216 NA
ATOM     11  C   UNL     1       8.602   3.030  22.851  0.00  0.00    +0.161 A 
ATOM     12  N   UNL     1       9.671   3.853  23.050  0.00  0.00    -0.329 N 
ATOM     13  H   UNL     1       9.660   4.856  22.948  0.00  0.00    +0.168 HD
ATOM     14  C   UNL     1      10.732   3.073  23.415  0.00  0.00    +0.198 A 
ATOM     15  N   UNL     1      10.403   1.799  23.471  0.00  0.00    -0.232 NA
ATOM     16  C   UNL     1       9.066   1.751  23.120  0.00  0.00    +0.134 A 
ENDBRANCH   4   7
BRANCH   1  17
ATOM     17  C   UNL     1       8.692  -4.888  24.504  0.00  0.00    +0.112 C 
BRANCH  17  18
ATOM     18  C   UNL     1       7.523  -5.183  25.445  0.00  0.00    -0.026 A 
ATOM     19  C   UNL     1       6.220  -5.445  24.994  0.00  0.00    +0.005 A 
ATOM     20  C   UNL     1       5.212  -5.816  25.890  0.00  0.00    +0.000 A 
ATOM     21  C   UNL     1       5.487  -5.921  27.251  0.00  0.00    +0.000 A 
ATOM     22  C   UNL     1       6.763  -5.633  27.724  0.00  0.00    +0.000 A 
ATOM     23  C   UNL     1       7.769  -5.261  26.831  0.00  0.00    +0.005 A 
ENDBRANCH  17  18
BRANCH  17  24
ATOM     24  N   UNL     1      10.009  -5.240  25.053  0.00  0.00    -0.320 NA
ATOM     25  H   UNL     1       9.866  -5.941  25.779  0.00  0.00    +0.119 HD
ATOM     26  H   UNL     1      10.538  -5.716  24.326  0.00  0.00    +0.119 HD
ENDBRANCH  17  24
ENDBRANCH   1  17
TORSDOF 4
ENDMDL
MODEL 7
REMARK VINA RESULT:      -7.0      2.811      4.554
REMARK  Name = 
REMARK  4 active torsions:
REMARK  status: ('A' for Active; 'I' for Inactive)
REMARK    1  A    between atoms: C_2  and  N_3
REMARK    2  A    between atoms: C_2  and  C_4
REMARK    3  A    between atoms: C_2  and  C_10
REMARK    4  A    between atoms: C_13  and  C_16
REMARK                            x       y       z     vdW  Elec       q    Type
REMARK                         _______ _______ _______ _____ _____    ______ ____
ROOT
ATOM      1  C   UNL     1      10.078   1.568  23.659  0.00  0.00    -0.026 A 
ATOM      2  C   UNL     1       9.792   0.925  24.868  0.00  0.00    +0.006 A 
ATOM      3  C   UNL     1       9.538  -0.453  24.897  0.00  0.00    +0.010 A 
ATOM      4  C   UNL     1       9.569  -1.235  23.727  0.00  0.00    +0.003 A 
ATOM      5  C   UNL     1       9.914  -0.584  22.533  0.00  0.00    +0.010 A 
ATOM      6  C   UNL     1      10.163   0.790  22.495  0.00  0.00    +0.006 A 
ENDROOT
BRANCH   4   7
ATOM      7  C   UNL     1       9.176  -2.649  23.751  0.00  0.00    +0.102 A 
ATOM      8  N   UNL     1       9.916  -3.505  24.524  0.00  0.00    -0.233 NA
ATOM      9  C   UNL     1       9.511  -4.786  24.637  0.00  0.00    +0.224 A 
ATOM     10  N   UNL     1       8.446  -5.376  24.062  0.00  0.00    -0.216 NA
ATOM     11  C   UNL     1       7.772  -4.501  23.301  0.00  0.00    +0.161 A 
ATOM     12  N   UNL     1       6.642  -4.759  22.582  0.00  0.00    -0.329 N 
ATOM     13  H   UNL     1       6.171  -5.649  22.537  0.00  0.00    +0.168 HD
ATOM     14  C   UNL     1       6.277  -3.600  21.957  0.00  0.00    +0.198 A 
ATOM     15  N   UNL     1       7.101  -2.613  22.240  0.00  0.00    -0.232 NA
ATOM     16  C   UNL     1       8.049  -3.160  23.086  0.00  0.00    +0.134 A 
ENDBRANCH   4   7
BRANCH   1  17
ATOM     17  C   UNL     1      10.200   3.088  23.591  0.00  0.00    +0.112 C 
BRANCH  17  18
ATOM     18  C   UNL     1       8.834   3.738  23.366  0.00  0.00    -0.026 A 
ATOM     19  C   UNL     1       8.501   5.014  23.847  0.00  0.00    +0.005 A 
ATOM     20  C   UNL     1       7.277   5.606  23.521  0.00  0.00    +0.000 A 
ATOM     21  C   UNL     1       6.362   4.929  22.720  0.00  0.00    +0.000 A 
ATOM     22  C   UNL     1       6.656   3.650  22.261  0.00  0.00    +0.000 A 
ATOM     23  C   UNL     1       7.877   3.057  22.587  0.00  0.00    +0.005 A 
ENDBRANCH  17  18
BRANCH  17  24
ATOM     24  N   UNL     1      11.215   3.465  22.598  0.00  0.00    -0.320 NA
ATOM     25  H   UNL     1      11.760   4.233  22.987  0.00  0.00    +0.119 HD
ATOM     26  H   UNL     1      11.873   2.693  22.508  0.00  0.00    +0.119 HD
ENDBRANCH  17  24
ENDBRANCH   1  17
TORSDOF 4
ENDMDL
MODEL 8
REMARK VINA RESULT:      -7.0      2.215      3.015
REMARK  Name = 
REMARK  4 active torsions:
REMARK  status: ('A' for Active; 'I' for Inactive)
REMARK    1  A    between atoms: C_2  and  N_3
REMARK    2  A    between atoms: C_2  and  C_4
REMARK    3  A    between atoms: C_2  and  C_10
REMARK    4  A    between atoms: C_13  and  C_16
REMARK                            x       y       z     vdW  Elec       q    Type
REMARK                         _______ _______ _______ _____ _____    ______ ____
ROOT
ATOM      1  C   UNL     1       9.117  -0.740  24.839  0.00  0.00    -0.026 A 
ATOM      2  C   UNL     1       7.873  -0.873  25.466  0.00  0.00    +0.006 A 
ATOM      3  C   UNL     1       7.149  -2.068  25.363  0.00  0.00    +0.010 A 
ATOM      4  C   UNL     1       7.643  -3.171  24.640  0.00  0.00    +0.003 A 
ATOM      5  C   UNL     1       8.917  -3.040  24.066  0.00  0.00    +0.010 A 
ATOM      6  C   UNL     1       9.642  -1.850  24.160  0.00  0.00    +0.006 A 
ENDROOT
BRANCH   4   7
ATOM      7  C   UNL     1       6.821  -4.370  24.432  0.00  0.00    +0.102 A 
ATOM      8  N   UNL     1       6.220  -4.930  25.528  0.00  0.00    -0.233 NA
ATOM      9  C   UNL     1       5.382  -5.970  25.343  0.00  0.00    +0.224 A 
ATOM     10  N   UNL     1       5.048  -6.574  24.187  0.00  0.00    -0.216 NA
ATOM     11  C   UNL     1       5.680  -6.002  23.152  0.00  0.00    +0.161 A 
ATOM     12  N   UNL     1       5.569  -6.358  21.840  0.00  0.00    -0.329 N 
ATOM     13  H   UNL     1       4.989  -7.103  21.486  0.00  0.00    +0.168 HD
ATOM     14  C   UNL     1       6.371  -5.521  21.116  0.00  0.00    +0.198 A 
ATOM     15  N   UNL     1       6.982  -4.645  21.885  0.00  0.00    -0.232 NA
ATOM     16  C   UNL     1       6.560  -4.930  23.171  0.00  0.00    +0.134 A 
ENDBRANCH   4   7
BRANCH   1  17
ATOM     17  C   UNL     1       9.840   0.604  24.811  0.00  0.00    +0.112 C 
BRANCH  17  18
ATOM     18  C   UNL     1       9.140   1.584  23.867  0.00  0.00    -0.026 A 
ATOM     19  C   UNL     1       8.830   1.277  22.533  0.00  0.00    +0.005 A 
ATOM     20  C   UNL     1       8.093   2.168  21.746  0.00  0.00    +0.000 A 
ATOM     21  C   UNL     1       7.664   3.383  22.275  0.00  0.00    +0.000 A 
ATOM     22  C   UNL     1       7.990   3.721  23.585  0.00  0.00    +0.000 A 
ATOM     23  C   UNL     1       8.727   2.833  24.370  0.00  0.00    +0.005 A 
ENDBRANCH  17  18
BRANCH  17  24
ATOM     24  N   UNL     1      11.265   0.400  24.517  0.00  0.00    -0.320 NA
ATOM     25  H   UNL     1      11.553  -0.470  24.964  0.00  0.00    +0.119 HD
ATOM     26  H   UNL     1      11.361   0.229  23.519  0.00  0.00    +0.119 HD
ENDBRANCH  17  24
ENDBRANCH   1  17
TORSDOF 4
ENDMDL
MODEL 9
REMARK VINA RESULT:      -6.9      2.221      3.736
REMARK  Name = 
REMARK  4 active torsions:
REMARK  status: ('A' for Active; 'I' for Inactive)
REMARK    1  A    between atoms: C_2  and  N_3
REMARK    2  A    between atoms: C_2  and  C_4
REMARK    3  A    between atoms: C_2  and  C_10
REMARK    4  A    between atoms: C_13  and  C_16
REMARK                            x       y       z     vdW  Elec       q    Type
REMARK                         _______ _______ _______ _____ _____    ______ ____
ROOT
ATOM      1  C   UNL     1       9.680   0.886  23.518  0.00  0.00    -0.026 A 
ATOM      2  C   UNL     1       8.717   0.090  22.887  0.00  0.00    +0.006 A 
ATOM      3  C   UNL     1       8.364  -1.156  23.422  0.00  0.00    +0.010 A 
ATOM      4  C   UNL     1       8.952  -1.646  24.604  0.00  0.00    +0.003 A 
ATOM      5  C   UNL     1       9.873  -0.810  25.253  0.00  0.00    +0.010 A 
ATOM      6  C   UNL     1      10.234   0.431  24.723  0.00  0.00    +0.006 A 
ENDROOT
BRANCH   4   7
ATOM      7  C   UNL     1       8.670  -3.005  25.083  0.00  0.00    +0.102 A 
ATOM      8  N   UNL     1       9.522  -4.007  24.701  0.00  0.00    -0.233 NA
ATOM      9  C   UNL     1       9.337  -5.241  25.212  0.00  0.00    +0.224 A 
ATOM     10  N   UNL     1       8.384  -5.652  26.069  0.00  0.00    -0.216 NA
ATOM     11  C   UNL     1       7.566  -4.640  26.392  0.00  0.00    +0.161 A 
ATOM     12  N   UNL     1       6.499  -4.701  27.240  0.00  0.00    -0.329 N 
ATOM     13  H   UNL     1       6.194  -5.526  27.733  0.00  0.00    +0.168 HD
ATOM     14  C   UNL     1       5.943  -3.454  27.295  0.00  0.00    +0.198 A 
ATOM     15  N   UNL     1       6.596  -2.596  26.540  0.00  0.00    -0.232 NA
ATOM     16  C   UNL     1       7.623  -3.322  25.964  0.00  0.00    +0.134 A 
ENDBRANCH   4   7
BRANCH   1  17
ATOM     17  C   UNL     1      10.186   2.169  22.864  0.00  0.00    +0.112 C 
BRANCH  17  18
ATOM     18  C   UNL     1       9.833   3.393  23.711  0.00  0.00    -0.026 A 
ATOM     19  C   UNL     1      10.564   4.590  23.674  0.00  0.00    +0.005 A 
ATOM     20  C   UNL     1      10.134   5.714  24.386  0.00  0.00    +0.000 A 
ATOM     21  C   UNL     1       8.975   5.657  25.155  0.00  0.00    +0.000 A 
ATOM     22  C   UNL     1       8.254   4.470  25.233  0.00  0.00    +0.000 A 
ATOM     23  C   UNL     1       8.683   3.347  24.524  0.00  0.00    +0.005 A 
ENDBRANCH  17  18
BRANCH  17  24
ATOM     24  N   UNL     1       9.712   2.242  21.475  0.00  0.00    -0.320 NA
ATOM     25  H   UNL     1      10.454   1.884  20.874  0.00  0.00    +0.119 HD
ATOM     26  H   UNL     1       8.944   1.584  21.367  0.00  0.00    +0.119 HD
ENDBRANCH  17  24
ENDBRANCH   1  17
TORSDOF 4
ENDMDL
