MODEL 1
REMARK VINA RESULT:      -6.2      0.000      0.000
REMARK  Name = 
REMARK  7 active torsions:
REMARK  status: ('A' for Active; 'I' for Inactive)
REMARK    1  A    between atoms: O_1  and  C_2
REMARK    2  A    between atoms: C_2  and  C_3
REMARK    3  A    between atoms: C_3  and  O_4
REMARK    4  A    between atoms: O_4  and  C_5
REMARK    5  A    between atoms: C_5  and  N_6
REMARK    6  A    between atoms: C_8  and  C_9
REMARK    7  A    between atoms: C_9  and  C_10
REMARK                            x       y       z     vdW  Elec       q    Type
REMARK                         _______ _______ _______ _____ _____    ______ ____
ROOT
ATOM      1  N   UNL     1       6.653  -4.490  26.429  0.00  0.00    -0.277 N 
ATOM      2  C   UNL     1       7.601  -5.261  27.079  0.00  0.00    +0.331 A 
ATOM      3  O   UNL     1       7.357  -6.021  28.013  0.00  0.00    -0.246 OA
ATOM      4  N   UNL     1       8.878  -5.168  26.580  0.00  0.00    -0.275 N 
ATOM      5  H   UNL     1       9.555  -5.788  26.993  0.00  0.00    +0.173 HD
ATOM      6  C   UNL     1       9.205  -4.637  25.362  0.00  0.00    +0.257 A 
ATOM      7  O   UNL     1      10.277  -4.878  24.819  0.00  0.00    -0.267 OA
ATOM      8  C   UNL     1       8.165  -3.807  24.717  0.00  0.00    +0.038 A 
ATOM      9  C   UNL     1       6.974  -3.731  25.320  0.00  0.00    +0.102 A 
ENDROOT
BRANCH   1  10
ATOM     10  C   UNL     1       5.247  -4.654  26.786  0.00  0.00    +0.289 C 
BRANCH  10  11
ATOM     11  O   UNL     1       4.660  -5.520  25.818  0.00  0.00    -0.357 OA
BRANCH  11  12
ATOM     12  C   UNL     1       4.339  -6.805  26.326  0.00  0.00    +0.190 C 
BRANCH  12  13
ATOM     13  C   UNL     1       4.006  -6.646  27.806  0.00  0.00    +0.184 C 
BRANCH  13  14
ATOM     14  O   UNL     1       4.810  -7.510  28.593  0.00  0.00    -0.393 OA
ATOM     15  H   UNL     1       5.183  -8.173  27.986  0.00  0.00    +0.209 HD
ENDBRANCH  13  14
ENDBRANCH  12  13
ENDBRANCH  11  12
ENDBRANCH  10  11
ENDBRANCH   1  10
BRANCH   8  16
ATOM     16  C   UNL     1       8.367  -3.351  23.304  0.00  0.00    +0.077 C 
BRANCH  16  17
ATOM     17  C   UNL     1       9.089  -2.045  23.101  0.00  0.00    -0.043 A 
ATOM     18  C   UNL     1       9.639  -1.355  24.193  0.00  0.00    +0.004 A 
ATOM     19  C   UNL     1      10.173  -0.078  24.023  0.00  0.00    +0.000 A 
ATOM     20  C   UNL     1      10.174   0.516  22.763  0.00  0.00    +0.000 A 
ATOM     21  C   UNL     1       9.663  -0.176  21.667  0.00  0.00    +0.000 A 
ATOM     22  C   UNL     1       9.131  -1.455  21.832  0.00  0.00    +0.004 A 
ENDBRANCH  16  17
ENDBRANCH   8  16
TORSDOF 7
ENDMDL
MODEL 2
REMARK VINA RESULT:      -6.2      2.179      3.135
REMARK  Name = 
REMARK  7 active torsions:
REMARK  status: ('A' for Active; 'I' for Inactive)
REMARK    1  A    between atoms: O_1  and  C_2
REMARK    2  A    between atoms: C_2  and  C_3
REMARK    3  A    between atoms: C_3  and  O_4
REMARK    4  A    between atoms: O_4  and  C_5
REMARK    5  A    between atoms: C_5  and  N_6
REMARK    6  A    between atoms: C_8  and  C_9
REMARK    7  A    between atoms: C_9  and  C_10
REMARK                            x       y       z     vdW  Elec       q    Type
REMARK                         _______ _______ _______ _____ _____    ______ ____
ROOT
ATOM      1  N   UNL     1       6.270  -3.571  24.126  0.00  0.00    -0.277 N 
ATOM      2  C   UNL     1       6.845  -4.470  25.007  0.00  0.00    +0.331 A 
ATOM      3  O   UNL     1       6.231  -5.362  25.587  0.00  0.00    -0.246 OA
ATOM      4  N   UNL     1       8.202  -4.343  25.176  0.00  0.00    -0.275 N 
ATOM      5  H   UNL     1       8.640  -5.045  25.749  0.00  0.00    +0.173 HD
ATOM      6  C   UNL     1       9.030  -3.632  24.349  0.00  0.00    +0.257 A 
ATOM      7  O   UNL     1      10.241  -3.819  24.333  0.00  0.00    -0.267 OA
ATOM      8  C   UNL     1       8.369  -2.672  23.440  0.00  0.00    +0.038 A 
ATOM      9  C   UNL     1       7.031  -2.653  23.428  0.00  0.00    +0.102 A 
ENDROOT
BRANCH   1  10
ATOM     10  C   UNL     1       4.866  -3.741  23.762  0.00  0.00    +0.289 C 
BRANCH  10  11
ATOM     11  O   UNL     1       4.829  -4.211  22.416  0.00  0.00    -0.357 OA
BRANCH  11  12
ATOM     12  C   UNL     1       5.075  -5.603  22.295  0.00  0.00    +0.190 C 
BRANCH  12  13
ATOM     13  C   UNL     1       6.179  -5.787  21.258  0.00  0.00    +0.184 C 
BRANCH  13  14
ATOM     14  O   UNL     1       7.434  -5.966  21.895  0.00  0.00    -0.393 OA
ATOM     15  H   UNL     1       8.022  -6.384  21.242  0.00  0.00    +0.209 HD
ENDBRANCH  13  14
ENDBRANCH  12  13
ENDBRANCH  11  12
ENDBRANCH  10  11
ENDBRANCH   1  10
BRANCH   8  16
ATOM     16  C   UNL     1       9.179  -2.000  22.374  0.00  0.00    +0.077 C 
BRANCH  16  17
ATOM     17  C   UNL     1       9.695  -0.617  22.674  0.00  0.00    -0.043 A 
ATOM     18  C   UNL     1      10.168  -0.293  23.955  0.00  0.00    +0.004 A 
ATOM     19  C   UNL     1      10.504   1.023  24.270  0.00  0.00    +0.000 A 
ATOM     20  C   UNL     1      10.382   2.024  23.310  0.00  0.00    +0.000 A 
ATOM     21  C   UNL     1       9.948   1.705  22.024  0.00  0.00    +0.000 A 
ATOM     22  C   UNL     1       9.614   0.389  21.703  0.00  0.00    +0.004 A 
ENDBRANCH  16  17
ENDBRANCH   8  16
TORSDOF 7
ENDMDL
MODEL 3
REMARK VINA RESULT:      -6.2      0.750      1.205
REMARK  Name = 
REMARK  7 active torsions:
REMARK  status: ('A' for Active; 'I' for Inactive)
REMARK    1  A    between atoms: O_1  and  C_2
REMARK    2  A    between atoms: C_2  and  C_3
REMARK    3  A    between atoms: C_3  and  O_4
REMARK    4  A    between atoms: O_4  and  C_5
REMARK    5  A    between atoms: C_5  and  N_6
REMARK    6  A    between atoms: C_8  and  C_9
REMARK    7  A    between atoms: C_9  and  C_10
REMARK                            x       y       z     vdW  Elec       q    Type
REMARK                         _______ _______ _______ _____ _____    ______ ____
ROOT
ATOM      1  N   UNL     1       6.651  -4.479  26.388  0.00  0.00    -0.277 N 
ATOM      2  C   UNL     1       7.580  -5.260  27.053  0.00  0.00    +0.331 A 
ATOM      3  O   UNL     1       7.312  -6.021  27.980  0.00  0.00    -0.246 OA
ATOM      4  N   UNL     1       8.867  -5.176  26.579  0.00  0.00    -0.275 N 
ATOM      5  H   UNL     1       9.532  -5.803  27.001  0.00  0.00    +0.173 HD
ATOM      6  C   UNL     1       9.221  -4.643  25.369  0.00  0.00    +0.257 A 
ATOM      7  O   UNL     1      10.302  -4.891  24.846  0.00  0.00    -0.267 OA
ATOM      8  C   UNL     1       8.201  -3.802  24.708  0.00  0.00    +0.038 A 
ATOM      9  C   UNL     1       6.999  -3.718  25.289  0.00  0.00    +0.102 A 
ENDROOT
BRANCH   1  10
ATOM     10  C   UNL     1       5.237  -4.633  26.719  0.00  0.00    +0.289 C 
BRANCH  10  11
ATOM     11  O   UNL     1       4.666  -5.507  25.748  0.00  0.00    -0.357 OA
BRANCH  11  12
ATOM     12  C   UNL     1       4.157  -6.711  26.299  0.00  0.00    +0.190 C 
BRANCH  12  13
ATOM     13  C   UNL     1       3.528  -7.509  25.161  0.00  0.00    +0.184 C 
BRANCH  13  14
ATOM     14  O   UNL     1       4.383  -7.521  24.030  0.00  0.00    -0.393 OA
ATOM     15  H   UNL     1       3.949  -8.074  23.357  0.00  0.00    +0.209 HD
ENDBRANCH  13  14
ENDBRANCH  12  13
ENDBRANCH  11  12
ENDBRANCH  10  11
ENDBRANCH   1  10
BRANCH   8  16
ATOM     16  C   UNL     1       8.433  -3.343  23.301  0.00  0.00    +0.077 C 
BRANCH  16  17
ATOM     17  C   UNL     1       9.139  -2.025  23.117  0.00  0.00    -0.043 A 
ATOM     18  C   UNL     1       9.666  -1.336  24.221  0.00  0.00    +0.004 A 
ATOM     19  C   UNL     1      10.184  -0.050  24.067  0.00  0.00    +0.000 A 
ATOM     20  C   UNL     1      10.190   0.555  22.813  0.00  0.00    +0.000 A 
ATOM     21  C   UNL     1       9.701  -0.135  21.705  0.00  0.00    +0.000 A 
ATOM     22  C   UNL     1       9.185  -1.424  21.854  0.00  0.00    +0.004 A 
ENDBRANCH  16  17
ENDBRANCH   8  16
TORSDOF 7
ENDMDL
MODEL 4
REMARK VINA RESULT:      -6.0      3.211      5.128
REMARK  Name = 
REMARK  7 active torsions:
REMARK  status: ('A' for Active; 'I' for Inactive)
REMARK    1  A    between atoms: O_1  and  C_2
REMARK    2  A    between atoms: C_2  and  C_3
REMARK    3  A    between atoms: C_3  and  O_4
REMARK    4  A    between atoms: O_4  and  C_5
REMARK    5  A    between atoms: C_5  and  N_6
REMARK    6  A    between atoms: C_8  and  C_9
REMARK    7  A    between atoms: C_9  and  C_10
REMARK                            x       y       z     vdW  Elec       q    Type
REMARK                         _______ _______ _______ _____ _____    ______ ____
ROOT
ATOM      1  N   UNL     1       9.145  -2.314  23.665  0.00  0.00    -0.277 N 
ATOM      2  C   UNL     1       8.513  -2.294  22.434  0.00  0.00    +0.331 A 
ATOM      3  O   UNL     1       7.656  -3.099  22.079  0.00  0.00    -0.246 OA
ATOM      4  N   UNL     1       8.874  -1.259  21.605  0.00  0.00    -0.275 N 
ATOM      5  H   UNL     1       8.359  -1.189  20.742  0.00  0.00    +0.173 HD
ATOM      6  C   UNL     1       9.544  -0.134  22.004  0.00  0.00    +0.257 A 
ATOM      7  O   UNL     1       9.542   0.891  21.331  0.00  0.00    -0.267 OA
ATOM      8  C   UNL     1      10.215  -0.212  23.318  0.00  0.00    +0.038 A 
ATOM      9  C   UNL     1      10.029  -1.322  24.042  0.00  0.00    +0.102 A 
ENDROOT
BRANCH   1  10
ATOM     10  C   UNL     1       8.702  -3.279  24.667  0.00  0.00    +0.289 C 
BRANCH  10  11
ATOM     11  O   UNL     1       9.594  -4.390  24.612  0.00  0.00    -0.357 OA
BRANCH  11  12
ATOM     12  C   UNL     1       9.673  -5.116  25.828  0.00  0.00    +0.190 C 
BRANCH  12  13
ATOM     13  C   UNL     1       8.433  -4.775  26.649  0.00  0.00    +0.184 C 
BRANCH  13  14
ATOM     14  O   UNL     1       8.028  -5.892  27.424  0.00  0.00    -0.393 OA
ATOM     15  H   UNL     1       8.461  -5.803  28.291  0.00  0.00    +0.209 HD
ENDBRANCH  13  14
ENDBRANCH  12  13
ENDBRANCH  11  12
ENDBRANCH  10  11
ENDBRANCH   1  10
BRANCH   8  16
ATOM     16  C   UNL     1      10.803   1.031  23.914  0.00  0.00    +0.077 C 
BRANCH  16  17
ATOM     17  C   UNL     1       9.861   2.177  24.176  0.00  0.00    -0.043 A 
ATOM     18  C   UNL     1      10.156   3.466  23.707  0.00  0.00    +0.004 A 
ATOM     19  C   UNL     1       9.362   4.551  24.078  0.00  0.00    +0.000 A 
ATOM     20  C   UNL     1       8.263   4.358  24.911  0.00  0.00    +0.000 A 
ATOM     21  C   UNL     1       7.942   3.076  25.354  0.00  0.00    +0.000 A 
ATOM     22  C   UNL     1       8.732   1.987  24.981  0.00  0.00    +0.004 A 
ENDBRANCH  16  17
ENDBRANCH   8  16
TORSDOF 7
ENDMDL
MODEL 5
REMARK VINA RESULT:      -5.8      3.262      7.282
REMARK  Name = 
REMARK  7 active torsions:
REMARK  status: ('A' for Active; 'I' for Inactive)
REMARK    1  A    between atoms: O_1  and  C_2
REMARK    2  A    between atoms: C_2  and  C_3
REMARK    3  A    between atoms: C_3  and  O_4
REMARK    4  A    between atoms: O_4  and  C_5
REMARK    5  A    between atoms: C_5  and  N_6
REMARK    6  A    between atoms: C_8  and  C_9
REMARK    7  A    between atoms: C_9  and  C_10
REMARK                            x       y       z     vdW  Elec       q    Type
REMARK                         _______ _______ _______ _____ _____    ______ ____
ROOT
ATOM      1  N   UNL     1       9.433  -1.496  23.480  0.00  0.00    -0.277 N 
ATOM      2  C   UNL     1       8.884  -1.413  22.212  0.00  0.00    +0.331 A 
ATOM      3  O   UNL     1       9.175  -0.552  21.385  0.00  0.00    -0.246 OA
ATOM      4  N   UNL     1       7.993  -2.407  21.890  0.00  0.00    -0.275 N 
ATOM      5  H   UNL     1       7.653  -2.401  20.942  0.00  0.00    +0.173 HD
ATOM      6  C   UNL     1       7.848  -3.582  22.578  0.00  0.00    +0.257 A 
ATOM      7  O   UNL     1       7.307  -4.560  22.077  0.00  0.00    -0.267 OA
ATOM      8  C   UNL     1       8.437  -3.614  23.934  0.00  0.00    +0.038 A 
ATOM      9  C   UNL     1       9.139  -2.546  24.328  0.00  0.00    +0.102 A 
ENDROOT
BRANCH   1  10
ATOM     10  C   UNL     1      10.510  -0.579  23.843  0.00  0.00    +0.289 C 
BRANCH  10  11
ATOM     11  O   UNL     1       9.907   0.575  24.424  0.00  0.00    -0.357 OA
BRANCH  11  12
ATOM     12  C   UNL     1      10.498   1.795  24.005  0.00  0.00    +0.190 C 
BRANCH  12  13
ATOM     13  C   UNL     1       9.581   2.416  22.957  0.00  0.00    +0.184 C 
BRANCH  13  14
ATOM     14  O   UNL     1      10.127   2.252  21.658  0.00  0.00    -0.393 OA
ATOM     15  H   UNL     1       9.961   1.329  21.400  0.00  0.00    +0.209 HD
ENDBRANCH  13  14
ENDBRANCH  12  13
ENDBRANCH  11  12
ENDBRANCH  10  11
ENDBRANCH   1  10
BRANCH   8  16
ATOM     16  C   UNL     1       8.494  -4.915  24.674  0.00  0.00    +0.077 C 
BRANCH  16  17
ATOM     17  C   UNL     1       7.381  -5.200  25.648  0.00  0.00    -0.043 A 
ATOM     18  C   UNL     1       7.626  -5.209  27.030  0.00  0.00    +0.004 A 
ATOM     19  C   UNL     1       6.632  -5.620  27.919  0.00  0.00    +0.000 A 
ATOM     20  C   UNL     1       5.386  -6.013  27.439  0.00  0.00    +0.000 A 
ATOM     21  C   UNL     1       5.122  -5.973  26.071  0.00  0.00    +0.000 A 
ATOM     22  C   UNL     1       6.112  -5.560  25.179  0.00  0.00    +0.004 A 
ENDBRANCH  16  17
ENDBRANCH   8  16
TORSDOF 7
ENDMDL
MODEL 6
REMARK VINA RESULT:      -5.8      3.255      6.947
REMARK  Name = 
REMARK  7 active torsions:
REMARK  status: ('A' for Active; 'I' for Inactive)
REMARK    1  A    between atoms: O_1  and  C_2
REMARK    2  A    between atoms: C_2  and  C_3
REMARK    3  A    between atoms: C_3  and  O_4
REMARK    4  A    between atoms: O_4  and  C_5
REMARK    5  A    between atoms: C_5  and  N_6
REMARK    6  A    between atoms: C_8  and  C_9
REMARK    7  A    between atoms: C_9  and  C_10
REMARK                            x       y       z     vdW  Elec       q    Type
REMARK                         _______ _______ _______ _____ _____    ______ ____
ROOT
ATOM      1  N   UNL     1       8.505  -0.883  24.343  0.00  0.00    -0.277 N 
ATOM      2  C   UNL     1       9.740  -1.153  23.780  0.00  0.00    +0.331 A 
ATOM      3  O   UNL     1      10.517  -0.296  23.365  0.00  0.00    -0.246 OA
ATOM      4  N   UNL     1      10.093  -2.480  23.744  0.00  0.00    -0.275 N 
ATOM      5  H   UNL     1      11.023  -2.677  23.413  0.00  0.00    +0.173 HD
ATOM      6  C   UNL     1       9.483  -3.472  24.464  0.00  0.00    +0.257 A 
ATOM      7  O   UNL     1      10.028  -4.551  24.667  0.00  0.00    -0.267 OA
ATOM      8  C   UNL     1       8.159  -3.139  25.030  0.00  0.00    +0.038 A 
ATOM      9  C   UNL     1       7.720  -1.884  24.881  0.00  0.00    +0.102 A 
ENDROOT
BRANCH   1  10
ATOM     10  C   UNL     1       8.125   0.508  24.571  0.00  0.00    +0.289 C 
BRANCH  10  11
ATOM     11  O   UNL     1       7.294   0.906  23.483  0.00  0.00    -0.357 OA
BRANCH  11  12
ATOM     12  C   UNL     1       7.713   2.108  22.858  0.00  0.00    +0.190 C 
BRANCH  12  13
ATOM     13  C   UNL     1       8.333   1.738  21.514  0.00  0.00    +0.184 C 
BRANCH  13  14
ATOM     14  O   UNL     1       9.731   1.979  21.528  0.00  0.00    -0.393 OA
ATOM     15  H   UNL     1      10.044   1.860  20.615  0.00  0.00    +0.209 HD
ENDBRANCH  13  14
ENDBRANCH  12  13
ENDBRANCH  11  12
ENDBRANCH  10  11
ENDBRANCH   1  10
BRANCH   8  16
ATOM     16  C   UNL     1       7.514  -4.093  25.988  0.00  0.00    +0.077 C 
BRANCH  16  17
ATOM     17  C   UNL     1       6.553  -5.100  25.412  0.00  0.00    -0.043 A 
ATOM     18  C   UNL     1       6.344  -5.176  24.027  0.00  0.00    +0.004 A 
ATOM     19  C   UNL     1       5.346  -6.003  23.509  0.00  0.00    +0.000 A 
ATOM     20  C   UNL     1       4.558  -6.767  24.366  0.00  0.00    +0.000 A 
ATOM     21  C   UNL     1       4.782  -6.724  25.741  0.00  0.00    +0.000 A 
ATOM     22  C   UNL     1       5.782  -5.901  26.263  0.00  0.00    +0.004 A 
ENDBRANCH  16  17
ENDBRANCH   8  16
TORSDOF 7
ENDMDL
MODEL 7
REMARK VINA RESULT:      -5.7      6.327      9.685
REMARK  Name = 
REMARK  7 active torsions:
REMARK  status: ('A' for Active; 'I' for Inactive)
REMARK    1  A    between atoms: O_1  and  C_2
REMARK    2  A    between atoms: C_2  and  C_3
REMARK    3  A    between atoms: C_3  and  O_4
REMARK    4  A    between atoms: O_4  and  C_5
REMARK    5  A    between atoms: C_5  and  N_6
REMARK    6  A    between atoms: C_8  and  C_9
REMARK    7  A    between atoms: C_9  and  C_10
REMARK                            x       y       z     vdW  Elec       q    Type
REMARK                         _______ _______ _______ _____ _____    ______ ____
ROOT
ATOM      1  N   UNL     1       9.175   4.837  23.621  0.00  0.00    -0.277 N 
ATOM      2  C   UNL     1       7.892   5.110  23.180  0.00  0.00    +0.331 A 
ATOM      3  O   UNL     1       7.360   6.216  23.233  0.00  0.00    -0.246 OA
ATOM      4  N   UNL     1       7.226   4.050  22.614  0.00  0.00    -0.275 N 
ATOM      5  H   UNL     1       6.325   4.260  22.216  0.00  0.00    +0.173 HD
ATOM      6  C   UNL     1       7.817   2.887  22.197  0.00  0.00    +0.257 A 
ATOM      7  O   UNL     1       7.264   2.130  21.407  0.00  0.00    -0.267 OA
ATOM      8  C   UNL     1       9.179   2.633  22.709  0.00  0.00    +0.038 A 
ATOM      9  C   UNL     1       9.753   3.594  23.443  0.00  0.00    +0.102 A 
ENDROOT
BRANCH   1  10
ATOM     10  C   UNL     1      10.011   5.941  24.082  0.00  0.00    +0.289 C 
BRANCH  10  11
ATOM     11  O   UNL     1      11.276   5.394  24.449  0.00  0.00    -0.357 OA
BRANCH  11  12
ATOM     12  C   UNL     1      12.380   6.148  23.976  0.00  0.00    +0.190 C 
BRANCH  12  13
ATOM     13  C   UNL     1      13.017   5.364  22.832  0.00  0.00    +0.184 C 
BRANCH  13  14
ATOM     14  O   UNL     1      14.365   5.046  23.138  0.00  0.00    -0.393 OA
ATOM     15  H   UNL     1      14.345   4.234  23.675  0.00  0.00    +0.209 HD
ENDBRANCH  13  14
ENDBRANCH  12  13
ENDBRANCH  11  12
ENDBRANCH  10  11
ENDBRANCH   1  10
BRANCH   8  16
ATOM     16  C   UNL     1       9.968   1.488  22.151  0.00  0.00    +0.077 C 
BRANCH  16  17
ATOM     17  C   UNL     1       9.644   0.113  22.674  0.00  0.00    -0.043 A 
ATOM     18  C   UNL     1       9.957  -0.242  23.995  0.00  0.00    +0.004 A 
ATOM     19  C   UNL     1       9.794  -1.557  24.429  0.00  0.00    +0.000 A 
ATOM     20  C   UNL     1       9.308  -2.526  23.554  0.00  0.00    +0.000 A 
ATOM     21  C   UNL     1       8.961  -2.175  22.251  0.00  0.00    +0.000 A 
ATOM     22  C   UNL     1       9.119  -0.859  21.813  0.00  0.00    +0.004 A 
ENDBRANCH  16  17
ENDBRANCH   8  16
TORSDOF 7
ENDMDL
MODEL 8
REMARK VINA RESULT:      -5.7      3.298      6.645
REMARK  Name = 
REMARK  7 active torsions:
REMARK  status: ('A' for Active; 'I' for Inactive)
REMARK    1  A    between atoms: O_1  and  C_2
REMARK    2  A    between atoms: C_2  and  C_3
REMARK    3  A    between atoms: C_3  and  O_4
REMARK    4  A    between atoms: O_4  and  C_5
REMARK    5  A    between atoms: C_5  and  N_6
REMARK    6  A    between atoms: C_8  and  C_9
REMARK    7  A    between atoms: C_9  and  C_10
REMARK                            x       y       z     vdW  Elec       q    Type
REMARK                         _______ _______ _______ _____ _____    ______ ____
ROOT
ATOM      1  N   UNL     1       9.747  -1.651  24.148  0.00  0.00    -0.277 N 
ATOM      2  C   UNL     1       9.205  -0.927  25.195  0.00  0.00    +0.331 A 
ATOM      3  O   UNL     1       9.128   0.299  25.224  0.00  0.00    -0.246 OA
ATOM      4  N   UNL     1       8.693  -1.676  26.227  0.00  0.00    -0.275 N 
ATOM      5  H   UNL     1       8.223  -1.159  26.952  0.00  0.00    +0.173 HD
ATOM      6  C   UNL     1       8.417  -3.015  26.159  0.00  0.00    +0.257 A 
ATOM      7  O   UNL     1       7.663  -3.559  26.958  0.00  0.00    -0.267 OA
ATOM      8  C   UNL     1       9.033  -3.747  25.033  0.00  0.00    +0.038 A 
ATOM      9  C   UNL     1       9.714  -3.032  24.130  0.00  0.00    +0.102 A 
ENDROOT
BRANCH   1  10
ATOM     10  C   UNL     1      10.161  -0.942  22.941  0.00  0.00    +0.289 C 
BRANCH  10  11
ATOM     11  O   UNL     1       9.053  -0.947  22.043  0.00  0.00    -0.357 OA
BRANCH  11  12
ATOM     12  C   UNL     1       9.073   0.123  21.112  0.00  0.00    +0.190 C 
BRANCH  12  13
ATOM     13  C   UNL     1       9.110   1.425  21.906  0.00  0.00    +0.184 C 
BRANCH  13  14
ATOM     14  O   UNL     1      10.197   2.233  21.485  0.00  0.00    -0.393 OA
ATOM     15  H   UNL     1       9.813   3.042  21.103  0.00  0.00    +0.209 HD
ENDBRANCH  13  14
ENDBRANCH  12  13
ENDBRANCH  11  12
ENDBRANCH  10  11
ENDBRANCH   1  10
BRANCH   8  16
ATOM     16  C   UNL     1       8.627  -5.166  24.775  0.00  0.00    +0.077 C 
BRANCH  16  17
ATOM     17  C   UNL     1       7.421  -5.387  23.900  0.00  0.00    -0.043 A 
ATOM     18  C   UNL     1       7.568  -5.586  22.519  0.00  0.00    +0.004 A 
ATOM     19  C   UNL     1       6.446  -5.640  21.691  0.00  0.00    +0.000 A 
ATOM     20  C   UNL     1       5.171  -5.506  22.235  0.00  0.00    +0.000 A 
ATOM     21  C   UNL     1       5.014  -5.343  23.610  0.00  0.00    +0.000 A 
ATOM     22  C   UNL     1       6.134  -5.292  24.442  0.00  0.00    +0.004 A 
ENDBRANCH  16  17
ENDBRANCH   8  16
TORSDOF 7
ENDMDL
MODEL 9
REMARK VINA RESULT:      -5.7      3.206      4.764
REMARK  Name = 
REMARK  7 active torsions:
REMARK  status: ('A' for Active; 'I' for Inactive)
REMARK    1  A    between atoms: O_1  and  C_2
REMARK    2  A    between atoms: C_2  and  C_3
REMARK    3  A    between atoms: C_3  and  O_4
REMARK    4  A    between atoms: O_4  and  C_5
REMARK    5  A    between atoms: C_5  and  N_6
REMARK    6  A    between atoms: C_8  and  C_9
REMARK    7  A    between atoms: C_9  and  C_10
REMARK                            x       y       z     vdW  Elec       q    Type
REMARK                         _______ _______ _______ _____ _____    ______ ____
ROOT
ATOM      1  N   UNL     1       9.192  -1.573  25.025  0.00  0.00    -0.277 N 
ATOM      2  C   UNL     1       9.724  -2.361  24.019  0.00  0.00    +0.331 A 
ATOM      3  O   UNL     1       9.891  -3.576  24.103  0.00  0.00    -0.246 OA
ATOM      4  N   UNL     1      10.030  -1.701  22.853  0.00  0.00    -0.275 N 
ATOM      5  H   UNL     1      10.338  -2.280  22.090  0.00  0.00    +0.173 HD
ATOM      6  C   UNL     1       9.585  -0.449  22.524  0.00  0.00    +0.257 A 
ATOM      7  O   UNL     1       9.592  -0.046  21.366  0.00  0.00    -0.267 OA
ATOM      8  C   UNL     1       9.042   0.359  23.636  0.00  0.00    +0.038 A 
ATOM      9  C   UNL     1       8.938  -0.229  24.833  0.00  0.00    +0.102 A 
ENDROOT
BRANCH   1  10
ATOM     10  C   UNL     1       8.687  -2.220  26.232  0.00  0.00    +0.289 C 
BRANCH  10  11
ATOM     11  O   UNL     1       7.321  -2.556  25.996  0.00  0.00    -0.357 OA
BRANCH  11  12
ATOM     12  C   UNL     1       6.871  -3.668  26.753  0.00  0.00    +0.190 C 
BRANCH  12  13
ATOM     13  C   UNL     1       7.797  -4.841  26.446  0.00  0.00    +0.184 C 
BRANCH  13  14
ATOM     14  O   UNL     1       7.827  -5.749  27.535  0.00  0.00    -0.393 OA
ATOM     15  H   UNL     1       8.751  -6.037  27.633  0.00  0.00    +0.209 HD
ENDBRANCH  13  14
ENDBRANCH  12  13
ENDBRANCH  11  12
ENDBRANCH  10  11
ENDBRANCH   1  10
BRANCH   8  16
ATOM     16  C   UNL     1       8.359   1.657  23.330  0.00  0.00    +0.077 C 
BRANCH  16  17
ATOM     17  C   UNL     1       9.204   2.903  23.373  0.00  0.00    -0.043 A 
ATOM     18  C   UNL     1      10.601   2.824  23.262  0.00  0.00    +0.004 A 
ATOM     19  C   UNL     1      11.389   3.959  23.452  0.00  0.00    +0.000 A 
ATOM     20  C   UNL     1      10.791   5.183  23.742  0.00  0.00    +0.000 A 
ATOM     21  C   UNL     1       9.402   5.278  23.819  0.00  0.00    +0.000 A 
ATOM     22  C   UNL     1       8.610   4.146  23.626  0.00  0.00    +0.004 A 
ENDBRANCH  16  17
ENDBRANCH   8  16
TORSDOF 7
ENDMDL
