MODEL 1
REMARK VINA RESULT:      -5.3      0.000      0.000
REMARK  Name = 
REMARK  7 active torsions:
REMARK  status: ('A' for Active; 'I' for Inactive)
REMARK    1  A    between atoms: C_1  and  C_2
REMARK    2  A    between atoms: C_2  and  C_3
REMARK    3  A    between atoms: C_3  and  C_4
REMARK    4  A    between atoms: C_4  and  C_5
REMARK    5  A    between atoms: C_4  and  C_6
REMARK    6  A    between atoms: C_6  and  C_7
REMARK    7  A    between atoms: C_7  and  C_8
REMARK                            x       y       z     vdW  Elec       q    Type
REMARK                         _______ _______ _______ _____ _____    ______ ____
ROOT
ATOM      1  C   UNL     1       9.395   1.828  23.508  0.00  0.00    +0.126 C 
ATOM      2  C   UNL     1       7.870   1.730  23.504  0.00  0.00    +0.234 C 
ATOM      3  O   UNL     1       7.172   1.951  22.516  0.00  0.00    -0.274 OA
ATOM      4  N   UNL     1       7.279   1.444  24.707  0.00  0.00    -0.267 N 
ATOM      5  H   UNL     1       6.269   1.503  24.730  0.00  0.00    +0.157 HD
ATOM      6  C   UNL     1       7.900   0.849  25.760  0.00  0.00    +0.143 C 
ATOM      7  S   UNL     1       7.072   0.466  27.148  0.00  0.00    -0.018 S 
ATOM      8  N   UNL     1       9.221   0.557  25.619  0.00  0.00    -0.267 N 
ATOM      9  H   UNL     1       9.672   0.025  26.352  0.00  0.00    +0.157 HD
ATOM     10  C   UNL     1      10.008   0.883  24.541  0.00  0.00    +0.234 C 
ATOM     11  O   UNL     1      11.171   0.488  24.496  0.00  0.00    -0.274 OA
ENDROOT
BRANCH   1  12
ATOM     12  C   UNL     1       9.818   3.317  23.885  0.00  0.00    +0.010 C 
ATOM     13  C   UNL     1       8.777   4.389  23.502  0.00  0.00    +0.009 C 
BRANCH  12  14
ATOM     14  C   UNL     1      11.208   3.715  23.313  0.00  0.00    +0.004 C 
BRANCH  14  16
ATOM     15  C   UNL     1      12.957   5.490  22.937  0.00  0.00    +0.004 C 
ATOM     16  C   UNL     1      11.586   5.186  23.522  0.00  0.00    -0.003 C 
ENDBRANCH  14  16
ENDBRANCH  12  14
ENDBRANCH   1  12
BRANCH   1  17
ATOM     17  C   UNL     1       9.958   1.456  22.105  0.00  0.00    +0.022 C 
ATOM     18  C   UNL     1       9.622   0.048  21.615  0.00  0.00    +0.005 C 
ENDBRANCH   1  17
TORSDOF 4
ENDMDL
MODEL 2
REMARK VINA RESULT:      -5.2      4.740      7.130
REMARK  Name = 
REMARK  7 active torsions:
REMARK  status: ('A' for Active; 'I' for Inactive)
REMARK    1  A    between atoms: C_1  and  C_2
REMARK    2  A    between atoms: C_2  and  C_3
REMARK    3  A    between atoms: C_3  and  C_4
REMARK    4  A    between atoms: C_4  and  C_5
REMARK    5  A    between atoms: C_4  and  C_6
REMARK    6  A    between atoms: C_6  and  C_7
REMARK    7  A    between atoms: C_7  and  C_8
REMARK                            x       y       z     vdW  Elec       q    Type
REMARK                         _______ _______ _______ _____ _____    ______ ____
ROOT
ATOM      1  C   UNL     1       7.728  -2.905  23.745  0.00  0.00    +0.126 C 
ATOM      2  C   UNL     1       6.979  -1.577  23.653  0.00  0.00    +0.234 C 
ATOM      3  O   UNL     1       5.865  -1.383  24.137  0.00  0.00    -0.274 OA
ATOM      4  N   UNL     1       7.587  -0.588  22.924  0.00  0.00    -0.267 N 
ATOM      5  H   UNL     1       7.036   0.245  22.760  0.00  0.00    +0.157 HD
ATOM      6  C   UNL     1       8.915  -0.530  22.643  0.00  0.00    +0.143 C 
ATOM      7  S   UNL     1       9.570   0.757  21.822  0.00  0.00    -0.018 S 
ATOM      8  N   UNL     1       9.690  -1.558  23.085  0.00  0.00    -0.267 N 
ATOM      9  H   UNL     1      10.693  -1.480  22.973  0.00  0.00    +0.157 HD
ATOM     10  C   UNL     1       9.242  -2.691  23.718  0.00  0.00    +0.234 C 
ATOM     11  O   UNL     1      10.052  -3.510  24.146  0.00  0.00    -0.274 OA
ENDROOT
BRANCH   1  12
ATOM     12  C   UNL     1       7.333  -3.810  22.494  0.00  0.00    +0.010 C 
ATOM     13  C   UNL     1       6.030  -3.383  21.788  0.00  0.00    +0.009 C 
BRANCH  12  14
ATOM     14  C   UNL     1       7.264  -5.324  22.841  0.00  0.00    +0.004 C 
BRANCH  14  16
ATOM     15  C   UNL     1       5.118  -6.337  23.688  0.00  0.00    +0.004 C 
ATOM     16  C   UNL     1       5.947  -6.007  22.456  0.00  0.00    -0.003 C 
ENDBRANCH  14  16
ENDBRANCH  12  14
ENDBRANCH   1  12
BRANCH   1  17
ATOM     17  C   UNL     1       7.358  -3.638  25.068  0.00  0.00    +0.022 C 
ATOM     18  C   UNL     1       7.752  -2.911  26.353  0.00  0.00    +0.005 C 
ENDBRANCH   1  17
TORSDOF 4
ENDMDL
MODEL 3
REMARK VINA RESULT:      -5.1      3.164      4.405
REMARK  Name = 
REMARK  7 active torsions:
REMARK  status: ('A' for Active; 'I' for Inactive)
REMARK    1  A    between atoms: C_1  and  C_2
REMARK    2  A    between atoms: C_2  and  C_3
REMARK    3  A    between atoms: C_3  and  C_4
REMARK    4  A    between atoms: C_4  and  C_5
REMARK    5  A    between atoms: C_4  and  C_6
REMARK    6  A    between atoms: C_6  and  C_7
REMARK    7  A    between atoms: C_7  and  C_8
REMARK                            x       y       z     vdW  Elec       q    Type
REMARK                         _______ _______ _______ _____ _____    ______ ____
ROOT
ATOM      1  C   UNL     1       8.549  -0.151  23.280  0.00  0.00    +0.126 C 
ATOM      2  C   UNL     1       9.077  -1.539  22.923  0.00  0.00    +0.234 C 
ATOM      3  O   UNL     1      10.253  -1.878  23.046  0.00  0.00    -0.274 OA
ATOM      4  N   UNL     1       8.172  -2.409  22.373  0.00  0.00    -0.267 N 
ATOM      5  H   UNL     1       8.549  -3.280  22.023  0.00  0.00    +0.157 HD
ATOM      6  C   UNL     1       6.822  -2.312  22.498  0.00  0.00    +0.143 C 
ATOM      7  S   UNL     1       5.809  -3.466  21.863  0.00  0.00    -0.018 S 
ATOM      8  N   UNL     1       6.336  -1.243  23.186  0.00  0.00    -0.267 N 
ATOM      9  H   UNL     1       5.342  -1.210  23.374  0.00  0.00    +0.157 HD
ATOM     10  C   UNL     1       7.079  -0.208  23.697  0.00  0.00    +0.234 C 
ATOM     11  O   UNL     1       6.531   0.659  24.375  0.00  0.00    -0.274 OA
ENDROOT
BRANCH   1  12
ATOM     12  C   UNL     1       8.666   0.793  22.001  0.00  0.00    +0.010 C 
ATOM     13  C   UNL     1       9.991   1.577  21.910  0.00  0.00    +0.009 C 
BRANCH  12  14
ATOM     14  C   UNL     1       7.470   1.776  21.864  0.00  0.00    +0.004 C 
BRANCH  14  16
ATOM     15  C   UNL     1       6.499   4.017  22.485  0.00  0.00    +0.004 C 
ATOM     16  C   UNL     1       7.777   3.217  22.286  0.00  0.00    -0.003 C 
ENDBRANCH  14  16
ENDBRANCH  12  14
ENDBRANCH   1  12
BRANCH   1  17
ATOM     17  C   UNL     1       9.372   0.448  24.458  0.00  0.00    +0.022 C 
ATOM     18  C   UNL     1       9.302  -0.331  25.771  0.00  0.00    +0.005 C 
ENDBRANCH   1  17
TORSDOF 4
ENDMDL
MODEL 4
REMARK VINA RESULT:      -5.0      2.851      4.703
REMARK  Name = 
REMARK  7 active torsions:
REMARK  status: ('A' for Active; 'I' for Inactive)
REMARK    1  A    between atoms: C_1  and  C_2
REMARK    2  A    between atoms: C_2  and  C_3
REMARK    3  A    between atoms: C_3  and  C_4
REMARK    4  A    between atoms: C_4  and  C_5
REMARK    5  A    between atoms: C_4  and  C_6
REMARK    6  A    between atoms: C_6  and  C_7
REMARK    7  A    between atoms: C_7  and  C_8
REMARK                            x       y       z     vdW  Elec       q    Type
REMARK                         _______ _______ _______ _____ _____    ______ ____
ROOT
ATOM      1  C   UNL     1       8.844   1.825  23.739  0.00  0.00    +0.126 C 
ATOM      2  C   UNL     1       9.770   1.972  22.533  0.00  0.00    +0.234 C 
ATOM      3  O   UNL     1       9.722   1.248  21.540  0.00  0.00    -0.274 OA
ATOM      4  N   UNL     1      10.742   2.934  22.629  0.00  0.00    -0.267 N 
ATOM      5  H   UNL     1      11.429   2.946  21.886  0.00  0.00    +0.157 HD
ATOM      6  C   UNL     1      10.702   4.003  23.468  0.00  0.00    +0.143 C 
ATOM      7  S   UNL     1      11.891   5.162  23.450  0.00  0.00    -0.018 S 
ATOM      8  N   UNL     1       9.633   4.096  24.306  0.00  0.00    -0.267 N 
ATOM      9  H   UNL     1       9.538   4.935  24.863  0.00  0.00    +0.157 HD
ATOM     10  C   UNL     1       8.631   3.167  24.441  0.00  0.00    +0.234 C 
ATOM     11  O   UNL     1       7.673   3.407  25.173  0.00  0.00    -0.274 OA
ENDROOT
BRANCH   1  12
ATOM     12  C   UNL     1       9.508   0.820  24.782  0.00  0.00    +0.010 C 
ATOM     13  C   UNL     1      11.037   0.674  24.639  0.00  0.00    +0.009 C 
BRANCH  12  14
ATOM     14  C   UNL     1       8.848  -0.589  24.769  0.00  0.00    +0.004 C 
BRANCH  14  16
ATOM     15  C   UNL     1       9.092  -2.040  22.722  0.00  0.00    +0.004 C 
ATOM     16  C   UNL     1       9.680  -1.675  24.077  0.00  0.00    -0.003 C 
ENDBRANCH  14  16
ENDBRANCH  12  14
ENDBRANCH   1  12
BRANCH   1  17
ATOM     17  C   UNL     1       7.458   1.281  23.287  0.00  0.00    +0.022 C 
ATOM     18  C   UNL     1       6.680   2.182  22.328  0.00  0.00    +0.005 C 
ENDBRANCH   1  17
TORSDOF 4
ENDMDL
MODEL 5
REMARK VINA RESULT:      -5.0      3.772      5.277
REMARK  Name = 
REMARK  7 active torsions:
REMARK  status: ('A' for Active; 'I' for Inactive)
REMARK    1  A    between atoms: C_1  and  C_2
REMARK    2  A    between atoms: C_2  and  C_3
REMARK    3  A    between atoms: C_3  and  C_4
REMARK    4  A    between atoms: C_4  and  C_5
REMARK    5  A    between atoms: C_4  and  C_6
REMARK    6  A    between atoms: C_6  and  C_7
REMARK    7  A    between atoms: C_7  and  C_8
REMARK                            x       y       z     vdW  Elec       q    Type
REMARK                         _______ _______ _______ _____ _____    ______ ____
ROOT
ATOM      1  C   UNL     1       8.283  -1.857  23.839  0.00  0.00    +0.126 C 
ATOM      2  C   UNL     1       8.736  -3.316  23.884  0.00  0.00    +0.234 C 
ATOM      3  O   UNL     1       9.805  -3.687  24.365  0.00  0.00    -0.274 OA
ATOM      4  N   UNL     1       7.906  -4.227  23.283  0.00  0.00    -0.267 N 
ATOM      5  H   UNL     1       8.265  -5.170  23.205  0.00  0.00    +0.157 HD
ATOM      6  C   UNL     1       6.583  -4.033  23.036  0.00  0.00    +0.143 C 
ATOM      7  S   UNL     1       5.642  -5.233  22.379  0.00  0.00    -0.018 S 
ATOM      8  N   UNL     1       6.058  -2.824  23.374  0.00  0.00    -0.267 N 
ATOM      9  H   UNL     1       5.058  -2.700  23.290  0.00  0.00    +0.157 HD
ATOM     10  C   UNL     1       6.758  -1.750  23.865  0.00  0.00    +0.234 C 
ATOM     11  O   UNL     1       6.154  -0.737  24.213  0.00  0.00    -0.274 OA
ENDROOT
BRANCH   1  12
ATOM     12  C   UNL     1       8.804  -1.195  22.486  0.00  0.00    +0.010 C 
ATOM     13  C   UNL     1      10.289  -1.473  22.174  0.00  0.00    +0.009 C 
BRANCH  12  14
ATOM     14  C   UNL     1       8.536   0.335  22.420  0.00  0.00    +0.004 C 
BRANCH  14  16
ATOM     15  C   UNL     1      10.131   2.250  22.794  0.00  0.00    +0.004 C 
ATOM     16  C   UNL     1       9.688   1.159  21.832  0.00  0.00    -0.003 C 
ENDBRANCH  14  16
ENDBRANCH  12  14
ENDBRANCH   1  12
BRANCH   1  17
ATOM     17  C   UNL     1       8.852  -1.082  25.062  0.00  0.00    +0.022 C 
ATOM     18  C   UNL     1       8.421  -1.607  26.431  0.00  0.00    +0.005 C 
ENDBRANCH   1  17
TORSDOF 4
ENDMDL
MODEL 6
REMARK VINA RESULT:      -5.0      3.308      4.493
REMARK  Name = 
REMARK  7 active torsions:
REMARK  status: ('A' for Active; 'I' for Inactive)
REMARK    1  A    between atoms: C_1  and  C_2
REMARK    2  A    between atoms: C_2  and  C_3
REMARK    3  A    between atoms: C_3  and  C_4
REMARK    4  A    between atoms: C_4  and  C_5
REMARK    5  A    between atoms: C_4  and  C_6
REMARK    6  A    between atoms: C_6  and  C_7
REMARK    7  A    between atoms: C_7  and  C_8
REMARK                            x       y       z     vdW  Elec       q    Type
REMARK                         _______ _______ _______ _____ _____    ______ ____
ROOT
ATOM      1  C   UNL     1       9.400  -0.881  24.502  0.00  0.00    +0.126 C 
ATOM      2  C   UNL     1       9.827  -2.094  23.676  0.00  0.00    +0.234 C 
ATOM      3  O   UNL     1      10.708  -2.064  22.819  0.00  0.00    -0.274 OA
ATOM      4  N   UNL     1       9.117  -3.248  23.884  0.00  0.00    -0.267 N 
ATOM      5  H   UNL     1       9.317  -4.012  23.251  0.00  0.00    +0.157 HD
ATOM      6  C   UNL     1       8.388  -3.526  24.997  0.00  0.00    +0.143 C 
ATOM      7  S   UNL     1       7.631  -4.992  25.191  0.00  0.00    -0.018 S 
ATOM      8  N   UNL     1       8.327  -2.564  25.957  0.00  0.00    -0.267 N 
ATOM      9  H   UNL     1       7.874  -2.793  26.832  0.00  0.00    +0.157 HD
ATOM     10  C   UNL     1       8.865  -1.303  25.871  0.00  0.00    +0.234 C 
ATOM     11  O   UNL     1       8.815  -0.552  26.842  0.00  0.00    -0.274 OA
ENDROOT
BRANCH   1  12
ATOM     12  C   UNL     1       8.238  -0.112  23.730  0.00  0.00    +0.010 C 
ATOM     13  C   UNL     1       6.821  -0.398  24.269  0.00  0.00    +0.009 C 
BRANCH  12  14
ATOM     14  C   UNL     1       8.268  -0.354  22.195  0.00  0.00    +0.004 C 
BRANCH  14  16
ATOM     15  C   UNL     1       8.044   2.094  21.637  0.00  0.00    +0.004 C 
ATOM     16  C   UNL     1       8.827   0.816  21.376  0.00  0.00    -0.003 C 
ENDBRANCH  14  16
ENDBRANCH  12  14
ENDBRANCH   1  12
BRANCH   1  17
ATOM     17  C   UNL     1      10.612   0.071  24.720  0.00  0.00    +0.022 C 
ATOM     18  C   UNL     1      10.339   1.552  24.461  0.00  0.00    +0.005 C 
ENDBRANCH   1  17
TORSDOF 4
ENDMDL
MODEL 7
REMARK VINA RESULT:      -5.0      5.797      8.287
REMARK  Name = 
REMARK  7 active torsions:
REMARK  status: ('A' for Active; 'I' for Inactive)
REMARK    1  A    between atoms: C_1  and  C_2
REMARK    2  A    between atoms: C_2  and  C_3
REMARK    3  A    between atoms: C_3  and  C_4
REMARK    4  A    between atoms: C_4  and  C_5
REMARK    5  A    between atoms: C_4  and  C_6
REMARK    6  A    between atoms: C_6  and  C_7
REMARK    7  A    between atoms: C_7  and  C_8
REMARK                            x       y       z     vdW  Elec       q    Type
REMARK                         _______ _______ _______ _____ _____    ______ ____
ROOT
ATOM      1  C   UNL     1       6.679  -4.412  23.494  0.00  0.00    +0.126 C 
ATOM      2  C   UNL     1       8.165  -4.364  23.849  0.00  0.00    +0.234 C 
ATOM      3  O   UNL     1       8.837  -5.358  24.119  0.00  0.00    -0.274 OA
ATOM      4  N   UNL     1       8.729  -3.117  23.926  0.00  0.00    -0.267 N 
ATOM      5  H   UNL     1       9.676  -3.080  24.281  0.00  0.00    +0.157 HD
ATOM      6  C   UNL     1       8.234  -1.998  23.334  0.00  0.00    +0.143 C 
ATOM      7  S   UNL     1       9.040  -0.548  23.416  0.00  0.00    -0.018 S 
ATOM      8  N   UNL     1       7.064  -2.122  22.650  0.00  0.00    -0.267 N 
ATOM      9  H   UNL     1       6.735  -1.325  22.121  0.00  0.00    +0.157 HD
ATOM     10  C   UNL     1       6.293  -3.256  22.571  0.00  0.00    +0.234 C 
ATOM     11  O   UNL     1       5.297  -3.265  21.850  0.00  0.00    -0.274 OA
ENDROOT
BRANCH   1  12
ATOM     12  C   UNL     1       5.823  -4.285  24.832  0.00  0.00    +0.010 C 
ATOM     13  C   UNL     1       5.737  -5.586  25.657  0.00  0.00    +0.009 C 
BRANCH  12  14
ATOM     14  C   UNL     1       4.391  -3.731  24.584  0.00  0.00    +0.004 C 
BRANCH  14  16
ATOM     15  C   UNL     1       2.716  -5.204  23.412  0.00  0.00    +0.004 C 
ATOM     16  C   UNL     1       3.270  -4.761  24.758  0.00  0.00    -0.003 C 
ENDBRANCH  14  16
ENDBRANCH  12  14
ENDBRANCH   1  12
BRANCH   1  17
ATOM     17  C   UNL     1       6.343  -5.750  22.775  0.00  0.00    +0.022 C 
ATOM     18  C   UNL     1       6.962  -5.923  21.388  0.00  0.00    +0.005 C 
ENDBRANCH   1  17
TORSDOF 4
ENDMDL
MODEL 8
REMARK VINA RESULT:      -5.0      5.291      6.459
REMARK  Name = 
REMARK  7 active torsions:
REMARK  status: ('A' for Active; 'I' for Inactive)
REMARK    1  A    between atoms: C_1  and  C_2
REMARK    2  A    between atoms: C_2  and  C_3
REMARK    3  A    between atoms: C_3  and  C_4
REMARK    4  A    between atoms: C_4  and  C_5
REMARK    5  A    between atoms: C_4  and  C_6
REMARK    6  A    between atoms: C_6  and  C_7
REMARK    7  A    between atoms: C_7  and  C_8
REMARK                            x       y       z     vdW  Elec       q    Type
REMARK                         _______ _______ _______ _____ _____    ______ ____
ROOT
ATOM      1  C   UNL     1       7.591  -4.202  24.484  0.00  0.00    +0.126 C 
ATOM      2  C   UNL     1       6.126  -4.261  24.915  0.00  0.00    +0.234 C 
ATOM      3  O   UNL     1       5.187  -3.909  24.203  0.00  0.00    -0.274 OA
ATOM      4  N   UNL     1       5.889  -4.672  26.202  0.00  0.00    -0.267 N 
ATOM      5  H   UNL     1       4.934  -4.591  26.524  0.00  0.00    +0.157 HD
ATOM      6  C   UNL     1       6.751  -5.401  26.959  0.00  0.00    +0.143 C 
ATOM      7  S   UNL     1       6.336  -5.923  28.481  0.00  0.00    -0.018 S 
ATOM      8  N   UNL     1       7.957  -5.707  26.409  0.00  0.00    -0.267 N 
ATOM      9  H   UNL     1       8.568  -6.332  26.918  0.00  0.00    +0.157 HD
ATOM     10  C   UNL     1       8.419  -5.277  25.189  0.00  0.00    +0.234 C 
ATOM     11  O   UNL     1       9.495  -5.693  24.765  0.00  0.00    -0.274 OA
ENDROOT
BRANCH   1  12
ATOM     12  C   UNL     1       8.189  -2.779  24.876  0.00  0.00    +0.010 C 
ATOM     13  C   UNL     1       7.231  -1.596  24.623  0.00  0.00    +0.009 C 
BRANCH  12  14
ATOM     14  C   UNL     1       9.559  -2.491  24.198  0.00  0.00    +0.004 C 
BRANCH  14  16
ATOM     15  C   UNL     1      10.087  -0.931  22.291  0.00  0.00    +0.004 C 
ATOM     16  C   UNL     1       9.767  -1.032  23.774  0.00  0.00    -0.003 C 
ENDBRANCH  14  16
ENDBRANCH  12  14
ENDBRANCH   1  12
BRANCH   1  17
ATOM     17  C   UNL     1       7.705  -4.422  22.947  0.00  0.00    +0.022 C 
ATOM     18  C   UNL     1       7.170  -5.758  22.433  0.00  0.00    +0.005 C 
ENDBRANCH   1  17
TORSDOF 4
ENDMDL
MODEL 9
REMARK VINA RESULT:      -5.0      3.235      4.727
REMARK  Name = 
REMARK  7 active torsions:
REMARK  status: ('A' for Active; 'I' for Inactive)
REMARK    1  A    between atoms: C_1  and  C_2
REMARK    2  A    between atoms: C_2  and  C_3
REMARK    3  A    between atoms: C_3  and  C_4
REMARK    4  A    between atoms: C_4  and  C_5
REMARK    5  A    between atoms: C_4  and  C_6
REMARK    6  A    between atoms: C_6  and  C_7
REMARK    7  A    between atoms: C_7  and  C_8
REMARK                            x       y       z     vdW  Elec       q    Type
REMARK                         _______ _______ _______ _____ _____    ______ ____
ROOT
ATOM      1  C   UNL     1       7.950  -1.206  23.266  0.00  0.00    +0.126 C 
ATOM      2  C   UNL     1       8.727  -1.231  24.581  0.00  0.00    +0.234 C 
ATOM      3  O   UNL     1       8.989  -0.227  25.241  0.00  0.00    -0.274 OA
ATOM      4  N   UNL     1       9.203  -2.453  24.980  0.00  0.00    -0.267 N 
ATOM      5  H   UNL     1       9.821  -2.448  25.782  0.00  0.00    +0.157 HD
ATOM      6  C   UNL     1       8.716  -3.653  24.567  0.00  0.00    +0.143 C 
ATOM      7  S   UNL     1       9.306  -5.082  25.175  0.00  0.00    -0.018 S 
ATOM      8  N   UNL     1       7.708  -3.634  23.653  0.00  0.00    -0.267 N 
ATOM      9  H   UNL     1       7.268  -4.512  23.411  0.00  0.00    +0.157 HD
ATOM     10  C   UNL     1       7.191  -2.516  23.046  0.00  0.00    +0.234 C 
ATOM     11  O   UNL     1       6.222  -2.622  22.298  0.00  0.00    -0.274 OA
ENDROOT
BRANCH   1  12
ATOM     12  C   UNL     1       8.975  -1.019  22.061  0.00  0.00    +0.010 C 
ATOM     13  C   UNL     1      10.421  -1.449  22.385  0.00  0.00    +0.009 C 
BRANCH  12  14
ATOM     14  C   UNL     1       8.979   0.427  21.489  0.00  0.00    +0.004 C 
BRANCH  14  16
ATOM     15  C   UNL     1       9.529   2.467  22.864  0.00  0.00    +0.004 C 
ATOM     16  C   UNL     1      10.096   1.325  22.034  0.00  0.00    -0.003 C 
ENDBRANCH  14  16
ENDBRANCH  12  14
ENDBRANCH   1  12
BRANCH   1  17
ATOM     17  C   UNL     1       6.922  -0.038  23.274  0.00  0.00    +0.022 C 
ATOM     18  C   UNL     1       5.962  -0.016  24.464  0.00  0.00    +0.005 C 
ENDBRANCH   1  17
TORSDOF 4
ENDMDL
