MODEL 1
REMARK VINA RESULT:      -6.8      0.000      0.000
REMARK  Name = 
REMARK  5 active torsions:
REMARK  status: ('A' for Active; 'I' for Inactive)
REMARK    1  A    between atoms: C_1  and  C_2
REMARK    2  A    between atoms: C_2  and  N_3
REMARK    3  A    between atoms: N_7  and  S_8
REMARK    4  A    between atoms: S_8  and  C_11
REMARK    5  A    between atoms: C_14  and  N_15
REMARK                            x       y       z     vdW  Elec       q    Type
REMARK                         _______ _______ _______ _____ _____    ______ ____
ROOT
ATOM      1  S   UNL     1       8.808  -4.489  25.767  0.00  0.00    +0.073 S 
ATOM      2  O   UNL     1       8.691  -4.996  27.117  0.00  0.00    -0.150 OA
ATOM      3  O   UNL     1      10.011  -4.730  24.993  0.00  0.00    -0.150 OA
ENDROOT
BRANCH   1   9
ATOM      4  N   UNL     1       9.143  -0.180  22.789  0.00  0.00    -0.299 N 
ATOM      5  C   UNL     1       9.795  -1.417  22.721  0.00  0.00    +0.350 A 
ATOM      6  O   UNL     1      10.536  -1.702  21.781  0.00  0.00    -0.244 OA
ATOM      7  N   UNL     1       9.602  -2.305  23.749  0.00  0.00    -0.177 NA
ATOM      8  C   UNL     1       8.834  -1.972  24.714  0.00  0.00    +0.145 A 
ATOM      9  N   UNL     1       8.655  -2.825  25.809  0.00  0.00    -0.199 N 
ATOM     10  H   UNL     1       8.251  -2.511  26.683  0.00  0.00    +0.175 HD
ATOM     11  C   UNL     1       8.079  -0.719  24.827  0.00  0.00    +0.063 A 
ATOM     12  C   UNL     1       8.277   0.130  23.816  0.00  0.00    +0.094 A 
BRANCH   4  14
ATOM     13  C   UNL     1      10.162   1.995  22.189  0.00  0.00    +0.027 C 
ATOM     14  C   UNL     1       9.373   0.784  21.717  0.00  0.00    +0.123 C 
ENDBRANCH   4  14
ENDBRANCH   1   9
BRANCH   1  15
ATOM     15  C   UNL     1       7.427  -5.037  24.804  0.00  0.00    +0.109 A 
ATOM     16  C   UNL     1       6.217  -5.331  25.434  0.00  0.00    +0.030 A 
ATOM     17  C   UNL     1       5.127  -5.760  24.673  0.00  0.00    +0.024 A 
ATOM     18  C   UNL     1       5.231  -5.885  23.286  0.00  0.00    +0.025 A 
ATOM     19  C   UNL     1       6.477  -5.687  22.684  0.00  0.00    +0.024 A 
ATOM     20  C   UNL     1       7.573  -5.246  23.432  0.00  0.00    +0.030 A 
BRANCH  18  21
ATOM     21  N   UNL     1       4.167  -6.423  22.549  0.00  0.00    -0.358 N 
ATOM     22  H   UNL     1       3.255  -6.175  22.922  0.00  0.00    +0.142 HD
ATOM     23  H   UNL     1       4.232  -6.247  21.553  0.00  0.00    +0.142 HD
ENDBRANCH  18  21
ENDBRANCH   1  15
TORSDOF 4
ENDMDL
MODEL 2
REMARK VINA RESULT:      -6.8      1.970      6.785
REMARK  Name = 
REMARK  5 active torsions:
REMARK  status: ('A' for Active; 'I' for Inactive)
REMARK    1  A    between atoms: C_1  and  C_2
REMARK    2  A    between atoms: C_2  and  N_3
REMARK    3  A    between atoms: N_7  and  S_8
REMARK    4  A    between atoms: S_8  and  C_11
REMARK    5  A    between atoms: C_14  and  N_15
REMARK                            x       y       z     vdW  Elec       q    Type
REMARK                         _______ _______ _______ _____ _____    ______ ____
ROOT
ATOM      1  S   UNL     1       9.055  -2.873  24.389  0.00  0.00    +0.073 S 
ATOM      2  O   UNL     1      10.177  -3.771  24.227  0.00  0.00    -0.150 OA
ATOM      3  O   UNL     1       8.538  -2.572  25.710  0.00  0.00    -0.150 OA
ENDROOT
BRANCH   1   9
ATOM      4  N   UNL     1       4.691  -5.730  24.980  0.00  0.00    -0.299 N 
ATOM      5  C   UNL     1       5.914  -5.738  25.662  0.00  0.00    +0.350 A 
ATOM      6  O   UNL     1       6.087  -6.432  26.664  0.00  0.00    -0.244 OA
ATOM      7  N   UNL     1       6.932  -4.961  25.170  0.00  0.00    -0.177 NA
ATOM      8  C   UNL     1       6.721  -4.261  24.122  0.00  0.00    +0.145 A 
ATOM      9  N   UNL     1       7.748  -3.499  23.555  0.00  0.00    -0.199 N 
ATOM     10  H   UNL     1       7.692  -3.123  22.615  0.00  0.00    +0.175 HD
ATOM     11  C   UNL     1       5.454  -4.164  23.387  0.00  0.00    +0.063 A 
ATOM     12  C   UNL     1       4.476  -4.923  23.883  0.00  0.00    +0.094 A 
BRANCH   4  14
ATOM     13  C   UNL     1       3.009  -7.445  24.382  0.00  0.00    +0.027 C 
ATOM     14  C   UNL     1       3.616  -6.583  25.478  0.00  0.00    +0.123 C 
ENDBRANCH   4  14
ENDBRANCH   1   9
BRANCH   1  15
ATOM     15  C   UNL     1       9.400  -1.336  23.580  0.00  0.00    +0.109 A 
ATOM     16  C   UNL     1       9.229  -1.228  22.198  0.00  0.00    +0.030 A 
ATOM     17  C   UNL     1       9.499  -0.014  21.561  0.00  0.00    +0.024 A 
ATOM     18  C   UNL     1       9.926   1.096  22.293  0.00  0.00    +0.025 A 
ATOM     19  C   UNL     1      10.192   0.942  23.657  0.00  0.00    +0.024 A 
ATOM     20  C   UNL     1       9.914  -0.264  24.310  0.00  0.00    +0.030 A 
BRANCH  18  21
ATOM     21  N   UNL     1      10.300   2.271  21.630  0.00  0.00    -0.358 N 
ATOM     22  H   UNL     1      11.130   2.160  21.054  0.00  0.00    +0.142 HD
ATOM     23  H   UNL     1       9.541   2.714  21.124  0.00  0.00    +0.142 HD
ENDBRANCH  18  21
ENDBRANCH   1  15
TORSDOF 4
ENDMDL
MODEL 3
REMARK VINA RESULT:      -6.7      2.440      6.961
REMARK  Name = 
REMARK  5 active torsions:
REMARK  status: ('A' for Active; 'I' for Inactive)
REMARK    1  A    between atoms: C_1  and  C_2
REMARK    2  A    between atoms: C_2  and  N_3
REMARK    3  A    between atoms: N_7  and  S_8
REMARK    4  A    between atoms: S_8  and  C_11
REMARK    5  A    between atoms: C_14  and  N_15
REMARK                            x       y       z     vdW  Elec       q    Type
REMARK                         _______ _______ _______ _____ _____    ______ ____
ROOT
ATOM      1  S   UNL     1       9.118  -2.209  23.384  0.00  0.00    +0.073 S 
ATOM      2  O   UNL     1       8.315  -2.545  22.230  0.00  0.00    -0.150 OA
ATOM      3  O   UNL     1      10.288  -2.997  23.721  0.00  0.00    -0.150 OA
ENDROOT
BRANCH   1   9
ATOM      4  N   UNL     1       5.848  -5.349  26.030  0.00  0.00    -0.299 N 
ATOM      5  C   UNL     1       6.160  -5.257  24.668  0.00  0.00    +0.350 A 
ATOM      6  O   UNL     1       5.722  -6.068  23.852  0.00  0.00    -0.244 OA
ATOM      7  N   UNL     1       6.954  -4.218  24.257  0.00  0.00    -0.177 NA
ATOM      8  C   UNL     1       7.383  -3.388  25.129  0.00  0.00    +0.145 A 
ATOM      9  N   UNL     1       8.150  -2.283  24.745  0.00  0.00    -0.199 N 
ATOM     10  H   UNL     1       8.310  -1.492  25.358  0.00  0.00    +0.175 HD
ATOM     11  C   UNL     1       7.142  -3.452  26.576  0.00  0.00    +0.063 A 
ATOM     12  C   UNL     1       6.370  -4.471  26.956  0.00  0.00    +0.094 A 
BRANCH   4  14
ATOM     13  C   UNL     1       5.156  -6.762  27.942  0.00  0.00    +0.027 C 
ATOM     14  C   UNL     1       4.973  -6.432  26.469  0.00  0.00    +0.123 C 
ENDBRANCH   4  14
ENDBRANCH   1   9
BRANCH   1  15
ATOM     15  C   UNL     1       9.618  -0.513  23.288  0.00  0.00    +0.109 A 
ATOM     16  C   UNL     1       9.562   0.157  22.064  0.00  0.00    +0.030 A 
ATOM     17  C   UNL     1       9.954   1.495  21.990  0.00  0.00    +0.024 A 
ATOM     18  C   UNL     1      10.389   2.175  23.129  0.00  0.00    +0.025 A 
ATOM     19  C   UNL     1      10.539   1.462  24.323  0.00  0.00    +0.024 A 
ATOM     20  C   UNL     1      10.139   0.126  24.415  0.00  0.00    +0.030 A 
BRANCH  18  21
ATOM     21  N   UNL     1      10.885   3.481  23.021  0.00  0.00    -0.358 N 
ATOM     22  H   UNL     1      11.331   3.813  23.871  0.00  0.00    +0.142 HD
ATOM     23  H   UNL     1      11.465   3.630  22.203  0.00  0.00    +0.142 HD
ENDBRANCH  18  21
ENDBRANCH   1  15
TORSDOF 4
ENDMDL
MODEL 4
REMARK VINA RESULT:      -6.5      1.568      2.214
REMARK  Name = 
REMARK  5 active torsions:
REMARK  status: ('A' for Active; 'I' for Inactive)
REMARK    1  A    between atoms: C_1  and  C_2
REMARK    2  A    between atoms: C_2  and  N_3
REMARK    3  A    between atoms: N_7  and  S_8
REMARK    4  A    between atoms: S_8  and  C_11
REMARK    5  A    between atoms: C_14  and  N_15
REMARK                            x       y       z     vdW  Elec       q    Type
REMARK                         _______ _______ _______ _____ _____    ______ ____
ROOT
ATOM      1  S   UNL     1       9.065  -3.859  24.849  0.00  0.00    +0.073 S 
ATOM      2  O   UNL     1       8.704  -2.958  25.921  0.00  0.00    -0.150 OA
ATOM      3  O   UNL     1      10.060  -4.893  25.061  0.00  0.00    -0.150 OA
ENDROOT
BRANCH   1   9
ATOM      4  N   UNL     1       8.497   0.718  22.343  0.00  0.00    -0.299 N 
ATOM      5  C   UNL     1       7.591  -0.078  23.054  0.00  0.00    +0.350 A 
ATOM      6  O   UNL     1       6.444   0.303  23.283  0.00  0.00    -0.244 OA
ATOM      7  N   UNL     1       8.011  -1.314  23.475  0.00  0.00    -0.177 NA
ATOM      8  C   UNL     1       9.205  -1.682  23.210  0.00  0.00    +0.145 A 
ATOM      9  N   UNL     1       9.655  -2.957  23.572  0.00  0.00    -0.199 N 
ATOM     10  H   UNL     1      10.497  -3.366  23.185  0.00  0.00    +0.175 HD
ATOM     11  C   UNL     1      10.223  -0.883  22.517  0.00  0.00    +0.063 A 
ATOM     12  C   UNL     1       9.797   0.317  22.119  0.00  0.00    +0.094 A 
BRANCH   4  14
ATOM     13  C   UNL     1       8.446   3.152  22.793  0.00  0.00    +0.027 C 
ATOM     14  C   UNL     1       8.046   2.020  21.860  0.00  0.00    +0.123 C 
ENDBRANCH   4  14
ENDBRANCH   1   9
BRANCH   1  15
ATOM     15  C   UNL     1       7.609  -4.634  24.207  0.00  0.00    +0.109 A 
ATOM     16  C   UNL     1       7.568  -5.030  22.868  0.00  0.00    +0.030 A 
ATOM     17  C   UNL     1       6.420  -5.644  22.363  0.00  0.00    +0.024 A 
ATOM     18  C   UNL     1       5.316  -5.879  23.186  0.00  0.00    +0.025 A 
ATOM     19  C   UNL     1       5.333  -5.384  24.493  0.00  0.00    +0.024 A 
ATOM     20  C   UNL     1       6.480  -4.778  25.015  0.00  0.00    +0.030 A 
BRANCH  18  21
ATOM     21  N   UNL     1       4.132  -6.392  22.641  0.00  0.00    -0.358 N 
ATOM     22  H   UNL     1       4.291  -7.126  21.956  0.00  0.00    +0.142 HD
ATOM     23  H   UNL     1       3.446  -6.663  23.337  0.00  0.00    +0.142 HD
ENDBRANCH  18  21
ENDBRANCH   1  15
TORSDOF 4
ENDMDL
MODEL 5
REMARK VINA RESULT:      -6.3      2.982      3.598
REMARK  Name = 
REMARK  5 active torsions:
REMARK  status: ('A' for Active; 'I' for Inactive)
REMARK    1  A    between atoms: C_1  and  C_2
REMARK    2  A    between atoms: C_2  and  N_3
REMARK    3  A    between atoms: N_7  and  S_8
REMARK    4  A    between atoms: S_8  and  C_11
REMARK    5  A    between atoms: C_14  and  N_15
REMARK                            x       y       z     vdW  Elec       q    Type
REMARK                         _______ _______ _______ _____ _____    ______ ____
ROOT
ATOM      1  S   UNL     1       6.620  -3.799  22.206  0.00  0.00    +0.073 S 
ATOM      2  O   UNL     1       6.566  -4.883  21.251  0.00  0.00    -0.150 OA
ATOM      3  O   UNL     1       5.538  -2.836  22.288  0.00  0.00    -0.150 OA
ENDROOT
BRANCH   1   9
ATOM      4  N   UNL     1       9.257   0.455  23.789  0.00  0.00    -0.299 N 
ATOM      5  C   UNL     1       7.895   0.132  23.824  0.00  0.00    +0.350 A 
ATOM      6  O   UNL     1       7.077   0.857  24.389  0.00  0.00    -0.244 OA
ATOM      7  N   UNL     1       7.487  -1.012  23.187  0.00  0.00    -0.177 NA
ATOM      8  C   UNL     1       8.362  -1.736  22.600  0.00  0.00    +0.145 A 
ATOM      9  N   UNL     1       7.982  -2.881  21.892  0.00  0.00    -0.199 N 
ATOM     10  H   UNL     1       8.598  -3.343  21.233  0.00  0.00    +0.175 HD
ATOM     11  C   UNL     1       9.809  -1.489  22.568  0.00  0.00    +0.063 A 
ATOM     12  C   UNL     1      10.186  -0.373  23.195  0.00  0.00    +0.094 A 
BRANCH   4  14
ATOM     13  C   UNL     1      10.541   2.554  23.512  0.00  0.00    +0.027 C 
ATOM     14  C   UNL     1       9.692   1.691  24.433  0.00  0.00    +0.123 C 
ENDBRANCH   4  14
ENDBRANCH   1   9
BRANCH   1  15
ATOM     15  C   UNL     1       6.889  -4.448  23.831  0.00  0.00    +0.109 A 
ATOM     16  C   UNL     1       8.180  -4.800  24.230  0.00  0.00    +0.030 A 
ATOM     17  C   UNL     1       8.393  -5.309  25.513  0.00  0.00    +0.024 A 
ATOM     18  C   UNL     1       7.329  -5.459  26.406  0.00  0.00    +0.025 A 
ATOM     19  C   UNL     1       6.030  -5.202  25.956  0.00  0.00    +0.024 A 
ATOM     20  C   UNL     1       5.805  -4.680  24.678  0.00  0.00    +0.030 A 
BRANCH  18  21
ATOM     21  N   UNL     1       7.537  -6.075  27.647  0.00  0.00    -0.358 N 
ATOM     22  H   UNL     1       7.295  -5.481  28.435  0.00  0.00    +0.142 HD
ATOM     23  H   UNL     1       7.118  -6.995  27.721  0.00  0.00    +0.142 HD
ENDBRANCH  18  21
ENDBRANCH   1  15
TORSDOF 4
ENDMDL
MODEL 6
REMARK VINA RESULT:      -6.2      2.621      6.126
REMARK  Name = 
REMARK  5 active torsions:
REMARK  status: ('A' for Active; 'I' for Inactive)
REMARK    1  A    between atoms: C_1  and  C_2
REMARK    2  A    between atoms: C_2  and  N_3
REMARK    3  A    between atoms: N_7  and  S_8
REMARK    4  A    between atoms: S_8  and  C_11
REMARK    5  A    between atoms: C_14  and  N_15
REMARK                            x       y       z     vdW  Elec       q    Type
REMARK                         _______ _______ _______ _____ _____    ______ ____
ROOT
ATOM      1  S   UNL     1       8.272  -1.077  26.343  0.00  0.00    +0.073 S 
ATOM      2  O   UNL     1       9.120  -0.781  27.476  0.00  0.00    -0.150 OA
ATOM      3  O   UNL     1       6.833  -0.932  26.443  0.00  0.00    -0.150 OA
ENDROOT
BRANCH   1   9
ATOM      4  N   UNL     1       6.418  -4.883  23.240  0.00  0.00    -0.299 N 
ATOM      5  C   UNL     1       5.795  -3.789  23.853  0.00  0.00    +0.350 A 
ATOM      6  O   UNL     1       4.619  -3.508  23.624  0.00  0.00    -0.244 OA
ATOM      7  N   UNL     1       6.528  -3.044  24.742  0.00  0.00    -0.177 NA
ATOM      8  C   UNL     1       7.743  -3.371  24.964  0.00  0.00    +0.145 A 
ATOM      9  N   UNL     1       8.508  -2.672  25.904  0.00  0.00    -0.199 N 
ATOM     10  H   UNL     1       9.380  -3.034  26.274  0.00  0.00    +0.175 HD
ATOM     11  C   UNL     1       8.475  -4.469  24.322  0.00  0.00    +0.063 A 
ATOM     12  C   UNL     1       7.746  -5.180  23.459  0.00  0.00    +0.094 A 
BRANCH   4  14
ATOM     13  C   UNL     1       6.246  -5.761  20.932  0.00  0.00    +0.027 C 
ATOM     14  C   UNL     1       5.632  -5.702  22.322  0.00  0.00    +0.123 C 
ENDBRANCH   4  14
ENDBRANCH   1   9
BRANCH   1  15
ATOM     15  C   UNL     1       8.812  -0.147  24.936  0.00  0.00    +0.109 A 
ATOM     16  C   UNL     1      10.140   0.277  24.855  0.00  0.00    +0.030 A 
ATOM     17  C   UNL     1      10.566   1.008  23.744  0.00  0.00    +0.024 A 
ATOM     18  C   UNL     1       9.681   1.309  22.706  0.00  0.00    +0.025 A 
ATOM     19  C   UNL     1       8.333   0.968  22.851  0.00  0.00    +0.024 A 
ATOM     20  C   UNL     1       7.895   0.226  23.952  0.00  0.00    +0.030 A 
BRANCH  18  21
ATOM     21  N   UNL     1      10.091   2.137  21.653  0.00  0.00    -0.358 N 
ATOM     22  H   UNL     1      10.737   2.865  21.944  0.00  0.00    +0.142 HD
ATOM     23  H   UNL     1      10.428   1.629  20.843  0.00  0.00    +0.142 HD
ENDBRANCH  18  21
ENDBRANCH   1  15
TORSDOF 4
ENDMDL
MODEL 7
REMARK VINA RESULT:      -6.1      2.335      6.798
REMARK  Name = 
REMARK  5 active torsions:
REMARK  status: ('A' for Active; 'I' for Inactive)
REMARK    1  A    between atoms: C_1  and  C_2
REMARK    2  A    between atoms: C_2  and  N_3
REMARK    3  A    between atoms: N_7  and  S_8
REMARK    4  A    between atoms: S_8  and  C_11
REMARK    5  A    between atoms: C_14  and  N_15
REMARK                            x       y       z     vdW  Elec       q    Type
REMARK                         _______ _______ _______ _____ _____    ______ ____
ROOT
ATOM      1  S   UNL     1       9.679  -1.550  23.067  0.00  0.00    +0.073 S 
ATOM      2  O   UNL     1      10.871  -1.861  22.309  0.00  0.00    -0.150 OA
ATOM      3  O   UNL     1       9.532  -2.019  24.431  0.00  0.00    -0.150 OA
ENDROOT
BRANCH   1   9
ATOM      4  N   UNL     1       5.477  -4.637  23.674  0.00  0.00    -0.299 N 
ATOM      5  C   UNL     1       6.734  -4.636  24.290  0.00  0.00    +0.350 A 
ATOM      6  O   UNL     1       6.990  -5.390  25.229  0.00  0.00    -0.244 OA
ATOM      7  N   UNL     1       7.691  -3.782  23.803  0.00  0.00    -0.177 NA
ATOM      8  C   UNL     1       7.394  -3.021  22.821  0.00  0.00    +0.145 A 
ATOM      9  N   UNL     1       8.356  -2.176  22.258  0.00  0.00    -0.199 N 
ATOM     10  H   UNL     1       8.233  -1.738  21.352  0.00  0.00    +0.175 HD
ATOM     11  C   UNL     1       6.086  -2.930  22.161  0.00  0.00    +0.063 A 
ATOM     12  C   UNL     1       5.169  -3.766  22.651  0.00  0.00    +0.094 A 
BRANCH   4  14
ATOM     13  C   UNL     1       3.058  -5.155  23.768  0.00  0.00    +0.027 C 
ATOM     14  C   UNL     1       4.467  -5.570  24.164  0.00  0.00    +0.123 C 
ENDBRANCH   4  14
ENDBRANCH   1   9
BRANCH   1  15
ATOM     15  C   UNL     1       9.411   0.200  23.065  0.00  0.00    +0.109 A 
ATOM     16  C   UNL     1       8.780   0.802  21.974  0.00  0.00    +0.030 A 
ATOM     17  C   UNL     1       8.566   2.183  21.975  0.00  0.00    +0.024 A 
ATOM     18  C   UNL     1       8.966   2.966  23.059  0.00  0.00    +0.025 A 
ATOM     19  C   UNL     1       9.690   2.364  24.094  0.00  0.00    +0.024 A 
ATOM     20  C   UNL     1       9.899   0.982  24.112  0.00  0.00    +0.030 A 
BRANCH  18  21
ATOM     21  N   UNL     1       8.849   4.360  22.999  0.00  0.00    -0.358 N 
ATOM     22  H   UNL     1       7.952   4.672  22.635  0.00  0.00    +0.142 HD
ATOM     23  H   UNL     1       9.092   4.829  23.865  0.00  0.00    +0.142 HD
ENDBRANCH  18  21
ENDBRANCH   1  15
TORSDOF 4
ENDMDL
MODEL 8
REMARK VINA RESULT:      -6.1      1.623      2.070
REMARK  Name = 
REMARK  5 active torsions:
REMARK  status: ('A' for Active; 'I' for Inactive)
REMARK    1  A    between atoms: C_1  and  C_2
REMARK    2  A    between atoms: C_2  and  N_3
REMARK    3  A    between atoms: N_7  and  S_8
REMARK    4  A    between atoms: S_8  and  C_11
REMARK    5  A    between atoms: C_14  and  N_15
REMARK                            x       y       z     vdW  Elec       q    Type
REMARK                         _______ _______ _______ _____ _____    ______ ____
ROOT
ATOM      1  S   UNL     1       8.119  -3.643  25.002  0.00  0.00    +0.073 S 
ATOM      2  O   UNL     1       8.357  -3.526  26.424  0.00  0.00    -0.150 OA
ATOM      3  O   UNL     1       9.204  -3.976  24.100  0.00  0.00    -0.150 OA
ENDROOT
BRANCH   1   9
ATOM      4  N   UNL     1       9.595   1.180  23.549  0.00  0.00    -0.299 N 
ATOM      5  C   UNL     1      10.139   0.272  24.465  0.00  0.00    +0.350 A 
ATOM      6  O   UNL     1      11.212   0.490  25.028  0.00  0.00    -0.244 OA
ATOM      7  N   UNL     1       9.429  -0.869  24.740  0.00  0.00    -0.177 NA
ATOM      8  C   UNL     1       8.314  -1.059  24.146  0.00  0.00    +0.145 A 
ATOM      9  N   UNL     1       7.532  -2.182  24.440  0.00  0.00    -0.199 N 
ATOM     10  H   UNL     1       6.557  -2.251  24.172  0.00  0.00    +0.175 HD
ATOM     11  C   UNL     1       7.710  -0.180  23.139  0.00  0.00    +0.063 A 
ATOM     12  C   UNL     1       8.416   0.923  22.883  0.00  0.00    +0.094 A 
BRANCH   4  14
ATOM     13  C   UNL     1       9.598   3.643  23.798  0.00  0.00    +0.027 C 
ATOM     14  C   UNL     1      10.328   2.414  23.280  0.00  0.00    +0.123 C 
ENDBRANCH   4  14
ENDBRANCH   1   9
BRANCH   1  15
ATOM     15  C   UNL     1       6.802  -4.790  24.711  0.00  0.00    +0.109 A 
ATOM     16  C   UNL     1       6.386  -5.048  23.403  0.00  0.00    +0.030 A 
ATOM     17  C   UNL     1       5.349  -5.955  23.173  0.00  0.00    +0.024 A 
ATOM     18  C   UNL     1       4.733  -6.617  24.237  0.00  0.00    +0.025 A 
ATOM     19  C   UNL     1       5.089  -6.271  25.544  0.00  0.00    +0.024 A 
ATOM     20  C   UNL     1       6.133  -5.373  25.788  0.00  0.00    +0.030 A 
BRANCH  18  21
ATOM     21  N   UNL     1       3.622  -7.438  24.003  0.00  0.00    -0.358 N 
ATOM     22  H   UNL     1       2.940  -7.021  23.375  0.00  0.00    +0.142 HD
ATOM     23  H   UNL     1       3.863  -8.383  23.728  0.00  0.00    +0.142 HD
ENDBRANCH  18  21
ENDBRANCH   1  15
TORSDOF 4
ENDMDL
MODEL 9
REMARK VINA RESULT:      -6.1      2.346      2.750
REMARK  Name = 
REMARK  5 active torsions:
REMARK  status: ('A' for Active; 'I' for Inactive)
REMARK    1  A    between atoms: C_1  and  C_2
REMARK    2  A    between atoms: C_2  and  N_3
REMARK    3  A    between atoms: N_7  and  S_8
REMARK    4  A    between atoms: S_8  and  C_11
REMARK    5  A    between atoms: C_14  and  N_15
REMARK                            x       y       z     vdW  Elec       q    Type
REMARK                         _______ _______ _______ _____ _____    ______ ____
ROOT
ATOM      1  S   UNL     1       6.282  -4.641  22.841  0.00  0.00    +0.073 S 
ATOM      2  O   UNL     1       7.552  -5.325  22.747  0.00  0.00    -0.150 OA
ATOM      3  O   UNL     1       5.597  -4.194  21.643  0.00  0.00    -0.150 OA
ENDROOT
BRANCH   1   9
ATOM      4  N   UNL     1       9.228  -0.318  23.273  0.00  0.00    -0.299 N 
ATOM      5  C   UNL     1       9.512  -1.599  22.784  0.00  0.00    +0.350 A 
ATOM      6  O   UNL     1      10.587  -1.856  22.242  0.00  0.00    -0.244 OA
ATOM      7  N   UNL     1       8.563  -2.576  22.944  0.00  0.00    -0.177 NA
ATOM      8  C   UNL     1       7.462  -2.276  23.520  0.00  0.00    +0.145 A 
ATOM      9  N   UNL     1       6.490  -3.255  23.753  0.00  0.00    -0.199 N 
ATOM     10  H   UNL     1       5.722  -3.116  24.398  0.00  0.00    +0.175 HD
ATOM     11  C   UNL     1       7.075  -0.947  24.009  0.00  0.00    +0.063 A 
ATOM     12  C   UNL     1       8.011  -0.011  23.842  0.00  0.00    +0.094 A 
BRANCH   4  14
ATOM     13  C   UNL     1       9.940   1.691  22.014  0.00  0.00    +0.027 C 
ATOM     14  C   UNL     1      10.249   0.716  23.139  0.00  0.00    +0.123 C 
ENDBRANCH   4  14
ENDBRANCH   1   9
BRANCH   1  15
ATOM     15  C   UNL     1       5.145  -5.621  23.780  0.00  0.00    +0.109 A 
ATOM     16  C   UNL     1       5.485  -6.026  25.072  0.00  0.00    +0.030 A 
ATOM     17  C   UNL     1       4.587  -6.797  25.814  0.00  0.00    +0.024 A 
ATOM     18  C   UNL     1       3.347  -7.157  25.281  0.00  0.00    +0.025 A 
ATOM     19  C   UNL     1       3.066  -6.833  23.950  0.00  0.00    +0.024 A 
ATOM     20  C   UNL     1       3.951  -6.051  23.201  0.00  0.00    +0.030 A 
BRANCH  18  21
ATOM     21  N   UNL     1       2.504  -8.023  25.990  0.00  0.00    -0.358 N 
ATOM     22  H   UNL     1       3.008  -8.691  26.566  0.00  0.00    +0.142 HD
ATOM     23  H   UNL     1       1.773  -7.548  26.508  0.00  0.00    +0.142 HD
ENDBRANCH  18  21
ENDBRANCH   1  15
TORSDOF 4
ENDMDL
