MODEL 1
REMARK VINA RESULT:      -6.3      0.000      0.000
REMARK  Name = 
REMARK  12 active torsions:
REMARK  status: ('A' for Active; 'I' for Inactive)
REMARK    1  A    between atoms: C_1  and  C_2
REMARK    2  A    between atoms: C_2  and  C_3
REMARK    3  A    between atoms: C_2  and  N_4
REMARK    4  A    between atoms: N_4  and  C_5
REMARK    5  A    between atoms: N_4  and  C_23
REMARK    6  A    between atoms: C_5  and  C_6
REMARK    7  A    between atoms: C_6  and  C_7
REMARK    8  A    between atoms: C_7  and  C_8
REMARK    9  A    between atoms: C_7  and  C_11
REMARK   10  A    between atoms: C_7  and  C_17
REMARK   11  A    between atoms: C_23  and  C_24
REMARK   12  A    between atoms: C_23  and  C_25
REMARK                            x       y       z     vdW  Elec       q    Type
REMARK                         _______ _______ _______ _____ _____    ______ ____
ROOT
ATOM      1  C   UNL     1       8.147  -3.591  24.712  0.00  0.00    +0.114 C 
ENDROOT
BRANCH   1   2
ATOM      2  C   UNL     1       9.023  -2.337  24.444  0.00  0.00    +0.061 A 
ATOM      3  C   UNL     1       9.788  -2.187  23.285  0.00  0.00    +0.025 A 
ATOM      4  C   UNL     1      10.426  -0.972  23.038  0.00  0.00    +0.003 A 
ATOM      5  C   UNL     1      10.366   0.038  23.987  0.00  0.00    +0.020 A 
ATOM      6  C   UNL     1       9.701  -0.226  25.165  0.00  0.00    +0.111 A 
ATOM      7  N   UNL     1       9.052  -1.387  25.416  0.00  0.00    -0.259 NA
ENDBRANCH   1   2
BRANCH   1   8
ATOM      8  C   UNL     1       7.432  -4.173  23.448  0.00  0.00    -0.027 A 
ATOM      9  C   UNL     1       6.673  -3.353  22.590  0.00  0.00    +0.005 A 
ATOM     10  C   UNL     1       6.025  -3.875  21.464  0.00  0.00    +0.000 A 
ATOM     11  C   UNL     1       6.135  -5.225  21.153  0.00  0.00    +0.000 A 
ATOM     12  C   UNL     1       6.925  -6.047  21.946  0.00  0.00    +0.000 A 
ATOM     13  C   UNL     1       7.586  -5.521  23.061  0.00  0.00    +0.005 A 
ENDBRANCH   1   8
BRANCH   1  14
ATOM     14  C   UNL     1       9.136  -4.624  25.379  0.00  0.00    +0.227 C 
ATOM     15  O   UNL     1      10.285  -4.870  25.009  0.00  0.00    -0.275 OA
ATOM     16  N   UNL     1       8.666  -5.297  26.480  0.00  0.00    -0.328 N 
ATOM     17  H   UNL     1       9.342  -5.868  26.972  0.00  0.00    +0.145 HD
ATOM     18  H   UNL     1       7.926  -4.875  27.033  0.00  0.00    +0.145 HD
ENDBRANCH   1  14
BRANCH   1  19
ATOM     19  C   UNL     1       7.015  -3.280  25.772  0.00  0.00    +0.042 C 
BRANCH  19  20
ATOM     20  C   UNL     1       5.600  -3.798  25.412  0.00  0.00    +0.086 C 
BRANCH  20  21
ATOM     21  N   UNL     1       5.237  -5.152  25.944  0.00  0.00    -0.297 NA
BRANCH  21  23
ATOM     22  C   UNL     1       3.519  -4.782  24.134  0.00  0.00    +0.024 C 
ATOM     23  C   UNL     1       4.088  -5.753  25.195  0.00  0.00    +0.051 C 
ATOM     24  C   UNL     1       4.387  -7.049  24.424  0.00  0.00    +0.024 C 
ENDBRANCH  21  23
BRANCH  21  25
ATOM     25  C   UNL     1       5.161  -5.152  27.439  0.00  0.00    +0.051 C 
ATOM     26  C   UNL     1       5.264  -6.579  28.033  0.00  0.00    +0.024 C 
ATOM     27  C   UNL     1       3.869  -4.573  28.039  0.00  0.00    +0.024 C 
ENDBRANCH  21  25
ENDBRANCH  20  21
ENDBRANCH  19  20
ENDBRANCH   1  19
TORSDOF 8
ENDMDL
MODEL 2
REMARK VINA RESULT:      -6.2      0.749      2.053
REMARK  Name = 
REMARK  12 active torsions:
REMARK  status: ('A' for Active; 'I' for Inactive)
REMARK    1  A    between atoms: C_1  and  C_2
REMARK    2  A    between atoms: C_2  and  C_3
REMARK    3  A    between atoms: C_2  and  N_4
REMARK    4  A    between atoms: N_4  and  C_5
REMARK    5  A    between atoms: N_4  and  C_23
REMARK    6  A    between atoms: C_5  and  C_6
REMARK    7  A    between atoms: C_6  and  C_7
REMARK    8  A    between atoms: C_7  and  C_8
REMARK    9  A    between atoms: C_7  and  C_11
REMARK   10  A    between atoms: C_7  and  C_17
REMARK   11  A    between atoms: C_23  and  C_24
REMARK   12  A    between atoms: C_23  and  C_25
REMARK                            x       y       z     vdW  Elec       q    Type
REMARK                         _______ _______ _______ _____ _____    ______ ____
ROOT
ATOM      1  C   UNL     1       7.993  -3.955  25.004  0.00  0.00    +0.114 C 
ENDROOT
BRANCH   1   2
ATOM      2  C   UNL     1       8.710  -2.578  25.027  0.00  0.00    +0.061 A 
ATOM      3  C   UNL     1       9.581  -2.167  24.015  0.00  0.00    +0.025 A 
ATOM      4  C   UNL     1      10.068  -0.860  24.021  0.00  0.00    +0.003 A 
ATOM      5  C   UNL     1       9.751  -0.016  25.075  0.00  0.00    +0.020 A 
ATOM      6  C   UNL     1       8.992  -0.531  26.104  0.00  0.00    +0.111 A 
ATOM      7  N   UNL     1       8.488  -1.786  26.109  0.00  0.00    -0.259 NA
ENDBRANCH   1   2
BRANCH   1   8
ATOM      8  C   UNL     1       7.348  -4.335  23.631  0.00  0.00    -0.027 A 
ATOM      9  C   UNL     1       6.509  -3.439  22.940  0.00  0.00    +0.005 A 
ATOM     10  C   UNL     1       5.923  -3.782  21.715  0.00  0.00    +0.000 A 
ATOM     11  C   UNL     1       6.177  -5.020  21.137  0.00  0.00    +0.000 A 
ATOM     12  C   UNL     1       7.049  -5.901  21.765  0.00  0.00    +0.000 A 
ATOM     13  C   UNL     1       7.646  -5.551  22.979  0.00  0.00    +0.005 A 
ENDBRANCH   1   8
BRANCH   1  14
ATOM     14  C   UNL     1       9.102  -4.982  25.457  0.00  0.00    +0.227 C 
ATOM     15  O   UNL     1       9.651  -5.820  24.739  0.00  0.00    -0.275 OA
ATOM     16  N   UNL     1       9.495  -4.919  26.771  0.00  0.00    -0.328 N 
ATOM     17  H   UNL     1      10.286  -5.497  27.027  0.00  0.00    +0.145 HD
ATOM     18  H   UNL     1       9.376  -4.045  27.276  0.00  0.00    +0.145 HD
ENDBRANCH   1  14
BRANCH   1  19
ATOM     19  C   UNL     1       6.837  -4.014  26.081  0.00  0.00    +0.042 C 
BRANCH  19  20
ATOM     20  C   UNL     1       6.037  -5.340  26.132  0.00  0.00    +0.086 C 
BRANCH  20  21
ATOM     21  N   UNL     1       4.568  -5.216  26.406  0.00  0.00    -0.297 NA
BRANCH  21  23
ATOM     22  C   UNL     1       5.091  -6.870  28.238  0.00  0.00    +0.024 C 
ATOM     23  C   UNL     1       4.221  -5.672  27.789  0.00  0.00    +0.051 C 
ATOM     24  C   UNL     1       4.380  -4.626  28.906  0.00  0.00    +0.024 C 
ENDBRANCH  21  23
BRANCH  21  25
ATOM     25  C   UNL     1       3.750  -5.758  25.276  0.00  0.00    +0.051 C 
ATOM     26  C   UNL     1       4.501  -6.855  24.480  0.00  0.00    +0.024 C 
ATOM     27  C   UNL     1       3.319  -4.733  24.214  0.00  0.00    +0.024 C 
ENDBRANCH  21  25
ENDBRANCH  20  21
ENDBRANCH  19  20
ENDBRANCH   1  19
TORSDOF 8
ENDMDL
MODEL 3
REMARK VINA RESULT:      -6.1      2.470      6.269
REMARK  Name = 
REMARK  12 active torsions:
REMARK  status: ('A' for Active; 'I' for Inactive)
REMARK    1  A    between atoms: C_1  and  C_2
REMARK    2  A    between atoms: C_2  and  C_3
REMARK    3  A    between atoms: C_2  and  N_4
REMARK    4  A    between atoms: N_4  and  C_5
REMARK    5  A    between atoms: N_4  and  C_23
REMARK    6  A    between atoms: C_5  and  C_6
REMARK    7  A    between atoms: C_6  and  C_7
REMARK    8  A    between atoms: C_7  and  C_8
REMARK    9  A    between atoms: C_7  and  C_11
REMARK   10  A    between atoms: C_7  and  C_17
REMARK   11  A    between atoms: C_23  and  C_24
REMARK   12  A    between atoms: C_23  and  C_25
REMARK                            x       y       z     vdW  Elec       q    Type
REMARK                         _______ _______ _______ _____ _____    ______ ____
ROOT
ATOM      1  C   UNL     1       5.848  -4.131  23.161  0.00  0.00    +0.114 C 
ENDROOT
BRANCH   1   2
ATOM      2  C   UNL     1       4.393  -4.332  23.667  0.00  0.00    +0.061 A 
ATOM      3  C   UNL     1       3.891  -3.675  24.793  0.00  0.00    +0.025 A 
ATOM      4  C   UNL     1       2.534  -3.783  25.099  0.00  0.00    +0.003 A 
ATOM      5  C   UNL     1       1.724  -4.610  24.336  0.00  0.00    +0.020 A 
ATOM      6  C   UNL     1       2.315  -5.329  23.319  0.00  0.00    +0.111 A 
ATOM      7  N   UNL     1       3.622  -5.221  22.986  0.00  0.00    -0.259 NA
ENDBRANCH   1   2
BRANCH   1   8
ATOM      8  C   UNL     1       6.957  -4.403  24.230  0.00  0.00    -0.027 A 
ATOM      9  C   UNL     1       6.646  -4.951  25.490  0.00  0.00    +0.005 A 
ATOM     10  C   UNL     1       7.637  -5.186  26.451  0.00  0.00    +0.000 A 
ATOM     11  C   UNL     1       8.967  -4.902  26.170  0.00  0.00    +0.000 A 
ATOM     12  C   UNL     1       9.314  -4.417  24.915  0.00  0.00    +0.000 A 
ATOM     13  C   UNL     1       8.325  -4.199  23.951  0.00  0.00    +0.005 A 
ENDBRANCH   1   8
BRANCH   1  14
ATOM     14  C   UNL     1       5.963  -5.086  21.910  0.00  0.00    +0.227 C 
ATOM     15  O   UNL     1       5.925  -4.740  20.728  0.00  0.00    -0.275 OA
ATOM     16  N   UNL     1       6.135  -6.422  22.174  0.00  0.00    -0.328 N 
ATOM     17  H   UNL     1       6.327  -7.012  21.374  0.00  0.00    +0.145 HD
ATOM     18  H   UNL     1       6.547  -6.696  23.061  0.00  0.00    +0.145 HD
ENDBRANCH   1  14
BRANCH   1  19
ATOM     19  C   UNL     1       6.071  -2.655  22.641  0.00  0.00    +0.042 C 
BRANCH  19  20
ATOM     20  C   UNL     1       6.234  -1.575  23.740  0.00  0.00    +0.086 C 
BRANCH  20  21
ATOM     21  N   UNL     1       7.381  -0.625  23.570  0.00  0.00    -0.297 NA
BRANCH  21  23
ATOM     22  C   UNL     1       7.479  -1.191  26.026  0.00  0.00    +0.024 C 
ATOM     23  C   UNL     1       8.091  -0.375  24.863  0.00  0.00    +0.051 C 
ATOM     24  C   UNL     1       9.591  -0.715  24.888  0.00  0.00    +0.024 C 
ENDBRANCH  21  23
BRANCH  21  25
ATOM     25  C   UNL     1       6.990   0.569  22.756  0.00  0.00    +0.051 C 
ATOM     26  C   UNL     1       8.203   1.219  22.044  0.00  0.00    +0.024 C 
ATOM     27  C   UNL     1       6.334   1.720  23.537  0.00  0.00    +0.024 C 
ENDBRANCH  21  25
ENDBRANCH  20  21
ENDBRANCH  19  20
ENDBRANCH   1  19
TORSDOF 8
ENDMDL
MODEL 4
REMARK VINA RESULT:      -5.9      2.418      6.259
REMARK  Name = 
REMARK  12 active torsions:
REMARK  status: ('A' for Active; 'I' for Inactive)
REMARK    1  A    between atoms: C_1  and  C_2
REMARK    2  A    between atoms: C_2  and  C_3
REMARK    3  A    between atoms: C_2  and  N_4
REMARK    4  A    between atoms: N_4  and  C_5
REMARK    5  A    between atoms: N_4  and  C_23
REMARK    6  A    between atoms: C_5  and  C_6
REMARK    7  A    between atoms: C_6  and  C_7
REMARK    8  A    between atoms: C_7  and  C_8
REMARK    9  A    between atoms: C_7  and  C_11
REMARK   10  A    between atoms: C_7  and  C_17
REMARK   11  A    between atoms: C_23  and  C_24
REMARK   12  A    between atoms: C_23  and  C_25
REMARK                            x       y       z     vdW  Elec       q    Type
REMARK                         _______ _______ _______ _____ _____    ______ ____
ROOT
ATOM      1  C   UNL     1       5.534  -4.875  23.417  0.00  0.00    +0.114 C 
ENDROOT
BRANCH   1   2
ATOM      2  C   UNL     1       4.391  -5.868  23.758  0.00  0.00    +0.061 A 
ATOM      3  C   UNL     1       4.470  -6.769  24.822  0.00  0.00    +0.025 A 
ATOM      4  C   UNL     1       3.347  -7.522  25.167  0.00  0.00    +0.003 A 
ATOM      5  C   UNL     1       2.199  -7.431  24.394  0.00  0.00    +0.020 A 
ATOM      6  C   UNL     1       2.236  -6.618  23.281  0.00  0.00    +0.111 A 
ATOM      7  N   UNL     1       3.303  -5.859  22.943  0.00  0.00    -0.259 NA
ENDBRANCH   1   2
BRANCH   1   8
ATOM      8  C   UNL     1       6.731  -4.882  24.424  0.00  0.00    -0.027 A 
ATOM      9  C   UNL     1       8.042  -5.184  24.006  0.00  0.00    +0.005 A 
ATOM     10  C   UNL     1       9.112  -5.200  24.909  0.00  0.00    +0.000 A 
ATOM     11  C   UNL     1       8.905  -4.893  26.248  0.00  0.00    +0.000 A 
ATOM     12  C   UNL     1       7.635  -4.533  26.679  0.00  0.00    +0.000 A 
ATOM     13  C   UNL     1       6.570  -4.501  25.773  0.00  0.00    +0.005 A 
ENDBRANCH   1   8
BRANCH   1  14
ATOM     14  C   UNL     1       5.972  -5.269  21.953  0.00  0.00    +0.227 C 
ATOM     15  O   UNL     1       6.111  -4.494  21.005  0.00  0.00    -0.275 OA
ATOM     16  N   UNL     1       6.231  -6.598  21.728  0.00  0.00    -0.328 N 
ATOM     17  H   UNL     1       6.624  -6.828  20.824  0.00  0.00    +0.145 HD
ATOM     18  H   UNL     1       6.503  -7.183  22.513  0.00  0.00    +0.145 HD
ENDBRANCH   1  14
BRANCH   1  19
ATOM     19  C   UNL     1       4.999  -3.388  23.357  0.00  0.00    +0.042 C 
BRANCH  19  20
ATOM     20  C   UNL     1       6.029  -2.323  22.904  0.00  0.00    +0.086 C 
BRANCH  20  21
ATOM     21  N   UNL     1       6.760  -1.602  23.996  0.00  0.00    -0.297 NA
BRANCH  21  23
ATOM     22  C   UNL     1       5.912  -0.634  26.167  0.00  0.00    +0.024 C 
ATOM     23  C   UNL     1       5.912  -0.539  24.623  0.00  0.00    +0.051 C 
ATOM     24  C   UNL     1       6.313   0.914  24.315  0.00  0.00    +0.024 C 
ENDBRANCH  21  23
BRANCH  21  25
ATOM     25  C   UNL     1       8.143  -1.220  23.573  0.00  0.00    +0.051 C 
ATOM     26  C   UNL     1       8.597  -1.971  22.296  0.00  0.00    +0.024 C 
ATOM     27  C   UNL     1       9.254  -1.494  24.600  0.00  0.00    +0.024 C 
ENDBRANCH  21  25
ENDBRANCH  20  21
ENDBRANCH  19  20
ENDBRANCH   1  19
TORSDOF 8
ENDMDL
MODEL 5
REMARK VINA RESULT:      -5.7      1.766      2.293
REMARK  Name = 
REMARK  12 active torsions:
REMARK  status: ('A' for Active; 'I' for Inactive)
REMARK    1  A    between atoms: C_1  and  C_2
REMARK    2  A    between atoms: C_2  and  C_3
REMARK    3  A    between atoms: C_2  and  N_4
REMARK    4  A    between atoms: N_4  and  C_5
REMARK    5  A    between atoms: N_4  and  C_23
REMARK    6  A    between atoms: C_5  and  C_6
REMARK    7  A    between atoms: C_6  and  C_7
REMARK    8  A    between atoms: C_7  and  C_8
REMARK    9  A    between atoms: C_7  and  C_11
REMARK   10  A    between atoms: C_7  and  C_17
REMARK   11  A    between atoms: C_23  and  C_24
REMARK   12  A    between atoms: C_23  and  C_25
REMARK                            x       y       z     vdW  Elec       q    Type
REMARK                         _______ _______ _______ _____ _____    ______ ____
ROOT
ATOM      1  C   UNL     1       7.215  -2.134  23.817  0.00  0.00    +0.114 C 
ENDROOT
BRANCH   1   2
ATOM      2  C   UNL     1       7.888  -0.986  23.017  0.00  0.00    +0.061 A 
ATOM      3  C   UNL     1       9.010  -1.189  22.209  0.00  0.00    +0.025 A 
ATOM      4  C   UNL     1       9.467  -0.149  21.399  0.00  0.00    +0.003 A 
ATOM      5  C   UNL     1       8.858   1.094  21.473  0.00  0.00    +0.020 A 
ATOM      6  C   UNL     1       7.839   1.258  22.387  0.00  0.00    +0.111 A 
ATOM      7  N   UNL     1       7.361   0.258  23.164  0.00  0.00    -0.259 NA
ENDBRANCH   1   2
BRANCH   1   8
ATOM      8  C   UNL     1       7.024  -3.465  23.018  0.00  0.00    -0.027 A 
ATOM      9  C   UNL     1       6.211  -3.523  21.869  0.00  0.00    +0.005 A 
ATOM     10  C   UNL     1       6.031  -4.716  21.159  0.00  0.00    +0.000 A 
ATOM     11  C   UNL     1       6.677  -5.878  21.564  0.00  0.00    +0.000 A 
ATOM     12  C   UNL     1       7.533  -5.839  22.657  0.00  0.00    +0.000 A 
ATOM     13  C   UNL     1       7.724  -4.643  23.355  0.00  0.00    +0.005 A 
ENDBRANCH   1   8
BRANCH   1  14
ATOM     14  C   UNL     1       8.133  -2.316  25.088  0.00  0.00    +0.227 C 
ATOM     15  O   UNL     1       8.542  -3.388  25.538  0.00  0.00    -0.275 OA
ATOM     16  N   UNL     1       8.516  -1.168  25.736  0.00  0.00    -0.328 N 
ATOM     17  H   UNL     1       9.198  -1.282  26.476  0.00  0.00    +0.145 HD
ATOM     18  H   UNL     1       8.540  -0.297  25.215  0.00  0.00    +0.145 HD
ENDBRANCH   1  14
BRANCH   1  19
ATOM     19  C   UNL     1       5.784  -1.705  24.335  0.00  0.00    +0.042 C 
BRANCH  19  20
ATOM     20  C   UNL     1       5.248  -2.499  25.553  0.00  0.00    +0.086 C 
BRANCH  20  21
ATOM     21  N   UNL     1       4.732  -3.877  25.270  0.00  0.00    -0.297 NA
BRANCH  21  23
ATOM     22  C   UNL     1       3.209  -4.921  23.550  0.00  0.00    +0.024 C 
ATOM     23  C   UNL     1       3.371  -3.843  24.647  0.00  0.00    +0.051 C 
ATOM     24  C   UNL     1       2.185  -4.067  25.601  0.00  0.00    +0.024 C 
ENDBRANCH  21  23
BRANCH  21  25
ATOM     25  C   UNL     1       4.932  -4.790  26.439  0.00  0.00    +0.051 C 
ATOM     26  C   UNL     1       5.776  -4.134  27.560  0.00  0.00    +0.024 C 
ATOM     27  C   UNL     1       5.653  -6.114  26.133  0.00  0.00    +0.024 C 
ENDBRANCH  21  25
ENDBRANCH  20  21
ENDBRANCH  19  20
ENDBRANCH   1  19
TORSDOF 8
ENDMDL
MODEL 6
REMARK VINA RESULT:      -5.6      1.614      5.667
REMARK  Name = 
REMARK  12 active torsions:
REMARK  status: ('A' for Active; 'I' for Inactive)
REMARK    1  A    between atoms: C_1  and  C_2
REMARK    2  A    between atoms: C_2  and  C_3
REMARK    3  A    between atoms: C_2  and  N_4
REMARK    4  A    between atoms: N_4  and  C_5
REMARK    5  A    between atoms: N_4  and  C_23
REMARK    6  A    between atoms: C_5  and  C_6
REMARK    7  A    between atoms: C_6  and  C_7
REMARK    8  A    between atoms: C_7  and  C_8
REMARK    9  A    between atoms: C_7  and  C_11
REMARK   10  A    between atoms: C_7  and  C_17
REMARK   11  A    between atoms: C_23  and  C_24
REMARK   12  A    between atoms: C_23  and  C_25
REMARK                            x       y       z     vdW  Elec       q    Type
REMARK                         _______ _______ _______ _____ _____    ______ ____
ROOT
ATOM      1  C   UNL     1       7.572  -3.967  25.121  0.00  0.00    +0.114 C 
ENDROOT
BRANCH   1   2
ATOM      2  C   UNL     1       7.216  -4.347  23.657  0.00  0.00    +0.061 A 
ATOM      3  C   UNL     1       7.630  -5.544  23.069  0.00  0.00    +0.025 A 
ATOM      4  C   UNL     1       7.147  -5.890  21.808  0.00  0.00    +0.003 A 
ATOM      5  C   UNL     1       6.333  -5.002  21.119  0.00  0.00    +0.020 A 
ATOM      6  C   UNL     1       6.071  -3.783  21.707  0.00  0.00    +0.111 A 
ATOM      7  N   UNL     1       6.507  -3.436  22.940  0.00  0.00    -0.259 NA
ENDBRANCH   1   2
BRANCH   1   8
ATOM      8  C   UNL     1       6.575  -4.508  26.198  0.00  0.00    -0.027 A 
ATOM      9  C   UNL     1       6.091  -3.683  27.233  0.00  0.00    +0.005 A 
ATOM     10  C   UNL     1       5.207  -4.170  28.204  0.00  0.00    +0.000 A 
ATOM     11  C   UNL     1       4.765  -5.486  28.154  0.00  0.00    +0.000 A 
ATOM     12  C   UNL     1       5.176  -6.307  27.111  0.00  0.00    +0.000 A 
ATOM     13  C   UNL     1       6.046  -5.815  26.134  0.00  0.00    +0.005 A 
ENDBRANCH   1   8
BRANCH   1  14
ATOM     14  C   UNL     1       9.038  -4.514  25.323  0.00  0.00    +0.227 C 
ATOM     15  O   UNL     1       9.938  -4.502  24.481  0.00  0.00    -0.275 OA
ATOM     16  N   UNL     1       9.332  -5.037  26.558  0.00  0.00    -0.328 N 
ATOM     17  H   UNL     1      10.303  -5.276  26.719  0.00  0.00    +0.145 HD
ATOM     18  H   UNL     1       8.791  -4.730  27.360  0.00  0.00    +0.145 HD
ENDBRANCH   1  14
BRANCH   1  19
ATOM     19  C   UNL     1       7.631  -2.398  25.304  0.00  0.00    +0.042 C 
BRANCH  19  20
ATOM     20  C   UNL     1       8.925  -1.713  24.796  0.00  0.00    +0.086 C 
BRANCH  20  21
ATOM     21  N   UNL     1       8.756  -0.359  24.175  0.00  0.00    -0.297 NA
BRANCH  21  23
ATOM     22  C   UNL     1       7.924   1.672  25.421  0.00  0.00    +0.024 C 
ATOM     23  C   UNL     1       7.550   0.350  24.710  0.00  0.00    +0.051 C 
ATOM     24  C   UNL     1       6.484   0.746  23.675  0.00  0.00    +0.024 C 
ENDBRANCH  21  23
BRANCH  21  25
ATOM     25  C   UNL     1       8.921  -0.411  22.688  0.00  0.00    +0.051 C 
ATOM     26  C   UNL     1       9.571  -1.735  22.215  0.00  0.00    +0.024 C 
ATOM     27  C   UNL     1       9.799   0.694  22.078  0.00  0.00    +0.024 C 
ENDBRANCH  21  25
ENDBRANCH  20  21
ENDBRANCH  19  20
ENDBRANCH   1  19
TORSDOF 8
ENDMDL
MODEL 7
REMARK VINA RESULT:      -5.6      1.950      5.910
REMARK  Name = 
REMARK  12 active torsions:
REMARK  status: ('A' for Active; 'I' for Inactive)
REMARK    1  A    between atoms: C_1  and  C_2
REMARK    2  A    between atoms: C_2  and  C_3
REMARK    3  A    between atoms: C_2  and  N_4
REMARK    4  A    between atoms: N_4  and  C_5
REMARK    5  A    between atoms: N_4  and  C_23
REMARK    6  A    between atoms: C_5  and  C_6
REMARK    7  A    between atoms: C_6  and  C_7
REMARK    8  A    between atoms: C_7  and  C_8
REMARK    9  A    between atoms: C_7  and  C_11
REMARK   10  A    between atoms: C_7  and  C_17
REMARK   11  A    between atoms: C_23  and  C_24
REMARK   12  A    between atoms: C_23  and  C_25
REMARK                            x       y       z     vdW  Elec       q    Type
REMARK                         _______ _______ _______ _____ _____    ______ ____
ROOT
ATOM      1  C   UNL     1       7.273  -3.883  25.218  0.00  0.00    +0.114 C 
ENDROOT
BRANCH   1   2
ATOM      2  C   UNL     1       6.921  -4.459  23.819  0.00  0.00    +0.061 A 
ATOM      3  C   UNL     1       5.886  -3.947  23.033  0.00  0.00    +0.025 A 
ATOM      4  C   UNL     1       5.726  -4.408  21.727  0.00  0.00    +0.003 A 
ATOM      5  C   UNL     1       6.538  -5.430  21.258  0.00  0.00    +0.020 A 
ATOM      6  C   UNL     1       7.452  -5.977  22.132  0.00  0.00    +0.111 A 
ATOM      7  N   UNL     1       7.644  -5.529  23.394  0.00  0.00    -0.259 NA
ENDBRANCH   1   2
BRANCH   1   8
ATOM      8  C   UNL     1       6.118  -3.087  25.908  0.00  0.00    -0.027 A 
ATOM      9  C   UNL     1       4.768  -3.449  25.732  0.00  0.00    +0.005 A 
ATOM     10  C   UNL     1       3.732  -2.730  26.342  0.00  0.00    +0.000 A 
ATOM     11  C   UNL     1       4.018  -1.646  27.161  0.00  0.00    +0.000 A 
ATOM     12  C   UNL     1       5.342  -1.301  27.403  0.00  0.00    +0.000 A 
ATOM     13  C   UNL     1       6.375  -2.029  26.807  0.00  0.00    +0.005 A 
ENDBRANCH   1   8
BRANCH   1  14
ATOM     14  C   UNL     1       7.728  -5.140  26.056  0.00  0.00    +0.227 C 
ATOM     15  O   UNL     1       6.984  -5.930  26.639  0.00  0.00    -0.275 OA
ATOM     16  N   UNL     1       9.080  -5.374  26.125  0.00  0.00    -0.328 N 
ATOM     17  H   UNL     1       9.358  -6.244  26.562  0.00  0.00    +0.145 HD
ATOM     18  H   UNL     1       9.676  -5.015  25.385  0.00  0.00    +0.145 HD
ENDBRANCH   1  14
BRANCH   1  19
ATOM     19  C   UNL     1       8.513  -2.906  25.136  0.00  0.00    +0.042 C 
BRANCH  19  20
ATOM     20  C   UNL     1       8.512  -1.921  23.940  0.00  0.00    +0.086 C 
BRANCH  20  21
ATOM     21  N   UNL     1       8.912  -0.509  24.245  0.00  0.00    -0.297 NA
BRANCH  21  23
ATOM     22  C   UNL     1       6.483  -0.278  23.604  0.00  0.00    +0.024 C 
ATOM     23  C   UNL     1       7.762   0.438  24.096  0.00  0.00    +0.051 C 
ATOM     24  C   UNL     1       7.332   1.185  25.370  0.00  0.00    +0.024 C 
ENDBRANCH  21  23
BRANCH  21  25
ATOM     25  C   UNL     1      10.197  -0.144  23.569  0.00  0.00    +0.051 C 
ATOM     26  C   UNL     1      11.067   0.804  24.432  0.00  0.00    +0.024 C 
ATOM     27  C   UNL     1      10.057   0.578  22.219  0.00  0.00    +0.024 C 
ENDBRANCH  21  25
ENDBRANCH  20  21
ENDBRANCH  19  20
ENDBRANCH   1  19
TORSDOF 8
ENDMDL
MODEL 8
REMARK VINA RESULT:      -5.6      1.550      5.729
REMARK  Name = 
REMARK  12 active torsions:
REMARK  status: ('A' for Active; 'I' for Inactive)
REMARK    1  A    between atoms: C_1  and  C_2
REMARK    2  A    between atoms: C_2  and  C_3
REMARK    3  A    between atoms: C_2  and  N_4
REMARK    4  A    between atoms: N_4  and  C_5
REMARK    5  A    between atoms: N_4  and  C_23
REMARK    6  A    between atoms: C_5  and  C_6
REMARK    7  A    between atoms: C_6  and  C_7
REMARK    8  A    between atoms: C_7  and  C_8
REMARK    9  A    between atoms: C_7  and  C_11
REMARK   10  A    between atoms: C_7  and  C_17
REMARK   11  A    between atoms: C_23  and  C_24
REMARK   12  A    between atoms: C_23  and  C_25
REMARK                            x       y       z     vdW  Elec       q    Type
REMARK                         _______ _______ _______ _____ _____    ______ ____
ROOT
ATOM      1  C   UNL     1       7.435  -4.039  25.127  0.00  0.00    +0.114 C 
ENDROOT
BRANCH   1   2
ATOM      2  C   UNL     1       7.123  -4.412  23.652  0.00  0.00    +0.061 A 
ATOM      3  C   UNL     1       7.562  -5.602  23.068  0.00  0.00    +0.025 A 
ATOM      4  C   UNL     1       7.116  -5.943  21.791  0.00  0.00    +0.003 A 
ATOM      5  C   UNL     1       6.314  -5.057  21.087  0.00  0.00    +0.020 A 
ATOM      6  C   UNL     1       6.026  -3.844  21.675  0.00  0.00    +0.111 A 
ATOM      7  N   UNL     1       6.426  -3.501  22.922  0.00  0.00    -0.259 NA
ENDBRANCH   1   2
BRANCH   1   8
ATOM      8  C   UNL     1       6.430  -4.618  26.176  0.00  0.00    -0.027 A 
ATOM      9  C   UNL     1       5.927  -5.929  26.066  0.00  0.00    +0.005 A 
ATOM     10  C   UNL     1       5.018  -6.445  27.000  0.00  0.00    +0.000 A 
ATOM     11  C   UNL     1       4.607  -5.673  28.079  0.00  0.00    +0.000 A 
ATOM     12  C   UNL     1       5.132  -4.398  28.248  0.00  0.00    +0.000 A 
ATOM     13  C   UNL     1       6.051  -3.890  27.324  0.00  0.00    +0.005 A 
ENDBRANCH   1   8
BRANCH   1  14
ATOM     14  C   UNL     1       8.911  -4.550  25.356  0.00  0.00    +0.227 C 
ATOM     15  O   UNL     1       9.809  -4.571  24.513  0.00  0.00    -0.275 OA
ATOM     16  N   UNL     1       9.215  -4.997  26.618  0.00  0.00    -0.328 N 
ATOM     17  H   UNL     1      10.189  -5.212  26.791  0.00  0.00    +0.145 HD
ATOM     18  H   UNL     1       8.669  -4.654  27.403  0.00  0.00    +0.145 HD
ENDBRANCH   1  14
BRANCH   1  19
ATOM     19  C   UNL     1       7.449  -2.471  25.328  0.00  0.00    +0.042 C 
BRANCH  19  20
ATOM     20  C   UNL     1       8.704  -1.738  24.790  0.00  0.00    +0.086 C 
BRANCH  20  21
ATOM     21  N   UNL     1       8.451  -0.595  23.853  0.00  0.00    -0.297 NA
BRANCH  21  23
ATOM     22  C   UNL     1      10.414  -1.664  22.684  0.00  0.00    +0.024 C 
ATOM     23  C   UNL     1       9.607  -0.368  22.930  0.00  0.00    +0.051 C 
ATOM     24  C   UNL     1       9.259   0.154  21.526  0.00  0.00    +0.024 C 
ENDBRANCH  21  23
BRANCH  21  25
ATOM     25  C   UNL     1       7.901   0.595  24.576  0.00  0.00    +0.051 C 
ATOM     26  C   UNL     1       6.667   1.200  23.860  0.00  0.00    +0.024 C 
ATOM     27  C   UNL     1       8.871   1.777  24.745  0.00  0.00    +0.024 C 
ENDBRANCH  21  25
ENDBRANCH  20  21
ENDBRANCH  19  20
ENDBRANCH   1  19
TORSDOF 8
ENDMDL
MODEL 9
REMARK VINA RESULT:      -5.5      2.773      5.748
REMARK  Name = 
REMARK  12 active torsions:
REMARK  status: ('A' for Active; 'I' for Inactive)
REMARK    1  A    between atoms: C_1  and  C_2
REMARK    2  A    between atoms: C_2  and  C_3
REMARK    3  A    between atoms: C_2  and  N_4
REMARK    4  A    between atoms: N_4  and  C_5
REMARK    5  A    between atoms: N_4  and  C_23
REMARK    6  A    between atoms: C_5  and  C_6
REMARK    7  A    between atoms: C_6  and  C_7
REMARK    8  A    between atoms: C_7  and  C_8
REMARK    9  A    between atoms: C_7  and  C_11
REMARK   10  A    between atoms: C_7  and  C_17
REMARK   11  A    between atoms: C_23  and  C_24
REMARK   12  A    between atoms: C_23  and  C_25
REMARK                            x       y       z     vdW  Elec       q    Type
REMARK                         _______ _______ _______ _____ _____    ______ ____
ROOT
ATOM      1  C   UNL     1       5.504  -4.868  23.439  0.00  0.00    +0.114 C 
ENDROOT
BRANCH   1   2
ATOM      2  C   UNL     1       4.401  -5.921  23.735  0.00  0.00    +0.061 A 
ATOM      3  C   UNL     1       4.499  -6.841  24.781  0.00  0.00    +0.025 A 
ATOM      4  C   UNL     1       3.406  -7.652  25.085  0.00  0.00    +0.003 A 
ATOM      5  C   UNL     1       2.271  -7.597  24.289  0.00  0.00    +0.020 A 
ATOM      6  C   UNL     1       2.294  -6.759  23.195  0.00  0.00    +0.111 A 
ATOM      7  N   UNL     1       3.331  -5.944  22.896  0.00  0.00    -0.259 NA
ENDBRANCH   1   2
BRANCH   1   8
ATOM      8  C   UNL     1       6.726  -4.909  24.415  0.00  0.00    -0.027 A 
ATOM      9  C   UNL     1       8.016  -4.531  23.994  0.00  0.00    +0.005 A 
ATOM     10  C   UNL     1       9.112  -4.576  24.864  0.00  0.00    +0.000 A 
ATOM     11  C   UNL     1       8.945  -4.979  26.183  0.00  0.00    +0.000 A 
ATOM     12  C   UNL     1       7.675  -5.300  26.645  0.00  0.00    +0.000 A 
ATOM     13  C   UNL     1       6.579  -5.239  25.780  0.00  0.00    +0.005 A 
ENDBRANCH   1   8
BRANCH   1  14
ATOM     14  C   UNL     1       5.915  -5.142  21.941  0.00  0.00    +0.227 C 
ATOM     15  O   UNL     1       5.967  -4.303  21.039  0.00  0.00    -0.275 OA
ATOM     16  N   UNL     1       6.257  -6.433  21.626  0.00  0.00    -0.328 N 
ATOM     17  H   UNL     1       6.633  -6.579  20.696  0.00  0.00    +0.145 HD
ATOM     18  H   UNL     1       6.596  -7.044  22.364  0.00  0.00    +0.145 HD
ENDBRANCH   1  14
BRANCH   1  19
ATOM     19  C   UNL     1       4.922  -3.400  23.501  0.00  0.00    +0.042 C 
BRANCH  19  20
ATOM     20  C   UNL     1       4.253  -3.001  24.841  0.00  0.00    +0.086 C 
BRANCH  20  21
ATOM     21  N   UNL     1       4.693  -1.698  25.438  0.00  0.00    -0.297 NA
BRANCH  21  23
ATOM     22  C   UNL     1       6.138   0.151  24.510  0.00  0.00    +0.024 C 
ATOM     23  C   UNL     1       6.070  -1.319  24.987  0.00  0.00    +0.051 C 
ATOM     24  C   UNL     1       7.184  -1.445  26.040  0.00  0.00    +0.024 C 
ENDBRANCH  21  23
BRANCH  21  25
ATOM     25  C   UNL     1       4.408  -1.642  26.906  0.00  0.00    +0.051 C 
ATOM     26  C   UNL     1       4.081  -3.037  27.496  0.00  0.00    +0.024 C 
ATOM     27  C   UNL     1       3.222  -0.756  27.320  0.00  0.00    +0.024 C 
ENDBRANCH  21  25
ENDBRANCH  20  21
ENDBRANCH  19  20
ENDBRANCH   1  19
TORSDOF 8
ENDMDL
