MODEL 1
REMARK VINA RESULT:      -7.1      0.000      0.000
REMARK  Name = 
REMARK  6 active torsions:
REMARK  status: ('A' for Active; 'I' for Inactive)
REMARK    1  A    between atoms: C_1  and  C_2
REMARK    2  A    between atoms: C_2  and  C_4
REMARK    3  A    between atoms: C_4  and  C_5
REMARK    4  A    between atoms: C_5  and  C_6
REMARK    5  A    between atoms: C_5  and  C_12
REMARK    6  A    between atoms: C_13  and  O_14
REMARK                            x       y       z     vdW  Elec       q    Type
REMARK                         _______ _______ _______ _____ _____    ______ ____
ROOT
ATOM      1  C   UNL     1       8.059  -2.410  24.100  0.00  0.00    +0.087 A 
ATOM      2  C   UNL     1       9.535  -2.399  23.862  0.00  0.00    +0.345 A 
ATOM      3  O   UNL     1      10.241  -3.367  24.126  0.00  0.00    -0.245 OA
ATOM      4  O   UNL     1      10.087  -1.274  23.260  0.00  0.00    -0.422 OA
ATOM      5  C   UNL     1       9.292  -0.208  22.819  0.00  0.00    +0.143 A 
ATOM      6  C   UNL     1       9.925   0.806  22.100  0.00  0.00    +0.047 A 
ATOM      7  C   UNL     1       9.168   1.867  21.606  0.00  0.00    +0.004 A 
ATOM      8  C   UNL     1       7.797   1.915  21.858  0.00  0.00    +0.001 A 
ATOM      9  C   UNL     1       7.180   0.893  22.588  0.00  0.00    +0.015 A 
ATOM     10  C   UNL     1       7.925  -0.194  23.061  0.00  0.00    +0.059 A 
ATOM     11  C   UNL     1       7.320  -1.347  23.723  0.00  0.00    +0.138 A 
ENDROOT
BRANCH  11  12
ATOM     12  O   UNL     1       5.949  -1.291  23.851  0.00  0.00    -0.506 OA
ATOM     13  H   UNL     1       5.572  -2.023  23.333  0.00  0.00    +0.292 HD
ENDBRANCH  11  12
BRANCH   1  14
ATOM     14  C   UNL     1       7.510  -3.678  24.754  0.00  0.00    +0.067 C 
BRANCH  14  15
ATOM     15  C   UNL     1       6.758  -4.552  23.726  0.00  0.00    -0.039 A 
ATOM     16  C   UNL     1       7.482  -5.206  22.712  0.00  0.00    +0.004 A 
ATOM     17  C   UNL     1       6.836  -6.022  21.779  0.00  0.00    +0.000 A 
ATOM     18  C   UNL     1       5.459  -6.211  21.846  0.00  0.00    +0.000 A 
ATOM     19  C   UNL     1       4.724  -5.575  22.838  0.00  0.00    +0.000 A 
ATOM     20  C   UNL     1       5.365  -4.750  23.766  0.00  0.00    +0.004 A 
ENDBRANCH  14  15
BRANCH  14  21
ATOM     21  C   UNL     1       6.668  -3.409  26.021  0.00  0.00    +0.087 C 
BRANCH  21  23
ATOM     22  C   UNL     1       5.509  -4.633  27.940  0.00  0.00    +0.086 C 
ATOM     23  C   UNL     1       6.773  -4.428  27.134  0.00  0.00    +0.131 C 
ATOM     24  O   UNL     1       7.803  -5.042  27.394  0.00  0.00    -0.298 OA
ENDBRANCH  21  23
ENDBRANCH  14  21
ENDBRANCH   1  14
TORSDOF 5
ENDMDL
MODEL 2
REMARK VINA RESULT:      -6.8      1.832      3.862
REMARK  Name = 
REMARK  6 active torsions:
REMARK  status: ('A' for Active; 'I' for Inactive)
REMARK    1  A    between atoms: C_1  and  C_2
REMARK    2  A    between atoms: C_2  and  C_4
REMARK    3  A    between atoms: C_4  and  C_5
REMARK    4  A    between atoms: C_5  and  C_6
REMARK    5  A    between atoms: C_5  and  C_12
REMARK    6  A    between atoms: C_13  and  O_14
REMARK                            x       y       z     vdW  Elec       q    Type
REMARK                         _______ _______ _______ _____ _____    ______ ____
ROOT
ATOM      1  C   UNL     1       7.017  -1.422  23.355  0.00  0.00    +0.087 A 
ATOM      2  C   UNL     1       6.281  -0.404  24.167  0.00  0.00    +0.345 A 
ATOM      3  O   UNL     1       5.329  -0.709  24.877  0.00  0.00    -0.245 OA
ATOM      4  O   UNL     1       6.753   0.903  24.153  0.00  0.00    -0.422 OA
ATOM      5  C   UNL     1       7.921   1.259  23.464  0.00  0.00    +0.143 A 
ATOM      6  C   UNL     1       8.388   2.563  23.630  0.00  0.00    +0.047 A 
ATOM      7  C   UNL     1       9.568   2.950  22.997  0.00  0.00    +0.004 A 
ATOM      8  C   UNL     1      10.249   2.042  22.187  0.00  0.00    +0.001 A 
ATOM      9  C   UNL     1       9.762   0.740  22.025  0.00  0.00    +0.015 A 
ATOM     10  C   UNL     1       8.595   0.330  22.683  0.00  0.00    +0.059 A 
ATOM     11  C   UNL     1       8.104  -1.045  22.650  0.00  0.00    +0.138 A 
ENDROOT
BRANCH  11  12
ATOM     12  O   UNL     1       8.876  -1.921  21.919  0.00  0.00    -0.506 OA
ATOM     13  H   UNL     1       9.803  -1.631  21.992  0.00  0.00    +0.292 HD
ENDBRANCH  11  12
BRANCH   1  14
ATOM     14  C   UNL     1       6.458  -2.843  23.420  0.00  0.00    +0.067 C 
BRANCH  14  15
ATOM     15  C   UNL     1       7.182  -3.676  24.500  0.00  0.00    -0.039 A 
ATOM     16  C   UNL     1       6.550  -3.907  25.736  0.00  0.00    +0.004 A 
ATOM     17  C   UNL     1       7.168  -4.675  26.727  0.00  0.00    +0.000 A 
ATOM     18  C   UNL     1       8.421  -5.236  26.501  0.00  0.00    +0.000 A 
ATOM     19  C   UNL     1       9.065  -5.020  25.290  0.00  0.00    +0.000 A 
ATOM     20  C   UNL     1       8.454  -4.244  24.301  0.00  0.00    +0.004 A 
ENDBRANCH  14  15
BRANCH  14  21
ATOM     21  C   UNL     1       6.423  -3.560  22.052  0.00  0.00    +0.087 C 
BRANCH  21  23
ATOM     22  C   UNL     1       6.659  -6.054  21.555  0.00  0.00    +0.086 C 
ATOM     23  C   UNL     1       5.768  -4.923  22.018  0.00  0.00    +0.131 C 
ATOM     24  O   UNL     1       4.595  -5.117  22.322  0.00  0.00    -0.298 OA
ENDBRANCH  21  23
ENDBRANCH  14  21
ENDBRANCH   1  14
TORSDOF 5
ENDMDL
MODEL 3
REMARK VINA RESULT:      -6.7      4.040      8.826
REMARK  Name = 
REMARK  6 active torsions:
REMARK  status: ('A' for Active; 'I' for Inactive)
REMARK    1  A    between atoms: C_1  and  C_2
REMARK    2  A    between atoms: C_2  and  C_4
REMARK    3  A    between atoms: C_4  and  C_5
REMARK    4  A    between atoms: C_5  and  C_6
REMARK    5  A    between atoms: C_5  and  C_12
REMARK    6  A    between atoms: C_13  and  O_14
REMARK                            x       y       z     vdW  Elec       q    Type
REMARK                         _______ _______ _______ _____ _____    ______ ____
ROOT
ATOM      1  C   UNL     1       9.052   2.921  23.673  0.00  0.00    +0.087 A 
ATOM      2  C   UNL     1       8.593   2.449  25.016  0.00  0.00    +0.345 A 
ATOM      3  O   UNL     1       8.034   3.198  25.810  0.00  0.00    -0.245 OA
ATOM      4  O   UNL     1       8.756   1.103  25.322  0.00  0.00    -0.422 OA
ATOM      5  C   UNL     1       9.264   0.190  24.387  0.00  0.00    +0.143 A 
ATOM      6  C   UNL     1       9.253  -1.160  24.741  0.00  0.00    +0.047 A 
ATOM      7  C   UNL     1       9.710  -2.107  23.827  0.00  0.00    +0.004 A 
ATOM      8  C   UNL     1      10.197  -1.695  22.587  0.00  0.00    +0.001 A 
ATOM      9  C   UNL     1      10.208  -0.337  22.252  0.00  0.00    +0.015 A 
ATOM     10  C   UNL     1       9.720   0.622  23.149  0.00  0.00    +0.059 A 
ATOM     11  C   UNL     1       9.594   2.037  22.812  0.00  0.00    +0.138 A 
ENDROOT
BRANCH  11  12
ATOM     12  O   UNL     1       9.993   2.368  21.535  0.00  0.00    -0.506 OA
ATOM     13  H   UNL     1      10.080   1.542  21.028  0.00  0.00    +0.292 HD
ENDBRANCH  11  12
BRANCH   1  14
ATOM     14  C   UNL     1       8.836   4.408  23.392  0.00  0.00    +0.067 C 
BRANCH  14  15
ATOM     15  C   UNL     1       9.995   5.255  23.962  0.00  0.00    -0.039 A 
ATOM     16  C   UNL     1       9.734   6.193  24.977  0.00  0.00    +0.004 A 
ATOM     17  C   UNL     1      10.763   6.960  25.531  0.00  0.00    +0.000 A 
ATOM     18  C   UNL     1      12.073   6.797  25.091  0.00  0.00    +0.000 A 
ATOM     19  C   UNL     1      12.355   5.878  24.088  0.00  0.00    +0.000 A 
ATOM     20  C   UNL     1      11.326   5.118  23.526  0.00  0.00    +0.004 A 
ENDBRANCH  14  15
BRANCH  14  21
ATOM     21  C   UNL     1       7.453   4.930  23.842  0.00  0.00    +0.087 C 
BRANCH  21  23
ATOM     22  C   UNL     1       7.231   6.520  21.855  0.00  0.00    +0.086 C 
ATOM     23  C   UNL     1       6.564   5.511  22.763  0.00  0.00    +0.131 C 
ATOM     24  O   UNL     1       5.382   5.212  22.629  0.00  0.00    -0.298 OA
ENDBRANCH  21  23
ENDBRANCH  14  21
ENDBRANCH   1  14
TORSDOF 5
ENDMDL
MODEL 4
REMARK VINA RESULT:      -6.6      1.926      6.035
REMARK  Name = 
REMARK  6 active torsions:
REMARK  status: ('A' for Active; 'I' for Inactive)
REMARK    1  A    between atoms: C_1  and  C_2
REMARK    2  A    between atoms: C_2  and  C_4
REMARK    3  A    between atoms: C_4  and  C_5
REMARK    4  A    between atoms: C_5  and  C_6
REMARK    5  A    between atoms: C_5  and  C_12
REMARK    6  A    between atoms: C_13  and  O_14
REMARK                            x       y       z     vdW  Elec       q    Type
REMARK                         _______ _______ _______ _____ _____    ______ ____
ROOT
ATOM      1  C   UNL     1       7.515  -4.059  24.485  0.00  0.00    +0.087 A 
ATOM      2  C   UNL     1       8.309  -5.187  25.063  0.00  0.00    +0.345 A 
ATOM      3  O   UNL     1       9.335  -5.597  24.530  0.00  0.00    -0.245 OA
ATOM      4  O   UNL     1       7.890  -5.722  26.276  0.00  0.00    -0.422 OA
ATOM      5  C   UNL     1       6.804  -5.187  26.982  0.00  0.00    +0.143 A 
ATOM      6  C   UNL     1       6.554  -5.702  28.255  0.00  0.00    +0.047 A 
ATOM      7  C   UNL     1       5.510  -5.173  29.011  0.00  0.00    +0.004 A 
ATOM      8  C   UNL     1       4.714  -4.158  28.479  0.00  0.00    +0.001 A 
ATOM      9  C   UNL     1       4.975  -3.659  27.198  0.00  0.00    +0.015 A 
ATOM     10  C   UNL     1       6.042  -4.160  26.442  0.00  0.00    +0.059 A 
ATOM     11  C   UNL     1       6.437  -3.600  25.152  0.00  0.00    +0.138 A 
ENDROOT
BRANCH  11  12
ATOM     12  O   UNL     1       5.679  -2.530  24.726  0.00  0.00    -0.506 OA
ATOM     13  H   UNL     1       4.889  -2.482  25.294  0.00  0.00    +0.292 HD
ENDBRANCH  11  12
BRANCH   1  14
ATOM     14  C   UNL     1       8.032  -3.506  23.157  0.00  0.00    +0.067 C 
BRANCH  14  15
ATOM     15  C   UNL     1       8.851  -2.214  23.375  0.00  0.00    -0.039 A 
ATOM     16  C   UNL     1       9.297  -1.481  22.260  0.00  0.00    +0.004 A 
ATOM     17  C   UNL     1      10.020  -0.296  22.421  0.00  0.00    +0.000 A 
ATOM     18  C   UNL     1      10.302   0.186  23.696  0.00  0.00    +0.000 A 
ATOM     19  C   UNL     1       9.873  -0.522  24.811  0.00  0.00    +0.000 A 
ATOM     20  C   UNL     1       9.159  -1.712  24.653  0.00  0.00    +0.004 A 
ENDBRANCH  14  15
BRANCH  14  21
ATOM     21  C   UNL     1       6.932  -3.330  22.088  0.00  0.00    +0.087 C 
BRANCH  21  23
ATOM     22  C   UNL     1       6.585  -5.718  21.250  0.00  0.00    +0.086 C 
ATOM     23  C   UNL     1       5.981  -4.491  21.896  0.00  0.00    +0.131 C 
ATOM     24  O   UNL     1       4.797  -4.455  22.217  0.00  0.00    -0.298 OA
ENDBRANCH  21  23
ENDBRANCH  14  21
ENDBRANCH   1  14
TORSDOF 5
ENDMDL
MODEL 5
REMARK VINA RESULT:      -6.5      1.535      3.418
REMARK  Name = 
REMARK  6 active torsions:
REMARK  status: ('A' for Active; 'I' for Inactive)
REMARK    1  A    between atoms: C_1  and  C_2
REMARK    2  A    between atoms: C_2  and  C_4
REMARK    3  A    between atoms: C_4  and  C_5
REMARK    4  A    between atoms: C_5  and  C_6
REMARK    5  A    between atoms: C_5  and  C_12
REMARK    6  A    between atoms: C_13  and  O_14
REMARK                            x       y       z     vdW  Elec       q    Type
REMARK                         _______ _______ _______ _____ _____    ______ ____
ROOT
ATOM      1  C   UNL     1       7.849  -1.864  23.758  0.00  0.00    +0.087 A 
ATOM      2  C   UNL     1       9.263  -2.229  24.076  0.00  0.00    +0.345 A 
ATOM      3  O   UNL     1       9.628  -3.398  24.155  0.00  0.00    -0.245 OA
ATOM      4  O   UNL     1      10.185  -1.198  24.213  0.00  0.00    -0.422 OA
ATOM      5  C   UNL     1       9.834   0.140  23.993  0.00  0.00    +0.143 A 
ATOM      6  C   UNL     1      10.863   1.083  24.015  0.00  0.00    +0.047 A 
ATOM      7  C   UNL     1      10.567   2.420  23.761  0.00  0.00    +0.004 A 
ATOM      8  C   UNL     1       9.248   2.804  23.516  0.00  0.00    +0.001 A 
ATOM      9  C   UNL     1       8.229   1.846  23.506  0.00  0.00    +0.015 A 
ATOM     10  C   UNL     1       8.518   0.494  23.727  0.00  0.00    +0.059 A 
ATOM     11  C   UNL     1       7.519  -0.565  23.610  0.00  0.00    +0.138 A 
ENDROOT
BRANCH  11  12
ATOM     12  O   UNL     1       6.256  -0.136  23.263  0.00  0.00    -0.506 OA
ATOM     13  H   UNL     1       6.226  -0.056  22.293  0.00  0.00    +0.292 HD
ENDBRANCH  11  12
BRANCH   1  14
ATOM     14  C   UNL     1       6.885  -3.041  23.608  0.00  0.00    +0.067 C 
BRANCH  14  15
ATOM     15  C   UNL     1       6.577  -3.684  24.978  0.00  0.00    -0.039 A 
ATOM     16  C   UNL     1       6.726  -5.074  25.139  0.00  0.00    +0.004 A 
ATOM     17  C   UNL     1       6.478  -5.686  26.371  0.00  0.00    +0.000 A 
ATOM     18  C   UNL     1       6.088  -4.923  27.468  0.00  0.00    +0.000 A 
ATOM     19  C   UNL     1       5.934  -3.549  27.332  0.00  0.00    +0.000 A 
ATOM     20  C   UNL     1       6.171  -2.937  26.099  0.00  0.00    +0.004 A 
ENDBRANCH  14  15
BRANCH  14  21
ATOM     21  C   UNL     1       7.335  -4.082  22.559  0.00  0.00    +0.087 C 
BRANCH  21  23
ATOM     22  C   UNL     1       6.256  -5.974  21.226  0.00  0.00    +0.086 C 
ATOM     23  C   UNL     1       6.307  -4.493  21.528  0.00  0.00    +0.131 C 
ATOM     24  O   UNL     1       5.571  -3.697  20.953  0.00  0.00    -0.298 OA
ENDBRANCH  21  23
ENDBRANCH  14  21
ENDBRANCH   1  14
TORSDOF 5
ENDMDL
MODEL 6
REMARK VINA RESULT:      -6.5      1.625      2.338
REMARK  Name = 
REMARK  6 active torsions:
REMARK  status: ('A' for Active; 'I' for Inactive)
REMARK    1  A    between atoms: C_1  and  C_2
REMARK    2  A    between atoms: C_2  and  C_4
REMARK    3  A    between atoms: C_4  and  C_5
REMARK    4  A    between atoms: C_5  and  C_6
REMARK    5  A    between atoms: C_5  and  C_12
REMARK    6  A    between atoms: C_13  and  O_14
REMARK                            x       y       z     vdW  Elec       q    Type
REMARK                         _______ _______ _______ _____ _____    ______ ____
ROOT
ATOM      1  C   UNL     1       7.305  -1.855  24.666  0.00  0.00    +0.087 A 
ATOM      2  C   UNL     1       8.452  -1.701  25.613  0.00  0.00    +0.345 A 
ATOM      3  O   UNL     1       8.615  -2.461  26.561  0.00  0.00    -0.245 OA
ATOM      4  O   UNL     1       9.383  -0.703  25.348  0.00  0.00    -0.422 OA
ATOM      5  C   UNL     1       9.304   0.094  24.198  0.00  0.00    +0.143 A 
ATOM      6  C   UNL     1      10.365   0.968  23.953  0.00  0.00    +0.047 A 
ATOM      7  C   UNL     1      10.349   1.750  22.799  0.00  0.00    +0.004 A 
ATOM      8  C   UNL     1       9.267   1.671  21.923  0.00  0.00    +0.001 A 
ATOM      9  C   UNL     1       8.209   0.796  22.190  0.00  0.00    +0.015 A 
ATOM     10  C   UNL     1       8.229  -0.020  23.328  0.00  0.00    +0.059 A 
ATOM     11  C   UNL     1       7.216  -1.037  23.597  0.00  0.00    +0.138 A 
ENDROOT
BRANCH  11  12
ATOM     12  O   UNL     1       6.227  -1.140  22.642  0.00  0.00    -0.506 OA
ATOM     13  H   UNL     1       5.374  -1.209  23.105  0.00  0.00    +0.292 HD
ENDBRANCH  11  12
BRANCH   1  14
ATOM     14  C   UNL     1       6.322  -2.976  25.003  0.00  0.00    +0.067 C 
BRANCH  14  15
ATOM     15  C   UNL     1       6.378  -4.100  23.945  0.00  0.00    -0.039 A 
ATOM     16  C   UNL     1       5.191  -4.526  23.324  0.00  0.00    +0.004 A 
ATOM     17  C   UNL     1       5.208  -5.525  22.346  0.00  0.00    +0.000 A 
ATOM     18  C   UNL     1       6.411  -6.110  21.962  0.00  0.00    +0.000 A 
ATOM     19  C   UNL     1       7.596  -5.706  22.564  0.00  0.00    +0.000 A 
ATOM     20  C   UNL     1       7.580  -4.715  23.548  0.00  0.00    +0.004 A 
ENDBRANCH  14  15
BRANCH  14  21
ATOM     21  C   UNL     1       4.881  -2.482  25.257  0.00  0.00    +0.087 C 
BRANCH  21  23
ATOM     22  C   UNL     1       4.898  -1.686  27.684  0.00  0.00    +0.086 C 
ATOM     23  C   UNL     1       4.720  -1.330  26.225  0.00  0.00    +0.131 C 
ATOM     24  O   UNL     1       4.447  -0.186  25.875  0.00  0.00    -0.298 OA
ENDBRANCH  21  23
ENDBRANCH  14  21
ENDBRANCH   1  14
TORSDOF 5
ENDMDL
MODEL 7
REMARK VINA RESULT:      -6.2      1.466      2.653
REMARK  Name = 
REMARK  6 active torsions:
REMARK  status: ('A' for Active; 'I' for Inactive)
REMARK    1  A    between atoms: C_1  and  C_2
REMARK    2  A    between atoms: C_2  and  C_4
REMARK    3  A    between atoms: C_4  and  C_5
REMARK    4  A    between atoms: C_5  and  C_6
REMARK    5  A    between atoms: C_5  and  C_12
REMARK    6  A    between atoms: C_13  and  O_14
REMARK                            x       y       z     vdW  Elec       q    Type
REMARK                         _______ _______ _______ _____ _____    ______ ____
ROOT
ATOM      1  C   UNL     1       7.621  -2.701  24.905  0.00  0.00    +0.087 A 
ATOM      2  C   UNL     1       6.505  -1.713  25.028  0.00  0.00    +0.345 A 
ATOM      3  O   UNL     1       5.375  -2.052  25.363  0.00  0.00    -0.245 OA
ATOM      4  O   UNL     1       6.799  -0.371  24.820  0.00  0.00    -0.422 OA
ATOM      5  C   UNL     1       8.107   0.068  24.573  0.00  0.00    +0.143 A 
ATOM      6  C   UNL     1       8.318   1.447  24.521  0.00  0.00    +0.047 A 
ATOM      7  C   UNL     1       9.610   1.930  24.319  0.00  0.00    +0.004 A 
ATOM      8  C   UNL     1      10.665   1.036  24.144  0.00  0.00    +0.001 A 
ATOM      9  C   UNL     1      10.433  -0.343  24.191  0.00  0.00    +0.015 A 
ATOM     10  C   UNL     1       9.145  -0.841  24.427  0.00  0.00    +0.059 A 
ATOM     11  C   UNL     1       8.861  -2.263  24.606  0.00  0.00    +0.138 A 
ENDROOT
BRANCH  11  12
ATOM     12  O   UNL     1       9.960  -3.090  24.526  0.00  0.00    -0.506 OA
ATOM     13  H   UNL     1       9.638  -4.006  24.464  0.00  0.00    +0.292 HD
ENDBRANCH  11  12
BRANCH   1  14
ATOM     14  C   UNL     1       7.238  -4.159  25.156  0.00  0.00    +0.067 C 
BRANCH  14  15
ATOM     15  C   UNL     1       6.755  -4.838  23.856  0.00  0.00    -0.039 A 
ATOM     16  C   UNL     1       5.378  -5.038  23.649  0.00  0.00    +0.004 A 
ATOM     17  C   UNL     1       4.905  -5.629  22.474  0.00  0.00    +0.000 A 
ATOM     18  C   UNL     1       5.795  -6.021  21.479  0.00  0.00    +0.000 A 
ATOM     19  C   UNL     1       7.159  -5.835  21.662  0.00  0.00    +0.000 A 
ATOM     20  C   UNL     1       7.635  -5.254  22.840  0.00  0.00    +0.004 A 
ENDBRANCH  14  15
BRANCH  14  21
ATOM     21  C   UNL     1       6.240  -4.346  26.321  0.00  0.00    +0.087 C 
BRANCH  21  23
ATOM     22  C   UNL     1       5.210  -6.471  27.294  0.00  0.00    +0.086 C 
ATOM     23  C   UNL     1       6.425  -5.578  27.180  0.00  0.00    +0.131 C 
ATOM     24  O   UNL     1       7.470  -5.842  27.767  0.00  0.00    -0.298 OA
ENDBRANCH  21  23
ENDBRANCH  14  21
ENDBRANCH   1  14
TORSDOF 5
ENDMDL
MODEL 8
REMARK VINA RESULT:      -6.1      2.014      5.643
REMARK  Name = 
REMARK  6 active torsions:
REMARK  status: ('A' for Active; 'I' for Inactive)
REMARK    1  A    between atoms: C_1  and  C_2
REMARK    2  A    between atoms: C_2  and  C_4
REMARK    3  A    between atoms: C_4  and  C_5
REMARK    4  A    between atoms: C_5  and  C_6
REMARK    5  A    between atoms: C_5  and  C_12
REMARK    6  A    between atoms: C_13  and  O_14
REMARK                            x       y       z     vdW  Elec       q    Type
REMARK                         _______ _______ _______ _____ _____    ______ ____
ROOT
ATOM      1  C   UNL     1       7.588  -1.787  24.154  0.00  0.00    +0.087 A 
ATOM      2  C   UNL     1       8.838  -2.571  23.908  0.00  0.00    +0.345 A 
ATOM      3  O   UNL     1       9.938  -2.165  24.268  0.00  0.00    -0.245 OA
ATOM      4  O   UNL     1       8.713  -3.823  23.316  0.00  0.00    -0.422 OA
ATOM      5  C   UNL     1       7.461  -4.377  23.019  0.00  0.00    +0.143 A 
ATOM      6  C   UNL     1       7.439  -5.695  22.559  0.00  0.00    +0.047 A 
ATOM      7  C   UNL     1       6.214  -6.302  22.290  0.00  0.00    +0.004 A 
ATOM      8  C   UNL     1       5.032  -5.580  22.455  0.00  0.00    +0.001 A 
ATOM      9  C   UNL     1       5.074  -4.258  22.909  0.00  0.00    +0.015 A 
ATOM     10  C   UNL     1       6.297  -3.648  23.215  0.00  0.00    +0.059 A 
ATOM     11  C   UNL     1       6.398  -2.315  23.804  0.00  0.00    +0.138 A 
ENDROOT
BRANCH  11  12
ATOM     12  O   UNL     1       5.191  -1.692  24.041  0.00  0.00    -0.506 OA
ATOM     13  H   UNL     1       4.555  -2.374  24.319  0.00  0.00    +0.292 HD
ENDBRANCH  11  12
BRANCH   1  14
ATOM     14  C   UNL     1       7.788  -0.425  24.817  0.00  0.00    +0.067 C 
BRANCH  14  15
ATOM     15  C   UNL     1       8.648   0.503  23.932  0.00  0.00    -0.039 A 
ATOM     16  C   UNL     1       9.683   1.256  24.517  0.00  0.00    +0.004 A 
ATOM     17  C   UNL     1      10.495   2.088  23.742  0.00  0.00    +0.000 A 
ATOM     18  C   UNL     1      10.298   2.177  22.366  0.00  0.00    +0.000 A 
ATOM     19  C   UNL     1       9.282   1.444  21.767  0.00  0.00    +0.000 A 
ATOM     20  C   UNL     1       8.463   0.619  22.541  0.00  0.00    +0.004 A 
ENDBRANCH  14  15
BRANCH  14  21
ATOM     21  C   UNL     1       8.321  -0.512  26.265  0.00  0.00    +0.087 C 
BRANCH  21  23
ATOM     22  C   UNL     1       5.946   0.055  27.014  0.00  0.00    +0.086 C 
ATOM     23  C   UNL     1       7.419   0.030  27.352  0.00  0.00    +0.131 C 
ATOM     24  O   UNL     1       7.835   0.443  28.431  0.00  0.00    -0.298 OA
ENDBRANCH  21  23
ENDBRANCH  14  21
ENDBRANCH   1  14
TORSDOF 5
ENDMDL
MODEL 9
REMARK VINA RESULT:      -5.9      2.000      6.190
REMARK  Name = 
REMARK  6 active torsions:
REMARK  status: ('A' for Active; 'I' for Inactive)
REMARK    1  A    between atoms: C_1  and  C_2
REMARK    2  A    between atoms: C_2  and  C_4
REMARK    3  A    between atoms: C_4  and  C_5
REMARK    4  A    between atoms: C_5  and  C_6
REMARK    5  A    between atoms: C_5  and  C_12
REMARK    6  A    between atoms: C_13  and  O_14
REMARK                            x       y       z     vdW  Elec       q    Type
REMARK                         _______ _______ _______ _____ _____    ______ ____
ROOT
ATOM      1  C   UNL     1       6.785  -3.651  25.907  0.00  0.00    +0.087 A 
ATOM      2  C   UNL     1       5.623  -2.775  26.248  0.00  0.00    +0.345 A 
ATOM      3  O   UNL     1       5.285  -1.839  25.531  0.00  0.00    -0.245 OA
ATOM      4  O   UNL     1       4.878  -3.095  27.377  0.00  0.00    -0.422 OA
ATOM      5  C   UNL     1       5.149  -4.238  28.141  0.00  0.00    +0.143 A 
ATOM      6  C   UNL     1       4.256  -4.548  29.168  0.00  0.00    +0.047 A 
ATOM      7  C   UNL     1       4.463  -5.697  29.927  0.00  0.00    +0.004 A 
ATOM      8  C   UNL     1       5.569  -6.507  29.672  0.00  0.00    +0.001 A 
ATOM      9  C   UNL     1       6.459  -6.177  28.643  0.00  0.00    +0.015 A 
ATOM     10  C   UNL     1       6.243  -5.042  27.851  0.00  0.00    +0.059 A 
ATOM     11  C   UNL     1       7.066  -4.712  26.691  0.00  0.00    +0.138 A 
ENDROOT
BRANCH  11  12
ATOM     12  O   UNL     1       8.082  -5.605  26.425  0.00  0.00    -0.506 OA
ATOM     13  H   UNL     1       8.729  -5.157  25.853  0.00  0.00    +0.292 HD
ENDBRANCH  11  12
BRANCH   1  14
ATOM     14  C   UNL     1       7.558  -3.255  24.649  0.00  0.00    +0.067 C 
BRANCH  14  15
ATOM     15  C   UNL     1       7.116  -4.104  23.436  0.00  0.00    -0.039 A 
ATOM     16  C   UNL     1       6.157  -3.590  22.545  0.00  0.00    +0.004 A 
ATOM     17  C   UNL     1       5.750  -4.321  21.425  0.00  0.00    +0.000 A 
ATOM     18  C   UNL     1       6.302  -5.573  21.167  0.00  0.00    +0.000 A 
ATOM     19  C   UNL     1       7.249  -6.101  22.034  0.00  0.00    +0.000 A 
ATOM     20  C   UNL     1       7.649  -5.376  23.159  0.00  0.00    +0.004 A 
ENDBRANCH  14  15
BRANCH  14  21
ATOM     21  C   UNL     1       9.091  -3.255  24.837  0.00  0.00    +0.087 C 
BRANCH  21  23
ATOM     22  C   UNL     1       9.800  -0.825  24.495  0.00  0.00    +0.086 C 
ATOM     23  C   UNL     1       9.875  -2.257  24.013  0.00  0.00    +0.131 C 
ATOM     24  O   UNL     1      10.517  -2.561  23.012  0.00  0.00    -0.298 OA
ENDBRANCH  21  23
ENDBRANCH  14  21
ENDBRANCH   1  14
TORSDOF 5
ENDMDL
