MODEL 1
REMARK VINA RESULT:      -4.9      0.000      0.000
REMARK  Name = 
REMARK  10 active torsions:
REMARK  status: ('A' for Active; 'I' for Inactive)
REMARK    1  A    between atoms: N_1  and  CA_2
REMARK    2  A    between atoms: CA_2  and  C_4
REMARK    3  A    between atoms: CA_2  and  C_13
REMARK    4  A    between atoms: C_4  and  O_6
REMARK    5  A    between atoms: C_4  and  C_7
REMARK    6  A    between atoms: C_7  and  O_8
REMARK    7  A    between atoms: O_8  and  P_9
REMARK    8  A    between atoms: P_9  and  O_10
REMARK    9  A    between atoms: P_9  and  O_11
REMARK   10  A    between atoms: C_13  and  O_14
REMARK                            x       y       z     vdW  Elec       q    Type
REMARK                         _______ _______ _______ _____ _____    ______ ____
ROOT
ATOM      1  C   UNL     1       9.939  -1.174  23.629  0.00  0.00    +0.168 C 
ENDROOT
BRANCH   1   2
ATOM      2  O   UNL     1       9.567  -0.687  24.929  0.00  0.00    -0.387 OA
ATOM      3  H   UNL     1      10.273  -0.088  25.229  0.00  0.00    +0.210 HD
ENDBRANCH   1   2
BRANCH   1   4
ATOM      4  CA  UNL     1       9.456  -0.180  22.561  0.00  0.00    +0.192 C 
BRANCH   4   5
ATOM      5  N   UNL     1       9.615  -0.671  21.147  0.00  0.00    -0.316 NA
ATOM      6  H1  UNL     1       9.645   0.138  20.516  0.00  0.00    +0.119 HD
ATOM      7  H2  UNL     1      10.572  -1.037  21.079  0.00  0.00    +0.119 HD
ENDBRANCH   4   5
BRANCH   4   8
ATOM      8  C   UNL     1      10.135   1.195  22.702  0.00  0.00    +0.324 C 
ATOM      9  OXT UNL     1      10.726   1.582  23.700  0.00  0.00    -0.249 OA
BRANCH   8  10
ATOM     10  O   UNL     1       9.970   1.949  21.582  0.00  0.00    -0.479 OA
ATOM     11  H   UNL     1       9.426   1.396  20.968  0.00  0.00    +0.295 HD
ENDBRANCH   8  10
ENDBRANCH   4   8
ENDBRANCH   1   4
BRANCH   1  12
ATOM     12  C   UNL     1       9.372  -2.593  23.494  0.00  0.00    +0.205 C 
BRANCH  12  13
ATOM     13  O   UNL     1      10.120  -3.510  24.276  0.00  0.00    -0.284 OA
BRANCH  13  14
ATOM     14  P   UNL     1       9.148  -4.537  25.273  0.00  0.00    +0.472 P 
ATOM     15  O   UNL     1       8.278  -5.456  26.165  0.00  0.00    -0.228 OA
BRANCH  14  16
ATOM     16  O   UNL     1      10.429  -5.545  25.338  0.00  0.00    -0.303 OA
ATOM     17  H   UNL     1      10.193  -6.347  24.832  0.00  0.00    +0.222 HD
ENDBRANCH  14  16
BRANCH  14  18
ATOM     18  O   UNL     1       8.574  -5.128  23.857  0.00  0.00    -0.303 OA
ATOM     19  H   UNL     1       8.035  -5.909  24.084  0.00  0.00    +0.222 HD
ENDBRANCH  14  18
ENDBRANCH  13  14
ENDBRANCH  12  13
ENDBRANCH   1  12
TORSDOF 10
ENDMDL
MODEL 2
REMARK VINA RESULT:      -4.8      2.703      3.780
REMARK  Name = 
REMARK  10 active torsions:
REMARK  status: ('A' for Active; 'I' for Inactive)
REMARK    1  A    between atoms: N_1  and  CA_2
REMARK    2  A    between atoms: CA_2  and  C_4
REMARK    3  A    between atoms: CA_2  and  C_13
REMARK    4  A    between atoms: C_4  and  O_6
REMARK    5  A    between atoms: C_4  and  C_7
REMARK    6  A    between atoms: C_7  and  O_8
REMARK    7  A    between atoms: O_8  and  P_9
REMARK    8  A    between atoms: P_9  and  O_10
REMARK    9  A    between atoms: P_9  and  O_11
REMARK   10  A    between atoms: C_13  and  O_14
REMARK                            x       y       z     vdW  Elec       q    Type
REMARK                         _______ _______ _______ _____ _____    ______ ____
ROOT
ATOM      1  C   UNL     1       9.061   1.767  21.671  0.00  0.00    +0.168 C 
ENDROOT
BRANCH   1   2
ATOM      2  O   UNL     1      10.387   2.315  21.753  0.00  0.00    -0.387 OA
ATOM      3  H   UNL     1      10.624   2.366  22.696  0.00  0.00    +0.210 HD
ENDBRANCH   1   2
BRANCH   1   4
ATOM      4  CA  UNL     1       8.242   2.247  22.880  0.00  0.00    +0.192 C 
BRANCH   4   5
ATOM      5  N   UNL     1       7.187   3.266  22.543  0.00  0.00    -0.316 NA
ATOM      6  H1  UNL     1       6.435   2.804  22.018  0.00  0.00    +0.119 HD
ATOM      7  H2  UNL     1       6.723   3.499  23.429  0.00  0.00    +0.119 HD
ENDBRANCH   4   5
BRANCH   4   8
ATOM      8  C   UNL     1       9.139   2.795  24.006  0.00  0.00    +0.324 C 
ATOM      9  OXT UNL     1       9.447   3.971  24.141  0.00  0.00    -0.249 OA
BRANCH   8  10
ATOM     10  O   UNL     1       9.579   1.799  24.821  0.00  0.00    -0.479 OA
ATOM     11  H   UNL     1       8.846   1.135  24.847  0.00  0.00    +0.295 HD
ENDBRANCH   8  10
ENDBRANCH   4   8
ENDBRANCH   1   4
BRANCH   1  12
ATOM     12  C   UNL     1       9.203   0.244  21.550  0.00  0.00    +0.205 C 
BRANCH  12  13
ATOM     13  O   UNL     1       8.590  -0.406  22.652  0.00  0.00    -0.284 OA
BRANCH  13  14
ATOM     14  P   UNL     1       9.478  -1.768  23.244  0.00  0.00    +0.472 P 
ATOM     15  O   UNL     1      10.272  -2.987  23.773  0.00  0.00    -0.228 OA
BRANCH  14  16
ATOM     16  O   UNL     1      10.395  -0.703  24.072  0.00  0.00    -0.303 OA
ATOM     17  H   UNL     1       9.798  -0.208  24.666  0.00  0.00    +0.222 HD
ENDBRANCH  14  16
BRANCH  14  18
ATOM     18  O   UNL     1      10.330  -1.637  21.851  0.00  0.00    -0.303 OA
ATOM     19  H   UNL     1      10.711  -0.738  21.847  0.00  0.00    +0.222 HD
ENDBRANCH  14  18
ENDBRANCH  13  14
ENDBRANCH  12  13
ENDBRANCH   1  12
TORSDOF 10
ENDMDL
MODEL 3
REMARK VINA RESULT:      -4.8      3.802      5.560
REMARK  Name = 
REMARK  10 active torsions:
REMARK  status: ('A' for Active; 'I' for Inactive)
REMARK    1  A    between atoms: N_1  and  CA_2
REMARK    2  A    between atoms: CA_2  and  C_4
REMARK    3  A    between atoms: CA_2  and  C_13
REMARK    4  A    between atoms: C_4  and  O_6
REMARK    5  A    between atoms: C_4  and  C_7
REMARK    6  A    between atoms: C_7  and  O_8
REMARK    7  A    between atoms: O_8  and  P_9
REMARK    8  A    between atoms: P_9  and  O_10
REMARK    9  A    between atoms: P_9  and  O_11
REMARK   10  A    between atoms: C_13  and  O_14
REMARK                            x       y       z     vdW  Elec       q    Type
REMARK                         _______ _______ _______ _____ _____    ______ ____
ROOT
ATOM      1  C   UNL     1       7.517  -3.592  26.099  0.00  0.00    +0.168 C 
ENDROOT
BRANCH   1   2
ATOM      2  O   UNL     1       8.674  -2.917  26.619  0.00  0.00    -0.387 OA
ATOM      3  H   UNL     1       9.372  -3.585  26.740  0.00  0.00    +0.210 HD
ENDBRANCH   1   2
BRANCH   1   4
ATOM      4  CA  UNL     1       7.802  -5.101  26.029  0.00  0.00    +0.192 C 
BRANCH   4   5
ATOM      5  N   UNL     1       7.884  -5.774  27.373  0.00  0.00    -0.316 NA
ATOM      6  H1  UNL     1       8.733  -6.352  27.404  0.00  0.00    +0.119 HD
ATOM      7  H2  UNL     1       8.102  -5.032  28.049  0.00  0.00    +0.119 HD
ENDBRANCH   4   5
BRANCH   4   8
ATOM      8  C   UNL     1       9.079  -5.411  25.225  0.00  0.00    +0.324 C 
ATOM      9  OXT UNL     1       9.109  -5.623  24.021  0.00  0.00    -0.249 OA
BRANCH   8  10
ATOM     10  O   UNL     1      10.175  -5.454  26.028  0.00  0.00    -0.479 OA
ATOM     11  H   UNL     1      10.490  -6.392  25.997  0.00  0.00    +0.295 HD
ENDBRANCH   8  10
ENDBRANCH   4   8
ENDBRANCH   1   4
BRANCH   1  12
ATOM     12  C   UNL     1       7.173  -2.937  24.755  0.00  0.00    +0.205 C 
BRANCH  12  13
ATOM     13  O   UNL     1       7.982  -1.793  24.532  0.00  0.00    -0.284 OA
BRANCH  13  14
ATOM     14  P   UNL     1       8.844  -1.828  23.032  0.00  0.00    +0.472 P 
ATOM     15  O   UNL     1       9.615  -1.858  21.690  0.00  0.00    -0.228 OA
BRANCH  14  16
ATOM     16  O   UNL     1       8.012  -3.187  22.683  0.00  0.00    -0.303 OA
ATOM     17  H   UNL     1       8.460  -3.615  21.927  0.00  0.00    +0.222 HD
ENDBRANCH  14  16
BRANCH  14  18
ATOM     18  O   UNL     1      10.014  -2.592  23.886  0.00  0.00    -0.303 OA
ATOM     19  H   UNL     1      10.454  -1.906  24.424  0.00  0.00    +0.222 HD
ENDBRANCH  14  18
ENDBRANCH  13  14
ENDBRANCH  12  13
ENDBRANCH   1  12
TORSDOF 10
ENDMDL
MODEL 4
REMARK VINA RESULT:      -4.8      3.262      5.636
REMARK  Name = 
REMARK  10 active torsions:
REMARK  status: ('A' for Active; 'I' for Inactive)
REMARK    1  A    between atoms: N_1  and  CA_2
REMARK    2  A    between atoms: CA_2  and  C_4
REMARK    3  A    between atoms: CA_2  and  C_13
REMARK    4  A    between atoms: C_4  and  O_6
REMARK    5  A    between atoms: C_4  and  C_7
REMARK    6  A    between atoms: C_7  and  O_8
REMARK    7  A    between atoms: O_8  and  P_9
REMARK    8  A    between atoms: P_9  and  O_10
REMARK    9  A    between atoms: P_9  and  O_11
REMARK   10  A    between atoms: C_13  and  O_14
REMARK                            x       y       z     vdW  Elec       q    Type
REMARK                         _______ _______ _______ _____ _____    ______ ____
ROOT
ATOM      1  C   UNL     1      10.114  -1.889  23.236  0.00  0.00    +0.168 C 
ENDROOT
BRANCH   1   2
ATOM      2  O   UNL     1      10.008  -1.869  21.803  0.00  0.00    -0.387 OA
ATOM      3  H   UNL     1      10.484  -2.649  21.465  0.00  0.00    +0.210 HD
ENDBRANCH   1   2
BRANCH   1   4
ATOM      4  CA  UNL     1       8.964  -2.730  23.815  0.00  0.00    +0.192 C 
BRANCH   4   5
ATOM      5  N   UNL     1       9.390  -4.076  24.336  0.00  0.00    -0.316 NA
ATOM      6  H1  UNL     1       8.671  -4.769  24.093  0.00  0.00    +0.119 HD
ATOM      7  H2  UNL     1      10.181  -4.370  23.751  0.00  0.00    +0.119 HD
ENDBRANCH   4   5
BRANCH   4   8
ATOM      8  C   UNL     1       7.816  -2.913  22.805  0.00  0.00    +0.324 C 
ATOM      9  OXT UNL     1       7.582  -3.948  22.197  0.00  0.00    -0.249 OA
BRANCH   8  10
ATOM     10  O   UNL     1       7.107  -1.764  22.643  0.00  0.00    -0.479 OA
ATOM     11  H   UNL     1       7.720  -1.035  22.912  0.00  0.00    +0.295 HD
ENDBRANCH   8  10
ENDBRANCH   4   8
ENDBRANCH   1   4
BRANCH   1  12
ATOM     12  C   UNL     1      10.150  -0.431  23.711  0.00  0.00    +0.205 C 
BRANCH  12  13
ATOM     13  O   UNL     1      10.468   0.440  22.636  0.00  0.00    -0.284 OA
BRANCH  13  14
ATOM     14  P   UNL     1       9.245   1.618  22.304  0.00  0.00    +0.472 P 
ATOM     15  O   UNL     1       8.150   2.671  22.007  0.00  0.00    -0.228 OA
BRANCH  14  16
ATOM     16  O   UNL     1       8.966   0.811  20.914  0.00  0.00    -0.303 OA
ATOM     17  H   UNL     1       7.997   0.725  20.818  0.00  0.00    +0.222 HD
ENDBRANCH  14  16
BRANCH  14  18
ATOM     18  O   UNL     1      10.475   2.516  21.702  0.00  0.00    -0.303 OA
ATOM     19  H   UNL     1      10.068   3.315  21.316  0.00  0.00    +0.222 HD
ENDBRANCH  14  18
ENDBRANCH  13  14
ENDBRANCH  12  13
ENDBRANCH   1  12
TORSDOF 10
ENDMDL
MODEL 5
REMARK VINA RESULT:      -4.7      2.239      3.538
REMARK  Name = 
REMARK  10 active torsions:
REMARK  status: ('A' for Active; 'I' for Inactive)
REMARK    1  A    between atoms: N_1  and  CA_2
REMARK    2  A    between atoms: CA_2  and  C_4
REMARK    3  A    between atoms: CA_2  and  C_13
REMARK    4  A    between atoms: C_4  and  O_6
REMARK    5  A    between atoms: C_4  and  C_7
REMARK    6  A    between atoms: C_7  and  O_8
REMARK    7  A    between atoms: O_8  and  P_9
REMARK    8  A    between atoms: P_9  and  O_10
REMARK    9  A    between atoms: P_9  and  O_11
REMARK   10  A    between atoms: C_13  and  O_14
REMARK                            x       y       z     vdW  Elec       q    Type
REMARK                         _______ _______ _______ _____ _____    ______ ____
ROOT
ATOM      1  C   UNL     1       9.509   1.574  22.442  0.00  0.00    +0.168 C 
ENDROOT
BRANCH   1   2
ATOM      2  O   UNL     1      10.250   2.237  21.404  0.00  0.00    -0.387 OA
ATOM      3  H   UNL     1      11.196   2.130  21.608  0.00  0.00    +0.210 HD
ENDBRANCH   1   2
BRANCH   1   4
ATOM      4  CA  UNL     1      10.083   1.980  23.809  0.00  0.00    +0.192 C 
BRANCH   4   5
ATOM      5  N   UNL     1      11.034   0.974  24.399  0.00  0.00    -0.316 NA
ATOM      6  H1  UNL     1      10.541   0.082  24.522  0.00  0.00    +0.119 HD
ATOM      7  H2  UNL     1      11.707   0.750  23.657  0.00  0.00    +0.119 HD
ENDBRANCH   4   5
BRANCH   4   8
ATOM      8  C   UNL     1       8.974   2.293  24.831  0.00  0.00    +0.324 C 
ATOM      9  OXT UNL     1       8.494   3.402  25.020  0.00  0.00    -0.249 OA
BRANCH   8  10
ATOM     10  O   UNL     1       8.612   1.184  25.530  0.00  0.00    -0.479 OA
ATOM     11  H   UNL     1       7.710   1.379  25.887  0.00  0.00    +0.295 HD
ENDBRANCH   8  10
ENDBRANCH   4   8
ENDBRANCH   1   4
BRANCH   1  12
ATOM     12  C   UNL     1       9.553   0.070  22.144  0.00  0.00    +0.205 C 
BRANCH  12  13
ATOM     13  O   UNL     1       8.627  -0.632  22.960  0.00  0.00    -0.284 OA
BRANCH  13  14
ATOM     14  P   UNL     1       9.210  -2.159  23.526  0.00  0.00    +0.472 P 
ATOM     15  O   UNL     1       9.731  -3.526  24.032  0.00  0.00    -0.228 OA
BRANCH  14  16
ATOM     16  O   UNL     1       9.541  -1.414  24.939  0.00  0.00    -0.303 OA
ATOM     17  H   UNL     1       8.897  -1.739  25.597  0.00  0.00    +0.222 HD
ENDBRANCH  14  16
BRANCH  14  18
ATOM     18  O   UNL     1      10.616  -1.729  22.805  0.00  0.00    -0.303 OA
ATOM     19  H   UNL     1      11.320  -2.238  23.250  0.00  0.00    +0.222 HD
ENDBRANCH  14  18
ENDBRANCH  13  14
ENDBRANCH  12  13
ENDBRANCH   1  12
TORSDOF 10
ENDMDL
MODEL 6
REMARK VINA RESULT:      -4.7      2.781      3.501
REMARK  Name = 
REMARK  10 active torsions:
REMARK  status: ('A' for Active; 'I' for Inactive)
REMARK    1  A    between atoms: N_1  and  CA_2
REMARK    2  A    between atoms: CA_2  and  C_4
REMARK    3  A    between atoms: CA_2  and  C_13
REMARK    4  A    between atoms: C_4  and  O_6
REMARK    5  A    between atoms: C_4  and  C_7
REMARK    6  A    between atoms: C_7  and  O_8
REMARK    7  A    between atoms: O_8  and  P_9
REMARK    8  A    between atoms: P_9  and  O_10
REMARK    9  A    between atoms: P_9  and  O_11
REMARK   10  A    between atoms: C_13  and  O_14
REMARK                            x       y       z     vdW  Elec       q    Type
REMARK                         _______ _______ _______ _____ _____    ______ ____
ROOT
ATOM      1  C   UNL     1      10.025   1.789  24.400  0.00  0.00    +0.168 C 
ENDROOT
BRANCH   1   2
ATOM      2  O   UNL     1       8.610   1.741  24.648  0.00  0.00    -0.387 OA
ATOM      3  H   UNL     1       8.390   2.495  25.224  0.00  0.00    +0.210 HD
ENDBRANCH   1   2
BRANCH   1   4
ATOM      4  CA  UNL     1      10.273   2.394  23.009  0.00  0.00    +0.192 C 
BRANCH   4   5
ATOM      5  N   UNL     1      10.700   3.837  23.034  0.00  0.00    -0.316 NA
ATOM      6  H1  UNL     1      10.347   4.273  23.894  0.00  0.00    +0.119 HD
ATOM      7  H2  UNL     1      11.714   3.830  23.194  0.00  0.00    +0.119 HD
ENDBRANCH   4   5
BRANCH   4   8
ATOM      8  C   UNL     1       9.050   2.241  22.085  0.00  0.00    +0.324 C 
ATOM      9  OXT UNL     1       8.054   2.949  22.124  0.00  0.00    -0.249 OA
BRANCH   8  10
ATOM     10  O   UNL     1       9.198   1.191  21.234  0.00  0.00    -0.479 OA
ATOM     11  H   UNL     1      10.108   0.839  21.403  0.00  0.00    +0.295 HD
ENDBRANCH   8  10
ENDBRANCH   4   8
ENDBRANCH   1   4
BRANCH   1  12
ATOM     12  C   UNL     1      10.570   0.368  24.592  0.00  0.00    +0.205 C 
BRANCH  12  13
ATOM     13  O   UNL     1      10.689  -0.298  23.345  0.00  0.00    -0.284 OA
BRANCH  13  14
ATOM     14  P   UNL     1       9.882  -1.826  23.286  0.00  0.00    +0.472 P 
ATOM     15  O   UNL     1       9.159  -3.195  23.234  0.00  0.00    -0.228 OA
BRANCH  14  16
ATOM     16  O   UNL     1      10.040  -1.752  21.664  0.00  0.00    -0.303 OA
ATOM     17  H   UNL     1      10.117  -0.808  21.423  0.00  0.00    +0.222 HD
ENDBRANCH  14  16
BRANCH  14  18
ATOM     18  O   UNL     1       8.506  -0.941  23.336  0.00  0.00    -0.303 OA
ATOM     19  H   UNL     1       8.638  -0.267  24.030  0.00  0.00    +0.222 HD
ENDBRANCH  14  18
ENDBRANCH  13  14
ENDBRANCH  12  13
ENDBRANCH   1  12
TORSDOF 10
ENDMDL
MODEL 7
REMARK VINA RESULT:      -4.7      4.817      5.925
REMARK  Name = 
REMARK  10 active torsions:
REMARK  status: ('A' for Active; 'I' for Inactive)
REMARK    1  A    between atoms: N_1  and  CA_2
REMARK    2  A    between atoms: CA_2  and  C_4
REMARK    3  A    between atoms: CA_2  and  C_13
REMARK    4  A    between atoms: C_4  and  O_6
REMARK    5  A    between atoms: C_4  and  C_7
REMARK    6  A    between atoms: C_7  and  O_8
REMARK    7  A    between atoms: O_8  and  P_9
REMARK    8  A    between atoms: P_9  and  O_10
REMARK    9  A    between atoms: P_9  and  O_11
REMARK   10  A    between atoms: C_13  and  O_14
REMARK                            x       y       z     vdW  Elec       q    Type
REMARK                         _______ _______ _______ _____ _____    ______ ____
ROOT
ATOM      1  C   UNL     1       6.882  -4.060  25.867  0.00  0.00    +0.168 C 
ENDROOT
BRANCH   1   2
ATOM      2  O   UNL     1       7.806  -2.997  25.580  0.00  0.00    -0.387 OA
ATOM      3  H   UNL     1       7.979  -3.012  24.622  0.00  0.00    +0.210 HD
ENDBRANCH   1   2
BRANCH   1   4
ATOM      4  CA  UNL     1       7.668  -5.358  26.113  0.00  0.00    +0.192 C 
BRANCH   4   5
ATOM      5  N   UNL     1       7.670  -5.812  27.547  0.00  0.00    -0.316 NA
ATOM      6  H1  UNL     1       7.998  -6.785  27.587  0.00  0.00    +0.119 HD
ATOM      7  H2  UNL     1       8.438  -5.305  28.005  0.00  0.00    +0.119 HD
ENDBRANCH   4   5
BRANCH   4   8
ATOM      8  C   UNL     1       9.118  -5.261  25.606  0.00  0.00    +0.324 C 
ATOM      9  OXT UNL     1       9.461  -5.409  24.441  0.00  0.00    -0.249 OA
BRANCH   8  10
ATOM     10  O   UNL     1       9.987  -5.021  26.624  0.00  0.00    -0.479 OA
ATOM     11  H   UNL     1      10.561  -4.277  26.313  0.00  0.00    +0.295 HD
ENDBRANCH   8  10
ENDBRANCH   4   8
ENDBRANCH   1   4
BRANCH   1  12
ATOM     12  C   UNL     1       5.882  -4.120  24.706  0.00  0.00    +0.205 C 
BRANCH  12  13
ATOM     13  O   UNL     1       6.017  -5.337  23.989  0.00  0.00    -0.284 OA
BRANCH  13  14
ATOM     14  P   UNL     1       5.988  -5.143  22.270  0.00  0.00    +0.472 P 
ATOM     15  O   UNL     1       5.962  -4.970  20.731  0.00  0.00    -0.228 OA
BRANCH  14  16
ATOM     16  O   UNL     1       5.045  -6.474  22.221  0.00  0.00    -0.303 OA
ATOM     17  H   UNL     1       5.438  -7.131  22.827  0.00  0.00    +0.222 HD
ENDBRANCH  14  16
BRANCH  14  18
ATOM     18  O   UNL     1       7.400  -5.971  22.296  0.00  0.00    -0.303 OA
ATOM     19  H   UNL     1       8.031  -5.456  21.757  0.00  0.00    +0.222 HD
ENDBRANCH  14  18
ENDBRANCH  13  14
ENDBRANCH  12  13
ENDBRANCH   1  12
TORSDOF 10
ENDMDL
MODEL 8
REMARK VINA RESULT:      -4.7      3.067      5.800
REMARK  Name = 
REMARK  10 active torsions:
REMARK  status: ('A' for Active; 'I' for Inactive)
REMARK    1  A    between atoms: N_1  and  CA_2
REMARK    2  A    between atoms: CA_2  and  C_4
REMARK    3  A    between atoms: CA_2  and  C_13
REMARK    4  A    between atoms: C_4  and  O_6
REMARK    5  A    between atoms: C_4  and  C_7
REMARK    6  A    between atoms: C_7  and  O_8
REMARK    7  A    between atoms: O_8  and  P_9
REMARK    8  A    between atoms: P_9  and  O_10
REMARK    9  A    between atoms: P_9  and  O_11
REMARK   10  A    between atoms: C_13  and  O_14
REMARK                            x       y       z     vdW  Elec       q    Type
REMARK                         _______ _______ _______ _____ _____    ______ ____
ROOT
ATOM      1  C   UNL     1       8.304  -4.295  23.947  0.00  0.00    +0.168 C 
ENDROOT
BRANCH   1   2
ATOM      2  O   UNL     1       6.996  -4.820  24.228  0.00  0.00    -0.387 OA
ATOM      3  H   UNL     1       6.488  -4.799  23.398  0.00  0.00    +0.210 HD
ENDBRANCH   1   2
BRANCH   1   4
ATOM      4  CA  UNL     1       9.155  -4.346  25.226  0.00  0.00    +0.192 C 
BRANCH   4   5
ATOM      5  N   UNL     1      10.312  -5.305  25.156  0.00  0.00    -0.316 NA
ATOM      6  H1  UNL     1      10.162  -5.950  24.370  0.00  0.00    +0.119 HD
ATOM      7  H2  UNL     1      11.118  -4.756  24.836  0.00  0.00    +0.119 HD
ENDBRANCH   4   5
BRANCH   4   8
ATOM      8  C   UNL     1       8.306  -4.660  26.472  0.00  0.00    +0.324 C 
ATOM      9  OXT UNL     1       7.693  -3.827  27.125  0.00  0.00    -0.249 OA
BRANCH   8  10
ATOM     10  O   UNL     1       8.347  -5.983  26.782  0.00  0.00    -0.479 OA
ATOM     11  H   UNL     1       8.168  -6.460  25.933  0.00  0.00    +0.295 HD
ENDBRANCH   8  10
ENDBRANCH   4   8
ENDBRANCH   1   4
BRANCH   1  12
ATOM     12  C   UNL     1       8.114  -2.893  23.353  0.00  0.00    +0.205 C 
BRANCH  12  13
ATOM     13  O   UNL     1       9.294  -2.119  23.504  0.00  0.00    -0.284 OA
BRANCH  13  14
ATOM     14  P   UNL     1       9.380  -0.759  22.438  0.00  0.00    +0.472 P 
ATOM     15  O   UNL     1       9.457   0.458  21.485  0.00  0.00    -0.228 OA
BRANCH  14  16
ATOM     16  O   UNL     1      10.316  -1.683  21.473  0.00  0.00    -0.303 OA
ATOM     17  H   UNL     1       9.918  -1.666  20.581  0.00  0.00    +0.222 HD
ENDBRANCH  14  16
BRANCH  14  18
ATOM     18  O   UNL     1      10.611  -0.265  23.399  0.00  0.00    -0.303 OA
ATOM     19  H   UNL     1      11.377  -0.119  22.811  0.00  0.00    +0.222 HD
ENDBRANCH  14  18
ENDBRANCH  13  14
ENDBRANCH  12  13
ENDBRANCH   1  12
TORSDOF 10
ENDMDL
MODEL 9
REMARK VINA RESULT:      -4.6      4.101      5.972
REMARK  Name = 
REMARK  10 active torsions:
REMARK  status: ('A' for Active; 'I' for Inactive)
REMARK    1  A    between atoms: N_1  and  CA_2
REMARK    2  A    between atoms: CA_2  and  C_4
REMARK    3  A    between atoms: CA_2  and  C_13
REMARK    4  A    between atoms: C_4  and  O_6
REMARK    5  A    between atoms: C_4  and  C_7
REMARK    6  A    between atoms: C_7  and  O_8
REMARK    7  A    between atoms: O_8  and  P_9
REMARK    8  A    between atoms: P_9  and  O_10
REMARK    9  A    between atoms: P_9  and  O_11
REMARK   10  A    between atoms: C_13  and  O_14
REMARK                            x       y       z     vdW  Elec       q    Type
REMARK                         _______ _______ _______ _____ _____    ______ ____
ROOT
ATOM      1  C   UNL     1       8.477  -3.972  24.530  0.00  0.00    +0.168 C 
ENDROOT
BRANCH   1   2
ATOM      2  O   UNL     1       9.599  -3.371  23.862  0.00  0.00    -0.387 OA
ATOM      3  H   UNL     1       9.552  -2.411  24.022  0.00  0.00    +0.210 HD
ENDBRANCH   1   2
BRANCH   1   4
ATOM      4  CA  UNL     1       8.923  -4.475  25.912  0.00  0.00    +0.192 C 
BRANCH   4   5
ATOM      5  N   UNL     1       9.853  -5.657  25.866  0.00  0.00    -0.316 NA
ATOM      6  H1  UNL     1      10.296  -5.695  24.940  0.00  0.00    +0.119 HD
ATOM      7  H2  UNL     1      10.644  -5.420  26.476  0.00  0.00    +0.119 HD
ENDBRANCH   4   5
BRANCH   4   8
ATOM      8  C   UNL     1       7.725  -4.804  26.822  0.00  0.00    +0.324 C 
ATOM      9  OXT UNL     1       6.712  -4.124  26.914  0.00  0.00    -0.249 OA
BRANCH   8  10
ATOM     10  O   UNL     1       7.943  -5.937  27.542  0.00  0.00    -0.479 OA
ATOM     11  H   UNL     1       7.595  -6.677  26.983  0.00  0.00    +0.295 HD
ENDBRANCH   8  10
ENDBRANCH   4   8
ENDBRANCH   1   4
BRANCH   1  12
ATOM     12  C   UNL     1       7.919  -5.056  23.598  0.00  0.00    +0.205 C 
BRANCH  12  13
ATOM     13  O   UNL     1       6.612  -4.719  23.161  0.00  0.00    -0.284 OA
BRANCH  13  14
ATOM     14  P   UNL     1       6.272  -5.197  21.534  0.00  0.00    +0.472 P 
ATOM     15  O   UNL     1       5.969  -5.625  20.077  0.00  0.00    -0.228 OA
BRANCH  14  16
ATOM     16  O   UNL     1       5.587  -3.730  21.335  0.00  0.00    -0.303 OA
ATOM     17  H   UNL     1       4.971  -3.594  22.081  0.00  0.00    +0.222 HD
ENDBRANCH  14  16
BRANCH  14  18
ATOM     18  O   UNL     1       4.934  -5.894  22.169  0.00  0.00    -0.303 OA
ATOM     19  H   UNL     1       4.713  -5.385  22.972  0.00  0.00    +0.222 HD
ENDBRANCH  14  18
ENDBRANCH  13  14
ENDBRANCH  12  13
ENDBRANCH   1  12
TORSDOF 10
ENDMDL
