MODEL 1
REMARK VINA RESULT:      -7.8      0.000      0.000
REMARK  Name = 
REMARK  4 active torsions:
REMARK  status: ('A' for Active; 'I' for Inactive)
REMARK    1  A    between atoms: C_12  and  N_13
REMARK    2  A    between atoms: N_13  and  C_14
REMARK    3  A    between atoms: C_17  and  C_18
REMARK    4  A    between atoms: C_18  and  N_19
REMARK                            x       y       z     vdW  Elec       q    Type
REMARK                         _______ _______ _______ _____ _____    ______ ____
ROOT
ATOM      1 BR   UNL     1       2.403  -6.712  23.357  0.00  0.00    -0.050 Br
ATOM      2  C   UNL     1       3.862  -6.356  24.505  0.00  0.00    +0.018 A 
ATOM      3  C   UNL     1       4.890  -5.510  24.076  0.00  0.00    +0.024 A 
ATOM      4  C   UNL     1       5.991  -5.232  24.908  0.00  0.00    +0.001 A 
ATOM      5  C   UNL     1       6.014  -5.826  26.183  0.00  0.00    +0.045 A 
ATOM      6  C   UNL     1       7.132  -5.562  27.116  0.00  0.00    +0.251 C 
ATOM      7  N   UNL     1       8.103  -4.689  26.700  0.00  0.00    -0.248 N 
ATOM      8  H   UNL     1       8.808  -4.458  27.386  0.00  0.00    +0.158 HD
ATOM      9  C   UNL     1       8.111  -3.936  25.560  0.00  0.00    +0.252 C 
ATOM     10  O   UNL     1       8.909  -3.012  25.421  0.00  0.00    -0.270 OA
ATOM     11  O   UNL     1       7.176  -6.081  28.225  0.00  0.00    -0.270 OA
ATOM     12  C   UNL     1       4.976  -6.670  26.608  0.00  0.00    +0.015 A 
ATOM     13  C   UNL     1       7.100  -4.329  24.523  0.00  0.00    +0.059 C 
ATOM     14  C   UNL     1       7.304  -3.879  23.266  0.00  0.00    +0.085 C 
ATOM     15  C   UNL     1       3.898  -6.935  25.768  0.00  0.00    +0.016 A 
ENDROOT
BRANCH  14  16
ATOM     16  N   UNL     1       8.330  -3.084  22.811  0.00  0.00    -0.320 N 
ATOM     17  H   UNL     1       9.238  -3.552  22.731  0.00  0.00    +0.152 HD
BRANCH  16  18
ATOM     18  C   UNL     1       8.337  -1.715  22.506  0.00  0.00    +0.031 A 
ATOM     19  C   UNL     1       7.297  -0.922  23.011  0.00  0.00    +0.023 A 
ATOM     20  C   UNL     1       7.274   0.461  22.808  0.00  0.00    +0.007 A 
ATOM     21  C   UNL     1       8.294   1.089  22.087  0.00  0.00    -0.033 A 
ATOM     22  C   UNL     1       9.341   0.304  21.588  0.00  0.00    +0.007 A 
ATOM     23  C   UNL     1       9.367  -1.079  21.807  0.00  0.00    +0.023 A 
BRANCH  21  24
ATOM     24  C   UNL     1       8.266   2.585  21.865  0.00  0.00    +0.119 C 
BRANCH  24  25
ATOM     25  N   UNL     1       8.015   3.356  23.086  0.00  0.00    -0.298 NA
ATOM     26  C   UNL     1       7.569   4.720  22.782  0.00  0.00    +0.085 C 
ATOM     27  C   UNL     1       7.979   5.557  23.992  0.00  0.00    +0.017 C 
ATOM     28  C   UNL     1       8.779   4.613  24.875  0.00  0.00    +0.017 C 
ATOM     29  C   UNL     1       9.203   3.504  23.931  0.00  0.00    +0.085 C 
ENDBRANCH  24  25
ENDBRANCH  21  24
ENDBRANCH  16  18
ENDBRANCH  14  16
TORSDOF 4
ENDMDL
MODEL 2
REMARK VINA RESULT:      -7.5      2.454      3.094
REMARK  Name = 
REMARK  4 active torsions:
REMARK  status: ('A' for Active; 'I' for Inactive)
REMARK    1  A    between atoms: C_12  and  N_13
REMARK    2  A    between atoms: N_13  and  C_14
REMARK    3  A    between atoms: C_17  and  C_18
REMARK    4  A    between atoms: C_18  and  N_19
REMARK                            x       y       z     vdW  Elec       q    Type
REMARK                         _______ _______ _______ _____ _____    ______ ____
ROOT
ATOM      1 BR   UNL     1       5.972  -6.434  29.192  0.00  0.00    -0.050 Br
ATOM      2  C   UNL     1       5.544  -6.148  27.372  0.00  0.00    +0.018 A 
ATOM      3  C   UNL     1       6.465  -5.507  26.537  0.00  0.00    +0.024 A 
ATOM      4  C   UNL     1       6.170  -5.276  25.180  0.00  0.00    +0.001 A 
ATOM      5  C   UNL     1       4.926  -5.718  24.696  0.00  0.00    +0.045 A 
ATOM      6  C   UNL     1       4.559  -5.523  23.276  0.00  0.00    +0.251 C 
ATOM      7  N   UNL     1       5.495  -4.943  22.460  0.00  0.00    -0.248 N 
ATOM      8  H   UNL     1       5.255  -4.901  21.479  0.00  0.00    +0.158 HD
ATOM      9  C   UNL     1       6.784  -4.617  22.774  0.00  0.00    +0.252 C 
ATOM     10  O   UNL     1       7.594  -4.336  21.894  0.00  0.00    -0.270 OA
ATOM     11  O   UNL     1       3.474  -5.890  22.839  0.00  0.00    -0.270 OA
ATOM     12  C   UNL     1       4.008  -6.364  25.540  0.00  0.00    +0.015 A 
ATOM     13  C   UNL     1       7.110  -4.624  24.238  0.00  0.00    +0.059 C 
ATOM     14  C   UNL     1       8.226  -3.967  24.621  0.00  0.00    +0.085 C 
ATOM     15  C   UNL     1       4.318  -6.580  26.880  0.00  0.00    +0.016 A 
ENDROOT
BRANCH  14  16
ATOM     16  N   UNL     1       9.123  -3.294  23.825  0.00  0.00    -0.320 N 
ATOM     17  H   UNL     1       9.634  -3.879  23.157  0.00  0.00    +0.152 HD
BRANCH  16  18
ATOM     18  C   UNL     1       9.494  -1.941  23.836  0.00  0.00    +0.031 A 
ATOM     19  C   UNL     1       9.847  -1.344  22.618  0.00  0.00    +0.023 A 
ATOM     20  C   UNL     1      10.160   0.016  22.539  0.00  0.00    +0.007 A 
ATOM     21  C   UNL     1      10.133   0.817  23.685  0.00  0.00    -0.033 A 
ATOM     22  C   UNL     1       9.772   0.230  24.904  0.00  0.00    +0.007 A 
ATOM     23  C   UNL     1       9.444  -1.130  24.974  0.00  0.00    +0.023 A 
BRANCH  21  24
ATOM     24  C   UNL     1      10.476   2.288  23.599  0.00  0.00    +0.119 C 
BRANCH  24  25
ATOM     25  N   UNL     1       9.338   3.174  23.859  0.00  0.00    -0.298 NA
ATOM     26  C   UNL     1       8.335   3.094  22.791  0.00  0.00    +0.085 C 
ATOM     27  C   UNL     1       7.613   4.439  22.815  0.00  0.00    +0.017 C 
ATOM     28  C   UNL     1       8.365   5.276  23.838  0.00  0.00    +0.017 C 
ATOM     29  C   UNL     1       9.712   4.587  23.950  0.00  0.00    +0.085 C 
ENDBRANCH  24  25
ENDBRANCH  21  24
ENDBRANCH  16  18
ENDBRANCH  14  16
TORSDOF 4
ENDMDL
MODEL 3
REMARK VINA RESULT:      -7.3      2.554      3.286
REMARK  Name = 
REMARK  4 active torsions:
REMARK  status: ('A' for Active; 'I' for Inactive)
REMARK    1  A    between atoms: C_12  and  N_13
REMARK    2  A    between atoms: N_13  and  C_14
REMARK    3  A    between atoms: C_17  and  C_18
REMARK    4  A    between atoms: C_18  and  N_19
REMARK                            x       y       z     vdW  Elec       q    Type
REMARK                         _______ _______ _______ _____ _____    ______ ____
ROOT
ATOM      1 BR   UNL     1       5.857  -6.223  28.442  0.00  0.00    -0.050 Br
ATOM      2  C   UNL     1       5.910  -5.734  26.616  0.00  0.00    +0.018 A 
ATOM      3  C   UNL     1       6.829  -4.771  26.184  0.00  0.00    +0.024 A 
ATOM      4  C   UNL     1       6.886  -4.383  24.833  0.00  0.00    +0.001 A 
ATOM      5  C   UNL     1       5.998  -5.003  23.936  0.00  0.00    +0.045 A 
ATOM      6  C   UNL     1       6.016  -4.656  22.497  0.00  0.00    +0.251 C 
ATOM      7  N   UNL     1       6.958  -3.751  22.082  0.00  0.00    -0.248 N 
ATOM      8  H   UNL     1       7.009  -3.597  21.085  0.00  0.00    +0.158 HD
ATOM      9  C   UNL     1       7.967  -3.204  22.822  0.00  0.00    +0.252 C 
ATOM     10  O   UNL     1       8.891  -2.603  22.280  0.00  0.00    -0.270 OA
ATOM     11  O   UNL     1       5.241  -5.176  21.703  0.00  0.00    -0.270 OA
ATOM     12  C   UNL     1       5.082  -5.972  24.376  0.00  0.00    +0.015 A 
ATOM     13  C   UNL     1       7.848  -3.387  24.307  0.00  0.00    +0.059 C 
ATOM     14  C   UNL     1       8.591  -2.572  25.087  0.00  0.00    +0.085 C 
ATOM     15  C   UNL     1       5.039  -6.339  25.718  0.00  0.00    +0.016 A 
ENDROOT
BRANCH  14  16
ATOM     16  N   UNL     1       9.466  -1.590  24.687  0.00  0.00    -0.320 N 
ATOM     17  H   UNL     1      10.399  -1.921  24.426  0.00  0.00    +0.152 HD
BRANCH  16  18
ATOM     18  C   UNL     1       9.297  -0.198  24.650  0.00  0.00    +0.031 A 
ATOM     19  C   UNL     1       8.175   0.348  25.289  0.00  0.00    +0.023 A 
ATOM     20  C   UNL     1       7.977   1.730  25.354  0.00  0.00    +0.007 A 
ATOM     21  C   UNL     1       8.899   2.606  24.774  0.00  0.00    -0.033 A 
ATOM     22  C   UNL     1      10.027   2.069  24.142  0.00  0.00    +0.007 A 
ATOM     23  C   UNL     1      10.228   0.684  24.093  0.00  0.00    +0.023 A 
BRANCH  21  24
ATOM     24  C   UNL     1       8.681   4.102  24.841  0.00  0.00    +0.119 C 
BRANCH  24  25
ATOM     25  N   UNL     1       8.319   4.702  23.554  0.00  0.00    -0.298 NA
ATOM     26  C   UNL     1       8.753   6.100  23.467  0.00  0.00    +0.085 C 
ATOM     27  C   UNL     1       7.799   6.758  22.473  0.00  0.00    +0.017 C 
ATOM     28  C   UNL     1       6.764   5.692  22.150  0.00  0.00    +0.017 C 
ATOM     29  C   UNL     1       6.874   4.718  23.308  0.00  0.00    +0.085 C 
ENDBRANCH  24  25
ENDBRANCH  21  24
ENDBRANCH  16  18
ENDBRANCH  14  16
TORSDOF 4
ENDMDL
MODEL 4
REMARK VINA RESULT:      -7.2      4.177      9.607
REMARK  Name = 
REMARK  4 active torsions:
REMARK  status: ('A' for Active; 'I' for Inactive)
REMARK    1  A    between atoms: C_12  and  N_13
REMARK    2  A    between atoms: N_13  and  C_14
REMARK    3  A    between atoms: C_17  and  C_18
REMARK    4  A    between atoms: C_18  and  N_19
REMARK                            x       y       z     vdW  Elec       q    Type
REMARK                         _______ _______ _______ _____ _____    ______ ____
ROOT
ATOM      1 BR   UNL     1      11.997   6.575  25.061  0.00  0.00    -0.050 Br
ATOM      2  C   UNL     1      10.331   6.110  24.298  0.00  0.00    +0.018 A 
ATOM      3  C   UNL     1      10.143   4.825  23.777  0.00  0.00    +0.024 A 
ATOM      4  C   UNL     1       8.915   4.454  23.197  0.00  0.00    +0.001 A 
ATOM      5  C   UNL     1       7.888   5.413  23.170  0.00  0.00    +0.045 A 
ATOM      6  C   UNL     1       6.565   5.084  22.592  0.00  0.00    +0.251 C 
ATOM      7  N   UNL     1       6.381   3.805  22.136  0.00  0.00    -0.248 N 
ATOM      8  H   UNL     1       5.446   3.580  21.827  0.00  0.00    +0.158 HD
ATOM      9  C   UNL     1       7.242   2.750  22.249  0.00  0.00    +0.252 C 
ATOM     10  O   UNL     1       6.864   1.603  22.026  0.00  0.00    -0.270 OA
ATOM     11  O   UNL     1       5.662   5.911  22.548  0.00  0.00    -0.270 OA
ATOM     12  C   UNL     1       8.082   6.699  23.699  0.00  0.00    +0.015 A 
ATOM     13  C   UNL     1       8.644   3.105  22.649  0.00  0.00    +0.059 C 
ATOM     14  C   UNL     1       9.600   2.179  22.418  0.00  0.00    +0.085 C 
ATOM     15  C   UNL     1       9.306   7.047  24.265  0.00  0.00    +0.016 A 
ENDROOT
BRANCH  14  16
ATOM     16  N   UNL     1       9.447   0.928  21.868  0.00  0.00    -0.320 N 
ATOM     17  H   UNL     1       9.302   0.916  20.854  0.00  0.00    +0.152 HD
BRANCH  16  18
ATOM     18  C   UNL     1       9.391  -0.327  22.492  0.00  0.00    +0.031 A 
ATOM     19  C   UNL     1       9.828  -0.423  23.820  0.00  0.00    +0.023 A 
ATOM     20  C   UNL     1       9.737  -1.623  24.530  0.00  0.00    +0.007 A 
ATOM     21  C   UNL     1       9.207  -2.766  23.925  0.00  0.00    -0.033 A 
ATOM     22  C   UNL     1       8.759  -2.676  22.601  0.00  0.00    +0.007 A 
ATOM     23  C   UNL     1       8.839  -1.466  21.900  0.00  0.00    +0.023 A 
BRANCH  21  24
ATOM     24  C   UNL     1       9.113  -4.067  24.693  0.00  0.00    +0.119 C 
BRANCH  24  25
ATOM     25  N   UNL     1       7.885  -4.195  25.483  0.00  0.00    -0.298 NA
ATOM     26  C   UNL     1       8.139  -4.834  26.779  0.00  0.00    +0.085 C 
ATOM     27  C   UNL     1       6.817  -5.486  27.173  0.00  0.00    +0.017 C 
ATOM     28  C   UNL     1       5.903  -5.288  25.975  0.00  0.00    +0.017 C 
ATOM     29  C   UNL     1       6.860  -5.013  24.830  0.00  0.00    +0.085 C 
ENDBRANCH  24  25
ENDBRANCH  21  24
ENDBRANCH  16  18
ENDBRANCH  14  16
TORSDOF 4
ENDMDL
MODEL 5
REMARK VINA RESULT:      -7.2      2.389      3.164
REMARK  Name = 
REMARK  4 active torsions:
REMARK  status: ('A' for Active; 'I' for Inactive)
REMARK    1  A    between atoms: C_12  and  N_13
REMARK    2  A    between atoms: N_13  and  C_14
REMARK    3  A    between atoms: C_17  and  C_18
REMARK    4  A    between atoms: C_18  and  N_19
REMARK                            x       y       z     vdW  Elec       q    Type
REMARK                         _______ _______ _______ _____ _____    ______ ____
ROOT
ATOM      1 BR   UNL     1       5.006  -6.599  28.196  0.00  0.00    -0.050 Br
ATOM      2  C   UNL     1       5.350  -6.116  26.400  0.00  0.00    +0.018 A 
ATOM      3  C   UNL     1       6.302  -5.129  26.119  0.00  0.00    +0.024 A 
ATOM      4  C   UNL     1       6.573  -4.746  24.793  0.00  0.00    +0.001 A 
ATOM      5  C   UNL     1       5.864  -5.394  23.766  0.00  0.00    +0.045 A 
ATOM      6  C   UNL     1       6.113  -5.053  22.347  0.00  0.00    +0.251 C 
ATOM      7  N   UNL     1       7.087  -4.124  22.087  0.00  0.00    -0.248 N 
ATOM      8  H   UNL     1       7.299  -3.972  21.111  0.00  0.00    +0.158 HD
ATOM      9  C   UNL     1       7.943  -3.545  22.981  0.00  0.00    +0.252 C 
ATOM     10  O   UNL     1       8.928  -2.921  22.595  0.00  0.00    -0.270 OA
ATOM     11  O   UNL     1       5.496  -5.598  21.440  0.00  0.00    -0.270 OA
ATOM     12  C   UNL     1       4.914  -6.387  24.055  0.00  0.00    +0.015 A 
ATOM     13  C   UNL     1       7.583  -3.726  24.426  0.00  0.00    +0.059 C 
ATOM     14  C   UNL     1       8.163  -2.887  25.312  0.00  0.00    +0.085 C 
ATOM     15  C   UNL     1       4.658  -6.749  25.375  0.00  0.00    +0.016 A 
ENDROOT
BRANCH  14  16
ATOM     16  N   UNL     1       9.066  -1.882  25.055  0.00  0.00    -0.320 N 
ATOM     17  H   UNL     1      10.050  -2.149  25.152  0.00  0.00    +0.152 HD
BRANCH  16  18
ATOM     18  C   UNL     1       8.843  -0.532  24.749  0.00  0.00    +0.031 A 
ATOM     19  C   UNL     1       9.927   0.353  24.840  0.00  0.00    +0.023 A 
ATOM     20  C   UNL     1       9.800   1.698  24.484  0.00  0.00    +0.007 A 
ATOM     21  C   UNL     1       8.576   2.197  24.028  0.00  0.00    -0.033 A 
ATOM     22  C   UNL     1       7.491   1.318  23.924  0.00  0.00    +0.007 A 
ATOM     23  C   UNL     1       7.629  -0.033  24.268  0.00  0.00    +0.023 A 
BRANCH  21  24
ATOM     24  C   UNL     1       8.438   3.655  23.646  0.00  0.00    +0.119 C 
BRANCH  24  25
ATOM     25  N   UNL     1       9.247   4.557  24.470  0.00  0.00    -0.298 NA
ATOM     26  C   UNL     1       8.478   5.098  25.596  0.00  0.00    +0.085 C 
ATOM     27  C   UNL     1       9.142   6.430  25.935  0.00  0.00    +0.017 C 
ATOM     28  C   UNL     1      10.196   6.634  24.859  0.00  0.00    +0.017 C 
ATOM     29  C   UNL     1       9.747   5.721  23.734  0.00  0.00    +0.085 C 
ENDBRANCH  24  25
ENDBRANCH  21  24
ENDBRANCH  16  18
ENDBRANCH  14  16
TORSDOF 4
ENDMDL
MODEL 6
REMARK VINA RESULT:      -7.1      4.148      9.085
REMARK  Name = 
REMARK  4 active torsions:
REMARK  status: ('A' for Active; 'I' for Inactive)
REMARK    1  A    between atoms: C_12  and  N_13
REMARK    2  A    between atoms: N_13  and  C_14
REMARK    3  A    between atoms: C_17  and  C_18
REMARK    4  A    between atoms: C_18  and  N_19
REMARK                            x       y       z     vdW  Elec       q    Type
REMARK                         _______ _______ _______ _____ _____    ______ ____
ROOT
ATOM      1 BR   UNL     1      13.070   5.597  22.587  0.00  0.00    -0.050 Br
ATOM      2  C   UNL     1      11.386   5.054  23.254  0.00  0.00    +0.018 A 
ATOM      3  C   UNL     1      11.181   3.717  23.611  0.00  0.00    +0.024 A 
ATOM      4  C   UNL     1       9.936   3.284  24.104  0.00  0.00    +0.001 A 
ATOM      5  C   UNL     1       8.914   4.242  24.234  0.00  0.00    +0.045 A 
ATOM      6  C   UNL     1       7.586   3.859  24.763  0.00  0.00    +0.251 C 
ATOM      7  N   UNL     1       7.420   2.558  25.158  0.00  0.00    -0.248 N 
ATOM      8  H   UNL     1       6.535   2.342  25.596  0.00  0.00    +0.158 HD
ATOM      9  C   UNL     1       8.373   1.582  25.227  0.00  0.00    +0.252 C 
ATOM     10  O   UNL     1       8.158   0.533  25.829  0.00  0.00    -0.270 OA
ATOM     11  O   UNL     1       6.680   4.677  24.870  0.00  0.00    -0.270 OA
ATOM     12  C   UNL     1       9.129   5.583  23.878  0.00  0.00    +0.015 A 
ATOM     13  C   UNL     1       9.661   1.889  24.520  0.00  0.00    +0.059 C 
ATOM     14  C   UNL     1      10.472   0.846  24.243  0.00  0.00    +0.085 C 
ATOM     15  C   UNL     1      10.367   5.990  23.389  0.00  0.00    +0.016 A 
ENDROOT
BRANCH  14  16
ATOM     16  N   UNL     1      10.273  -0.481  24.544  0.00  0.00    -0.320 N 
ATOM     17  H   UNL     1      10.822  -0.833  25.334  0.00  0.00    +0.152 HD
BRANCH  16  18
ATOM     18  C   UNL     1       9.486  -1.441  23.891  0.00  0.00    +0.031 A 
ATOM     19  C   UNL     1       9.322  -2.689  24.507  0.00  0.00    +0.023 A 
ATOM     20  C   UNL     1       8.497  -3.671  23.953  0.00  0.00    +0.007 A 
ATOM     21  C   UNL     1       7.812  -3.429  22.758  0.00  0.00    -0.033 A 
ATOM     22  C   UNL     1       7.963  -2.181  22.141  0.00  0.00    +0.007 A 
ATOM     23  C   UNL     1       8.780  -1.195  22.710  0.00  0.00    +0.023 A 
BRANCH  21  24
ATOM     24  C   UNL     1       6.921  -4.494  22.156  0.00  0.00    +0.119 C 
BRANCH  24  25
ATOM     25  N   UNL     1       5.811  -4.892  23.026  0.00  0.00    -0.298 NA
ATOM     26  C   UNL     1       5.039  -5.997  22.447  0.00  0.00    +0.085 C 
ATOM     27  C   UNL     1       3.639  -5.865  23.041  0.00  0.00    +0.017 C 
ATOM     28  C   UNL     1       3.666  -4.573  23.840  0.00  0.00    +0.017 C 
ATOM     29  C   UNL     1       4.847  -3.815  23.264  0.00  0.00    +0.085 C 
ENDBRANCH  24  25
ENDBRANCH  21  24
ENDBRANCH  16  18
ENDBRANCH  14  16
TORSDOF 4
ENDMDL
MODEL 7
REMARK VINA RESULT:      -7.0      2.494      2.897
REMARK  Name = 
REMARK  4 active torsions:
REMARK  status: ('A' for Active; 'I' for Inactive)
REMARK    1  A    between atoms: C_12  and  N_13
REMARK    2  A    between atoms: N_13  and  C_14
REMARK    3  A    between atoms: C_17  and  C_18
REMARK    4  A    between atoms: C_18  and  N_19
REMARK                            x       y       z     vdW  Elec       q    Type
REMARK                         _______ _______ _______ _____ _____    ______ ____
ROOT
ATOM      1 BR   UNL     1       1.705  -3.515  25.607  0.00  0.00    -0.050 Br
ATOM      2  C   UNL     1       3.247  -4.138  24.708  0.00  0.00    +0.018 A 
ATOM      3  C   UNL     1       4.488  -3.548  24.972  0.00  0.00    +0.024 A 
ATOM      4  C   UNL     1       5.651  -3.987  24.312  0.00  0.00    +0.001 A 
ATOM      5  C   UNL     1       5.522  -5.042  23.391  0.00  0.00    +0.045 A 
ATOM      6  C   UNL     1       6.707  -5.565  22.676  0.00  0.00    +0.251 C 
ATOM      7  N   UNL     1       7.922  -5.013  22.986  0.00  0.00    -0.248 N 
ATOM      8  H   UNL     1       8.725  -5.445  22.551  0.00  0.00    +0.158 HD
ATOM      9  C   UNL     1       8.194  -4.101  23.966  0.00  0.00    +0.252 C 
ATOM     10  O   UNL     1       9.351  -3.871  24.309  0.00  0.00    -0.270 OA
ATOM     11  O   UNL     1       6.612  -6.475  21.860  0.00  0.00    -0.270 OA
ATOM     12  C   UNL     1       4.274  -5.633  23.135  0.00  0.00    +0.015 A 
ATOM     13  C   UNL     1       6.997  -3.420  24.562  0.00  0.00    +0.059 C 
ATOM     14  C   UNL     1       7.218  -2.277  25.245  0.00  0.00    +0.085 C 
ATOM     15  C   UNL     1       3.135  -5.180  23.796  0.00  0.00    +0.016 A 
ENDROOT
BRANCH  14  16
ATOM     16  N   UNL     1       8.421  -1.654  25.480  0.00  0.00    -0.320 N 
ATOM     17  H   UNL     1       8.991  -2.078  26.218  0.00  0.00    +0.152 HD
BRANCH  16  18
ATOM     18  C   UNL     1       8.955  -0.488  24.912  0.00  0.00    +0.031 A 
ATOM     19  C   UNL     1       8.163   0.669  24.914  0.00  0.00    +0.023 A 
ATOM     20  C   UNL     1       8.652   1.885  24.429  0.00  0.00    +0.007 A 
ATOM     21  C   UNL     1       9.952   1.975  23.923  0.00  0.00    -0.033 A 
ATOM     22  C   UNL     1      10.753   0.826  23.926  0.00  0.00    +0.007 A 
ATOM     23  C   UNL     1      10.263  -0.386  24.428  0.00  0.00    +0.023 A 
BRANCH  21  24
ATOM     24  C   UNL     1      10.479   3.291  23.395  0.00  0.00    +0.119 C 
BRANCH  24  25
ATOM     25  N   UNL     1       9.871   4.464  24.029  0.00  0.00    -0.298 NA
ATOM     26  C   UNL     1       8.697   4.934  23.284  0.00  0.00    +0.085 C 
ATOM     27  C   UNL     1       8.583   6.421  23.606  0.00  0.00    +0.017 C 
ATOM     28  C   UNL     1       9.818   6.745  24.432  0.00  0.00    +0.017 C 
ATOM     29  C   UNL     1      10.776   5.613  24.110  0.00  0.00    +0.085 C 
ENDBRANCH  24  25
ENDBRANCH  21  24
ENDBRANCH  16  18
ENDBRANCH  14  16
TORSDOF 4
ENDMDL
MODEL 8
REMARK VINA RESULT:      -7.0      3.720      9.222
REMARK  Name = 
REMARK  4 active torsions:
REMARK  status: ('A' for Active; 'I' for Inactive)
REMARK    1  A    between atoms: C_12  and  N_13
REMARK    2  A    between atoms: N_13  and  C_14
REMARK    3  A    between atoms: C_17  and  C_18
REMARK    4  A    between atoms: C_18  and  N_19
REMARK                            x       y       z     vdW  Elec       q    Type
REMARK                         _______ _______ _______ _____ _____    ______ ____
ROOT
ATOM      1 BR   UNL     1       5.728   4.511  27.665  0.00  0.00    -0.050 Br
ATOM      2  C   UNL     1       7.169   4.581  26.443  0.00  0.00    +0.018 A 
ATOM      3  C   UNL     1       7.548   3.424  25.752  0.00  0.00    +0.024 A 
ATOM      4  C   UNL     1       8.621   3.446  24.841  0.00  0.00    +0.001 A 
ATOM      5  C   UNL     1       9.288   4.668  24.645  0.00  0.00    +0.045 A 
ATOM      6  C   UNL     1      10.412   4.767  23.688  0.00  0.00    +0.251 C 
ATOM      7  N   UNL     1      10.735   3.638  22.981  0.00  0.00    -0.248 N 
ATOM      8  H   UNL     1      11.446   3.753  22.272  0.00  0.00    +0.158 HD
ATOM      9  C   UNL     1      10.068   2.446  22.968  0.00  0.00    +0.252 C 
ATOM     10  O   UNL     1      10.307   1.600  22.111  0.00  0.00    -0.270 OA
ATOM     11  O   UNL     1      11.014   5.820  23.514  0.00  0.00    -0.270 OA
ATOM     12  C   UNL     1       8.899   5.826  25.338  0.00  0.00    +0.015 A 
ATOM     13  C   UNL     1       9.057   2.264  24.062  0.00  0.00    +0.059 C 
ATOM     14  C   UNL     1       8.651   1.001  24.317  0.00  0.00    +0.085 C 
ATOM     15  C   UNL     1       7.837   5.782  26.238  0.00  0.00    +0.016 A 
ENDROOT
BRANCH  14  16
ATOM     16  N   UNL     1       9.041  -0.154  23.683  0.00  0.00    -0.320 N 
ATOM     17  H   UNL     1       9.841  -0.053  23.052  0.00  0.00    +0.152 HD
BRANCH  16  18
ATOM     18  C   UNL     1       8.467  -1.434  23.716  0.00  0.00    +0.031 A 
ATOM     19  C   UNL     1       7.137  -1.572  23.294  0.00  0.00    +0.023 A 
ATOM     20  C   UNL     1       6.520  -2.824  23.232  0.00  0.00    +0.007 A 
ATOM     21  C   UNL     1       7.221  -3.978  23.597  0.00  0.00    -0.033 A 
ATOM     22  C   UNL     1       8.553  -3.850  24.011  0.00  0.00    +0.007 A 
ATOM     23  C   UNL     1       9.170  -2.594  24.056  0.00  0.00    +0.023 A 
BRANCH  21  24
ATOM     24  C   UNL     1       6.551  -5.333  23.534  0.00  0.00    +0.119 C 
BRANCH  24  25
ATOM     25  N   UNL     1       5.519  -5.527  24.556  0.00  0.00    -0.298 NA
ATOM     26  C   UNL     1       6.105  -5.737  25.884  0.00  0.00    +0.085 C 
ATOM     27  C   UNL     1       5.068  -6.546  26.659  0.00  0.00    +0.017 C 
ATOM     28  C   UNL     1       3.981  -6.872  25.648  0.00  0.00    +0.017 C 
ATOM     29  C   UNL     1       4.668  -6.694  24.307  0.00  0.00    +0.085 C 
ENDBRANCH  24  25
ENDBRANCH  21  24
ENDBRANCH  16  18
ENDBRANCH  14  16
TORSDOF 4
ENDMDL
MODEL 9
REMARK VINA RESULT:      -6.8      1.990      2.479
REMARK  Name = 
REMARK  4 active torsions:
REMARK  status: ('A' for Active; 'I' for Inactive)
REMARK    1  A    between atoms: C_12  and  N_13
REMARK    2  A    between atoms: N_13  and  C_14
REMARK    3  A    between atoms: C_17  and  C_18
REMARK    4  A    between atoms: C_18  and  N_19
REMARK                            x       y       z     vdW  Elec       q    Type
REMARK                         _______ _______ _______ _____ _____    ______ ____
ROOT
ATOM      1 BR   UNL     1       5.993  -6.114  20.467  0.00  0.00    -0.050 Br
ATOM      2  C   UNL     1       6.093  -5.681  22.305  0.00  0.00    +0.018 A 
ATOM      3  C   UNL     1       7.020  -4.728  22.742  0.00  0.00    +0.024 A 
ATOM      4  C   UNL     1       7.121  -4.392  24.105  0.00  0.00    +0.001 A 
ATOM      5  C   UNL     1       6.255  -5.038  25.004  0.00  0.00    +0.045 A 
ATOM      6  C   UNL     1       6.294  -4.718  26.449  0.00  0.00    +0.251 C 
ATOM      7  N   UNL     1       7.170  -3.744  26.852  0.00  0.00    -0.248 N 
ATOM      8  H   UNL     1       7.117  -3.483  27.827  0.00  0.00    +0.158 HD
ATOM      9  C   UNL     1       7.944  -2.944  26.061  0.00  0.00    +0.252 C 
ATOM     10  O   UNL     1       8.496  -1.948  26.522  0.00  0.00    -0.270 OA
ATOM     11  O   UNL     1       5.556  -5.280  27.249  0.00  0.00    -0.270 OA
ATOM     12  C   UNL     1       5.324  -5.989  24.558  0.00  0.00    +0.015 A 
ATOM     13  C   UNL     1       8.065  -3.377  24.629  0.00  0.00    +0.059 C 
ATOM     14  C   UNL     1       9.085  -2.856  23.915  0.00  0.00    +0.085 C 
ATOM     15  C   UNL     1       5.243  -6.310  23.205  0.00  0.00    +0.016 A 
ENDROOT
BRANCH  14  16
ATOM     16  N   UNL     1      10.034  -1.953  24.334  0.00  0.00    -0.320 N 
ATOM     17  H   UNL     1      10.681  -2.304  25.046  0.00  0.00    +0.152 HD
BRANCH  16  18
ATOM     18  C   UNL     1      10.206  -0.605  23.986  0.00  0.00    +0.031 A 
ATOM     19  C   UNL     1       9.984  -0.234  22.653  0.00  0.00    +0.023 A 
ATOM     20  C   UNL     1      10.068   1.100  22.246  0.00  0.00    +0.007 A 
ATOM     21  C   UNL     1      10.382   2.103  23.167  0.00  0.00    -0.033 A 
ATOM     22  C   UNL     1      10.597   1.743  24.503  0.00  0.00    +0.007 A 
ATOM     23  C   UNL     1      10.496   0.405  24.908  0.00  0.00    +0.023 A 
BRANCH  21  24
ATOM     24  C   UNL     1      10.477   3.548  22.725  0.00  0.00    +0.119 C 
BRANCH  24  25
ATOM     25  N   UNL     1      10.089   4.507  23.763  0.00  0.00    -0.298 NA
ATOM     26  C   UNL     1       8.675   4.883  23.650  0.00  0.00    +0.085 C 
ATOM     27  C   UNL     1       8.577   6.272  24.275  0.00  0.00    +0.017 C 
ATOM     28  C   UNL     1      10.010   6.669  24.590  0.00  0.00    +0.017 C 
ATOM     29  C   UNL     1      10.841   5.762  23.701  0.00  0.00    +0.085 C 
ENDBRANCH  24  25
ENDBRANCH  21  24
ENDBRANCH  16  18
ENDBRANCH  14  16
TORSDOF 4
ENDMDL
