MODEL 1
REMARK VINA RESULT:      -6.2      0.000      0.000
REMARK  Name = 
REMARK  3 active torsions:
REMARK  status: ('A' for Active; 'I' for Inactive)
REMARK    1  A    between atoms: C_1  and  C_2
REMARK    2  A    between atoms: C_2  and  C_3
REMARK    3  A    between atoms: C_8  and  O_9
REMARK                            x       y       z     vdW  Elec       q    Type
REMARK                         _______ _______ _______ _____ _____    ______ ____
ROOT
ATOM      1  C   UNL     1       6.016  -5.649  20.783  0.00  0.00    +0.041 C 
ATOM      2  C   UNL     1       6.129  -4.738  22.006  0.00  0.00    +0.103 C 
ATOM      3  C   UNL     1       5.089  -5.147  23.059  0.00  0.00    +0.211 C 
ATOM      4  N   UNL     1       5.300  -5.477  24.290  0.00  0.00    -0.207 NA
ATOM      5  C   UNL     1       6.623  -5.446  24.704  0.00  0.00    +0.171 A 
ATOM      6  C   UNL     1       6.927  -5.740  26.138  0.00  0.00    +0.280 A 
ATOM      7  N   UNL     1       8.243  -5.682  26.490  0.00  0.00    -0.293 N 
ATOM      8  H   UNL     1       8.448  -5.844  27.461  0.00  0.00    +0.172 HD
ATOM      9  C   UNL     1       9.218  -5.338  25.614  0.00  0.00    +0.195 A 
ATOM     10  N   UNL     1       8.983  -5.084  24.370  0.00  0.00    -0.199 NA
ATOM     11  N   UNL     1      10.479  -5.276  26.106  0.00  0.00    -0.329 N 
ATOM     12  H   UNL     1      11.180  -5.253  25.372  0.00  0.00    +0.145 HD
ATOM     13  H   UNL     1      10.716  -5.896  26.867  0.00  0.00    +0.145 HD
ATOM     14  O   UNL     1       6.067  -6.016  26.970  0.00  0.00    -0.265 OA
ATOM     15  C   UNL     1       7.690  -5.154  23.914  0.00  0.00    +0.154 A 
ATOM     16  N   UNL     1       7.470  -4.904  22.569  0.00  0.00    -0.314 N 
ATOM     17  H   UNL     1       8.263  -4.477  22.104  0.00  0.00    +0.149 HD
ATOM     18  C   UNL     1       5.921  -3.271  21.627  0.00  0.00    +0.041 C 
ENDROOT
BRANCH   3  19
ATOM     19  O   UNL     1       3.811  -5.140  22.648  0.00  0.00    -0.494 OA
ATOM     20  H   UNL     1       3.479  -4.235  22.785  0.00  0.00    +0.293 HD
ENDBRANCH   3  19
TORSDOF 1
ENDMDL
MODEL 2
REMARK VINA RESULT:      -6.1      3.358      3.879
REMARK  Name = 
REMARK  3 active torsions:
REMARK  status: ('A' for Active; 'I' for Inactive)
REMARK    1  A    between atoms: C_1  and  C_2
REMARK    2  A    between atoms: C_2  and  C_3
REMARK    3  A    between atoms: C_8  and  O_9
REMARK                            x       y       z     vdW  Elec       q    Type
REMARK                         _______ _______ _______ _____ _____    ______ ____
ROOT
ATOM      1  C   UNL     1       9.330  -0.263  21.522  0.00  0.00    +0.041 C 
ATOM      2  C   UNL     1       8.960  -0.574  22.973  0.00  0.00    +0.103 C 
ATOM      3  C   UNL     1       7.446  -0.804  23.086  0.00  0.00    +0.211 C 
ATOM      4  N   UNL     1       6.839  -1.843  23.556  0.00  0.00    -0.207 NA
ATOM      5  C   UNL     1       7.659  -2.862  24.020  0.00  0.00    +0.171 A 
ATOM      6  C   UNL     1       7.022  -4.058  24.649  0.00  0.00    +0.280 A 
ATOM      7  N   UNL     1       7.877  -5.020  25.097  0.00  0.00    -0.293 N 
ATOM      8  H   UNL     1       7.453  -5.811  25.553  0.00  0.00    +0.172 HD
ATOM      9  C   UNL     1       9.224  -4.892  25.022  0.00  0.00    +0.195 A 
ATOM     10  N   UNL     1       9.800  -3.871  24.480  0.00  0.00    -0.199 NA
ATOM     11  N   UNL     1       9.958  -5.903  25.545  0.00  0.00    -0.329 N 
ATOM     12  H   UNL     1      10.929  -5.869  25.251  0.00  0.00    +0.145 HD
ATOM     13  H   UNL     1       9.564  -6.832  25.516  0.00  0.00    +0.145 HD
ATOM     14  O   UNL     1       5.807  -4.193  24.771  0.00  0.00    -0.265 OA
ATOM     15  C   UNL     1       9.018  -2.867  23.965  0.00  0.00    +0.154 A 
ATOM     16  N   UNL     1       9.660  -1.797  23.365  0.00  0.00    -0.314 N 
ATOM     17  H   UNL     1      10.654  -1.761  23.563  0.00  0.00    +0.149 HD
ATOM     18  C   UNL     1       9.374   0.564  23.906  0.00  0.00    +0.041 C 
ENDROOT
BRANCH   3  19
ATOM     19  O   UNL     1       6.670   0.205  22.663  0.00  0.00    -0.494 OA
ATOM     20  H   UNL     1       6.890   0.352  21.726  0.00  0.00    +0.293 HD
ENDBRANCH   3  19
TORSDOF 1
ENDMDL
MODEL 3
REMARK VINA RESULT:      -5.8      3.568      4.573
REMARK  Name = 
REMARK  3 active torsions:
REMARK  status: ('A' for Active; 'I' for Inactive)
REMARK    1  A    between atoms: C_1  and  C_2
REMARK    2  A    between atoms: C_2  and  C_3
REMARK    3  A    between atoms: C_8  and  O_9
REMARK                            x       y       z     vdW  Elec       q    Type
REMARK                         _______ _______ _______ _____ _____    ______ ____
ROOT
ATOM      1  C   UNL     1       9.629   0.129  24.881  0.00  0.00    +0.041 C 
ATOM      2  C   UNL     1       8.828  -1.062  24.352  0.00  0.00    +0.103 C 
ATOM      3  C   UNL     1       9.781  -2.097  23.737  0.00  0.00    +0.211 C 
ATOM      4  N   UNL     1       9.897  -3.345  24.049  0.00  0.00    -0.207 NA
ATOM      5  C   UNL     1       9.051  -3.798  25.051  0.00  0.00    +0.171 A 
ATOM      6  C   UNL     1       9.079  -5.250  25.404  0.00  0.00    +0.280 A 
ATOM      7  N   UNL     1       8.217  -5.638  26.387  0.00  0.00    -0.293 N 
ATOM      8  H   UNL     1       8.208  -6.621  26.603  0.00  0.00    +0.172 HD
ATOM      9  C   UNL     1       7.354  -4.780  26.982  0.00  0.00    +0.195 A 
ATOM     10  N   UNL     1       7.313  -3.521  26.699  0.00  0.00    -0.199 NA
ATOM     11  N   UNL     1       6.522  -5.307  27.913  0.00  0.00    -0.329 N 
ATOM     12  H   UNL     1       6.080  -4.594  28.484  0.00  0.00    +0.145 HD
ATOM     13  H   UNL     1       6.856  -6.097  28.446  0.00  0.00    +0.145 HD
ATOM     14  O   UNL     1       9.818  -6.066  24.860  0.00  0.00    -0.265 OA
ATOM     15  C   UNL     1       8.172  -3.029  25.747  0.00  0.00    +0.154 A 
ATOM     16  N   UNL     1       8.125  -1.671  25.482  0.00  0.00    -0.314 N 
ATOM     17  H   UNL     1       7.305  -1.214  25.865  0.00  0.00    +0.149 HD
ATOM     18  C   UNL     1       7.807  -0.622  23.303  0.00  0.00    +0.041 C 
ENDROOT
BRANCH   3  19
ATOM     19  O   UNL     1      10.568  -1.648  22.748  0.00  0.00    -0.494 OA
ATOM     20  H   UNL     1      11.267  -2.315  22.623  0.00  0.00    +0.293 HD
ENDBRANCH   3  19
TORSDOF 1
ENDMDL
MODEL 4
REMARK VINA RESULT:      -5.7      2.086      3.116
REMARK  Name = 
REMARK  3 active torsions:
REMARK  status: ('A' for Active; 'I' for Inactive)
REMARK    1  A    between atoms: C_1  and  C_2
REMARK    2  A    between atoms: C_2  and  C_3
REMARK    3  A    between atoms: C_8  and  O_9
REMARK                            x       y       z     vdW  Elec       q    Type
REMARK                         _______ _______ _______ _____ _____    ______ ____
ROOT
ATOM      1  C   UNL     1       5.495  -3.308  21.949  0.00  0.00    +0.041 C 
ATOM      2  C   UNL     1       6.338  -4.444  22.529  0.00  0.00    +0.103 C 
ATOM      3  C   UNL     1       7.608  -3.872  23.176  0.00  0.00    +0.211 C 
ATOM      4  N   UNL     1       8.013  -4.031  24.392  0.00  0.00    -0.207 NA
ATOM      5  C   UNL     1       7.207  -4.821  25.198  0.00  0.00    +0.171 A 
ATOM      6  C   UNL     1       7.661  -5.111  26.593  0.00  0.00    +0.280 A 
ATOM      7  N   UNL     1       6.835  -5.903  27.333  0.00  0.00    -0.293 N 
ATOM      8  H   UNL     1       7.153  -6.129  28.260  0.00  0.00    +0.172 HD
ATOM      9  C   UNL     1       5.694  -6.436  26.834  0.00  0.00    +0.195 A 
ATOM     10  N   UNL     1       5.277  -6.199  25.635  0.00  0.00    -0.199 NA
ATOM     11  N   UNL     1       4.988  -7.242  27.664  0.00  0.00    -0.329 N 
ATOM     12  H   UNL     1       4.044  -7.411  27.329  0.00  0.00    +0.145 HD
ATOM     13  H   UNL     1       5.032  -7.049  28.654  0.00  0.00    +0.145 HD
ATOM     14  O   UNL     1       8.708  -4.679  27.068  0.00  0.00    -0.265 OA
ATOM     15  C   UNL     1       6.025  -5.380  24.826  0.00  0.00    +0.154 A 
ATOM     16  N   UNL     1       5.542  -5.119  23.554  0.00  0.00    -0.314 N 
ATOM     17  H   UNL     1       4.791  -5.740  23.274  0.00  0.00    +0.149 HD
ATOM     18  C   UNL     1       6.728  -5.453  21.449  0.00  0.00    +0.041 C 
ENDROOT
BRANCH   3  19
ATOM     19  O   UNL     1       8.391  -3.137  22.372  0.00  0.00    -0.494 OA
ATOM     20  H   UNL     1       8.622  -2.331  22.868  0.00  0.00    +0.293 HD
ENDBRANCH   3  19
TORSDOF 1
ENDMDL
MODEL 5
REMARK VINA RESULT:      -5.7      1.680      4.418
REMARK  Name = 
REMARK  3 active torsions:
REMARK  status: ('A' for Active; 'I' for Inactive)
REMARK    1  A    between atoms: C_1  and  C_2
REMARK    2  A    between atoms: C_2  and  C_3
REMARK    3  A    between atoms: C_8  and  O_9
REMARK                            x       y       z     vdW  Elec       q    Type
REMARK                         _______ _______ _______ _____ _____    ______ ____
ROOT
ATOM      1  C   UNL     1       8.380  -2.871  26.225  0.00  0.00    +0.041 C 
ATOM      2  C   UNL     1       8.385  -4.297  25.671  0.00  0.00    +0.103 C 
ATOM      3  C   UNL     1       7.304  -5.132  26.372  0.00  0.00    +0.211 C 
ATOM      4  N   UNL     1       6.333  -5.785  25.824  0.00  0.00    -0.207 NA
ATOM      5  C   UNL     1       6.274  -5.727  24.439  0.00  0.00    +0.171 A 
ATOM      6  C   UNL     1       5.222  -6.526  23.739  0.00  0.00    +0.280 A 
ATOM      7  N   UNL     1       5.220  -6.441  22.378  0.00  0.00    -0.293 N 
ATOM      8  H   UNL     1       4.536  -7.004  21.901  0.00  0.00    +0.172 HD
ATOM      9  C   UNL     1       6.136  -5.716  21.691  0.00  0.00    +0.195 A 
ATOM     10  N   UNL     1       7.051  -5.014  22.271  0.00  0.00    -0.199 NA
ATOM     11  N   UNL     1       6.046  -5.753  20.339  0.00  0.00    -0.329 N 
ATOM     12  H   UNL     1       6.589  -5.019  19.895  0.00  0.00    +0.145 HD
ATOM     13  H   UNL     1       5.129  -5.874  19.934  0.00  0.00    +0.145 HD
ATOM     14  O   UNL     1       4.400  -7.226  24.324  0.00  0.00    -0.265 OA
ATOM     15  C   UNL     1       7.108  -5.008  23.643  0.00  0.00    +0.154 A 
ATOM     16  N   UNL     1       8.083  -4.226  24.241  0.00  0.00    -0.314 N 
ATOM     17  H   UNL     1       8.796  -3.908  23.595  0.00  0.00    +0.149 HD
ATOM     18  C   UNL     1       9.748  -4.962  25.864  0.00  0.00    +0.041 C 
ENDROOT
BRANCH   3  19
ATOM     19  O   UNL     1       7.398  -5.202  27.708  0.00  0.00    -0.494 OA
ATOM     20  H   UNL     1       6.980  -4.395  28.060  0.00  0.00    +0.293 HD
ENDBRANCH   3  19
TORSDOF 1
ENDMDL
MODEL 6
REMARK VINA RESULT:      -5.7      4.750      6.002
REMARK  Name = 
REMARK  3 active torsions:
REMARK  status: ('A' for Active; 'I' for Inactive)
REMARK    1  A    between atoms: C_1  and  C_2
REMARK    2  A    between atoms: C_2  and  C_3
REMARK    3  A    between atoms: C_8  and  O_9
REMARK                            x       y       z     vdW  Elec       q    Type
REMARK                         _______ _______ _______ _____ _____    ______ ____
ROOT
ATOM      1  C   UNL     1       8.746   2.115  24.200  0.00  0.00    +0.041 C 
ATOM      2  C   UNL     1       9.200   0.966  23.299  0.00  0.00    +0.103 C 
ATOM      3  C   UNL     1      10.226   0.097  24.041  0.00  0.00    +0.211 C 
ATOM      4  N   UNL     1      10.167  -1.173  24.268  0.00  0.00    -0.207 NA
ATOM      5  C   UNL     1       9.047  -1.823  23.771  0.00  0.00    +0.171 A 
ATOM      6  C   UNL     1       8.956  -3.306  23.930  0.00  0.00    +0.280 A 
ATOM      7  N   UNL     1       7.840  -3.892  23.411  0.00  0.00    -0.293 N 
ATOM      8  H   UNL     1       7.791  -4.894  23.485  0.00  0.00    +0.172 HD
ATOM      9  C   UNL     1       6.887  -3.189  22.752  0.00  0.00    +0.195 A 
ATOM     10  N   UNL     1       6.938  -1.907  22.605  0.00  0.00    -0.199 NA
ATOM     11  N   UNL     1       5.849  -3.901  22.248  0.00  0.00    -0.329 N 
ATOM     12  H   UNL     1       5.066  -3.311  21.986  0.00  0.00    +0.145 HD
ATOM     13  H   UNL     1       5.573  -4.738  22.741  0.00  0.00    +0.145 HD
ATOM     14  O   UNL     1       9.818  -3.982  24.485  0.00  0.00    -0.265 OA
ATOM     15  C   UNL     1       8.009  -1.225  23.128  0.00  0.00    +0.154 A 
ATOM     16  N   UNL     1       8.027   0.152  22.980  0.00  0.00    -0.314 N 
ATOM     17  H   UNL     1       7.351   0.493  22.305  0.00  0.00    +0.149 HD
ATOM     18  C   UNL     1       9.818   1.488  22.001  0.00  0.00    +0.041 C 
ENDROOT
BRANCH   3  19
ATOM     19  O   UNL     1      11.318   0.738  24.485  0.00  0.00    -0.494 OA
ATOM     20  H   UNL     1      12.082   0.177  24.260  0.00  0.00    +0.293 HD
ENDBRANCH   3  19
TORSDOF 1
ENDMDL
MODEL 7
REMARK VINA RESULT:      -5.6      4.444      5.615
REMARK  Name = 
REMARK  3 active torsions:
REMARK  status: ('A' for Active; 'I' for Inactive)
REMARK    1  A    between atoms: C_1  and  C_2
REMARK    2  A    between atoms: C_2  and  C_3
REMARK    3  A    between atoms: C_8  and  O_9
REMARK                            x       y       z     vdW  Elec       q    Type
REMARK                         _______ _______ _______ _____ _____    ______ ____
ROOT
ATOM      1  C   UNL     1       4.979  -3.282  23.537  0.00  0.00    +0.041 C 
ATOM      2  C   UNL     1       6.147  -2.509  24.152  0.00  0.00    +0.103 C 
ATOM      3  C   UNL     1       7.439  -3.329  24.022  0.00  0.00    +0.211 C 
ATOM      4  N   UNL     1       8.548  -2.971  23.465  0.00  0.00    -0.207 NA
ATOM      5  C   UNL     1       8.568  -1.690  22.932  0.00  0.00    +0.171 A 
ATOM      6  C   UNL     1       9.846  -1.185  22.343  0.00  0.00    +0.280 A 
ATOM      7  N   UNL     1       9.810   0.084  21.847  0.00  0.00    -0.293 N 
ATOM      8  H   UNL     1      10.677   0.441  21.482  0.00  0.00    +0.172 HD
ATOM      9  C   UNL     1       8.704   0.864  21.917  0.00  0.00    +0.195 A 
ATOM     10  N   UNL     1       7.587   0.451  22.415  0.00  0.00    -0.199 NA
ATOM     11  N   UNL     1       8.818   2.122  21.424  0.00  0.00    -0.329 N 
ATOM     12  H   UNL     1       7.916   2.565  21.284  0.00  0.00    +0.145 HD
ATOM     13  H   UNL     1       9.460   2.268  20.659  0.00  0.00    +0.145 HD
ATOM     14  O   UNL     1      10.880  -1.846  22.298  0.00  0.00    -0.265 OA
ATOM     15  C   UNL     1       7.516  -0.829  22.907  0.00  0.00    +0.154 A 
ATOM     16  N   UNL     1       6.299  -1.256  23.412  0.00  0.00    -0.314 N 
ATOM     17  H   UNL     1       5.641  -0.502  23.567  0.00  0.00    +0.149 HD
ATOM     18  C   UNL     1       5.889  -2.194  25.626  0.00  0.00    +0.041 C 
ENDROOT
BRANCH   3  19
ATOM     19  O   UNL     1       7.410  -4.552  24.572  0.00  0.00    -0.494 OA
ATOM     20  H   UNL     1       6.477  -4.832  24.580  0.00  0.00    +0.293 HD
ENDBRANCH   3  19
TORSDOF 1
ENDMDL
MODEL 8
REMARK VINA RESULT:      -5.6      3.711      5.029
REMARK  Name = 
REMARK  3 active torsions:
REMARK  status: ('A' for Active; 'I' for Inactive)
REMARK    1  A    between atoms: C_1  and  C_2
REMARK    2  A    between atoms: C_2  and  C_3
REMARK    3  A    between atoms: C_8  and  O_9
REMARK                            x       y       z     vdW  Elec       q    Type
REMARK                         _______ _______ _______ _____ _____    ______ ____
ROOT
ATOM      1  C   UNL     1       7.278  -5.865  22.544  0.00  0.00    +0.041 C 
ATOM      2  C   UNL     1       7.290  -4.820  23.660  0.00  0.00    +0.103 C 
ATOM      3  C   UNL     1       8.735  -4.543  24.099  0.00  0.00    +0.211 C 
ATOM      4  N   UNL     1       9.346  -3.405  24.128  0.00  0.00    -0.207 NA
ATOM      5  C   UNL     1       8.598  -2.309  23.723  0.00  0.00    +0.171 A 
ATOM      6  C   UNL     1       9.220  -0.952  23.809  0.00  0.00    +0.280 A 
ATOM      7  N   UNL     1       8.434   0.087  23.411  0.00  0.00    -0.293 N 
ATOM      8  H   UNL     1       8.836   1.005  23.500  0.00  0.00    +0.172 HD
ATOM      9  C   UNL     1       7.153  -0.081  23.003  0.00  0.00    +0.195 A 
ATOM     10  N   UNL     1       6.593  -1.241  22.915  0.00  0.00    -0.199 NA
ATOM     11  N   UNL     1       6.469   1.043  22.676  0.00  0.00    -0.329 N 
ATOM     12  H   UNL     1       5.619   0.842  22.158  0.00  0.00    +0.145 HD
ATOM     13  H   UNL     1       6.995   1.817  22.297  0.00  0.00    +0.145 HD
ATOM     14  O   UNL     1      10.364  -0.755  24.212  0.00  0.00    -0.265 OA
ATOM     15  C   UNL     1       7.321  -2.353  23.259  0.00  0.00    +0.154 A 
ATOM     16  N   UNL     1       6.706  -3.588  23.130  0.00  0.00    -0.314 N 
ATOM     17  H   UNL     1       5.702  -3.526  23.002  0.00  0.00    +0.149 HD
ATOM     18  C   UNL     1       6.472  -5.287  24.865  0.00  0.00    +0.041 C 
ENDROOT
BRANCH   3  19
ATOM     19  O   UNL     1       9.432  -5.611  24.517  0.00  0.00    -0.494 OA
ATOM     20  H   UNL     1       9.840  -5.362  25.365  0.00  0.00    +0.293 HD
ENDBRANCH   3  19
TORSDOF 1
ENDMDL
MODEL 9
REMARK VINA RESULT:      -5.6      2.288      4.810
REMARK  Name = 
REMARK  3 active torsions:
REMARK  status: ('A' for Active; 'I' for Inactive)
REMARK    1  A    between atoms: C_1  and  C_2
REMARK    2  A    between atoms: C_2  and  C_3
REMARK    3  A    between atoms: C_8  and  O_9
REMARK                            x       y       z     vdW  Elec       q    Type
REMARK                         _______ _______ _______ _____ _____    ______ ____
ROOT
ATOM      1  C   UNL     1       9.224  -4.576  26.492  0.00  0.00    +0.041 C 
ATOM      2  C   UNL     1       8.134  -4.006  25.583  0.00  0.00    +0.103 C 
ATOM      3  C   UNL     1       8.638  -3.960  24.133  0.00  0.00    +0.211 C 
ATOM      4  N   UNL     1       8.097  -4.500  23.092  0.00  0.00    -0.207 NA
ATOM      5  C   UNL     1       6.916  -5.193  23.318  0.00  0.00    +0.171 A 
ATOM      6  C   UNL     1       6.197  -5.775  22.144  0.00  0.00    +0.280 A 
ATOM      7  N   UNL     1       5.037  -6.433  22.425  0.00  0.00    -0.293 N 
ATOM      8  H   UNL     1       4.532  -6.796  21.634  0.00  0.00    +0.172 HD
ATOM      9  C   UNL     1       4.535  -6.524  23.680  0.00  0.00    +0.195 A 
ATOM     10  N   UNL     1       5.139  -6.035  24.712  0.00  0.00    -0.199 NA
ATOM     11  N   UNL     1       3.351  -7.170  23.814  0.00  0.00    -0.329 N 
ATOM     12  H   UNL     1       3.150  -7.414  24.778  0.00  0.00    +0.145 HD
ATOM     13  H   UNL     1       3.147  -7.913  23.161  0.00  0.00    +0.145 HD
ATOM     14  O   UNL     1       6.599  -5.679  20.987  0.00  0.00    -0.265 OA
ATOM     15  C   UNL     1       6.335  -5.386  24.532  0.00  0.00    +0.154 A 
ATOM     16  N   UNL     1       6.974  -4.895  25.658  0.00  0.00    -0.314 N 
ATOM     17  H   UNL     1       6.382  -4.874  26.480  0.00  0.00    +0.149 HD
ATOM     18  C   UNL     1       7.722  -2.602  26.024  0.00  0.00    +0.041 C 
ENDROOT
BRANCH   3  19
ATOM     19  O   UNL     1       9.763  -3.258  23.930  0.00  0.00    -0.494 OA
ATOM     20  H   UNL     1      10.230  -3.686  23.190  0.00  0.00    +0.293 HD
ENDBRANCH   3  19
TORSDOF 1
ENDMDL
