MODEL 1
REMARK VINA RESULT:      -4.2      0.000      0.000
REMARK  Name = 
REMARK  7 active torsions:
REMARK  status: ('A' for Active; 'I' for Inactive)
REMARK    1  A    between atoms: C_1  and  S_2
REMARK    2  A    between atoms: S_2  and  C_4
REMARK    3  A    between atoms: C_4  and  C_5
REMARK    4  A    between atoms: C_5  and  CA_6
REMARK    5  A    between atoms: CA_6  and  N_8
REMARK    6  A    between atoms: CA_6  and  C_9
REMARK    7  A    between atoms: C_9  and  O_10
REMARK                            x       y       z     vdW  Elec       q    Type
REMARK                         _______ _______ _______ _____ _____    ______ ____
ROOT
ATOM      1  CA  UNL     1       8.808  -5.505  25.271  0.00  0.00    +0.161 C 
ENDROOT
BRANCH   1   2
ATOM      2  N   UNL     1      10.257  -5.222  25.037  0.00  0.00    -0.318 NA
ATOM      3  H1  UNL     1      10.723  -6.125  24.886  0.00  0.00    +0.119 HD
ATOM      4  H2  UNL     1      10.353  -4.755  24.130  0.00  0.00    +0.119 HD
ENDBRANCH   1   2
BRANCH   1   5
ATOM      5  C   UNL     1       8.417  -4.900  26.632  0.00  0.00    +0.322 C 
ATOM      6  OXT UNL     1       8.545  -3.729  26.949  0.00  0.00    -0.249 OA
BRANCH   5   7
ATOM      7  O   UNL     1       7.928  -5.853  27.470  0.00  0.00    -0.480 OA
ATOM      8  H   UNL     1       7.951  -5.462  28.379  0.00  0.00    +0.295 HD
ENDBRANCH   5   7
ENDBRANCH   1   5
BRANCH   1   9
ATOM      9  C   UNL     1       7.925  -4.872  24.187  0.00  0.00    +0.043 C 
BRANCH   9  10
ATOM     10  C   UNL     1       6.421  -5.073  24.356  0.00  0.00    +0.105 C 
BRANCH  10  12
ATOM     11  C   UNL     1       7.161  -5.873  21.882  0.00  0.00    +0.121 C 
ATOM     12  S   UNL     1       5.630  -5.589  22.800  0.00  0.00    +0.019 S 
ATOM     13  O   UNL     1       4.964  -4.381  22.212  0.00  0.00    -0.257 OA
ENDBRANCH  10  12
ENDBRANCH   9  10
ENDBRANCH   1   9
TORSDOF 6
ENDMDL
MODEL 2
REMARK VINA RESULT:      -4.1      2.083      2.205
REMARK  Name = 
REMARK  7 active torsions:
REMARK  status: ('A' for Active; 'I' for Inactive)
REMARK    1  A    between atoms: C_1  and  S_2
REMARK    2  A    between atoms: S_2  and  C_4
REMARK    3  A    between atoms: C_4  and  C_5
REMARK    4  A    between atoms: C_5  and  CA_6
REMARK    5  A    between atoms: CA_6  and  N_8
REMARK    6  A    between atoms: CA_6  and  C_9
REMARK    7  A    between atoms: C_9  and  O_10
REMARK                            x       y       z     vdW  Elec       q    Type
REMARK                         _______ _______ _______ _____ _____    ______ ____
ROOT
ATOM      1  CA  UNL     1       8.064  -4.755  26.011  0.00  0.00    +0.161 C 
ENDROOT
BRANCH   1   2
ATOM      2  N   UNL     1       8.036  -5.638  27.217  0.00  0.00    -0.318 NA
ATOM      3  H1  UNL     1       8.853  -6.259  27.159  0.00  0.00    +0.119 HD
ATOM      4  H2  UNL     1       8.237  -5.066  28.043  0.00  0.00    +0.119 HD
ENDBRANCH   1   2
BRANCH   1   5
ATOM      5  C   UNL     1       9.413  -4.964  25.300  0.00  0.00    +0.322 C 
ATOM      6  OXT UNL     1       9.958  -4.156  24.566  0.00  0.00    -0.249 OA
BRANCH   5   7
ATOM      7  O   UNL     1       9.925  -6.194  25.569  0.00  0.00    -0.480 OA
ATOM      8  H   UNL     1      10.430  -6.468  24.764  0.00  0.00    +0.295 HD
ENDBRANCH   5   7
ENDBRANCH   1   5
BRANCH   1   9
ATOM      9  C   UNL     1       6.937  -5.103  25.030  0.00  0.00    +0.043 C 
BRANCH   9  10
ATOM     10  C   UNL     1       6.364  -3.930  24.236  0.00  0.00    +0.105 C 
BRANCH  10  12
ATOM     11  C   UNL     1       7.739  -2.592  22.332  0.00  0.00    +0.121 C 
ATOM     12  S   UNL     1       6.720  -4.080  22.458  0.00  0.00    +0.019 S 
ATOM     13  O   UNL     1       5.441  -3.819  21.720  0.00  0.00    -0.257 OA
ENDBRANCH  10  12
ENDBRANCH   9  10
ENDBRANCH   1   9
TORSDOF 6
ENDMDL
MODEL 3
REMARK VINA RESULT:      -4.1      5.693      6.534
REMARK  Name = 
REMARK  7 active torsions:
REMARK  status: ('A' for Active; 'I' for Inactive)
REMARK    1  A    between atoms: C_1  and  S_2
REMARK    2  A    between atoms: S_2  and  C_4
REMARK    3  A    between atoms: C_4  and  C_5
REMARK    4  A    between atoms: C_5  and  CA_6
REMARK    5  A    between atoms: CA_6  and  N_8
REMARK    6  A    between atoms: CA_6  and  C_9
REMARK    7  A    between atoms: C_9  and  O_10
REMARK                            x       y       z     vdW  Elec       q    Type
REMARK                         _______ _______ _______ _____ _____    ______ ____
ROOT
ATOM      1  CA  UNL     1      10.158  -1.778  23.317  0.00  0.00    +0.161 C 
ENDROOT
BRANCH   1   2
ATOM      2  N   UNL     1       9.975  -3.119  23.951  0.00  0.00    -0.318 NA
ATOM      3  H1  UNL     1      10.684  -3.205  24.691  0.00  0.00    +0.119 HD
ATOM      4  H2  UNL     1       9.094  -3.114  24.473  0.00  0.00    +0.119 HD
ENDBRANCH   1   2
BRANCH   1   5
ATOM      5  C   UNL     1       9.172  -1.670  22.139  0.00  0.00    +0.322 C 
ATOM      6  OXT UNL     1       8.062  -2.171  22.097  0.00  0.00    -0.249 OA
BRANCH   5   7
ATOM      7  O   UNL     1       9.710  -0.957  21.114  0.00  0.00    -0.480 OA
ATOM      8  H   UNL     1      10.478  -1.484  20.781  0.00  0.00    +0.295 HD
ENDBRANCH   5   7
ENDBRANCH   1   5
BRANCH   1   9
ATOM      9  C   UNL     1       9.862  -0.641  24.304  0.00  0.00    +0.043 C 
BRANCH   9  10
ATOM     10  C   UNL     1      10.820   0.548  24.252  0.00  0.00    +0.105 C 
BRANCH  10  12
ATOM     11  C   UNL     1       8.358   1.591  23.857  0.00  0.00    +0.121 C 
ATOM     12  S   UNL     1      10.068   1.984  23.424  0.00  0.00    +0.019 S 
ATOM     13  O   UNL     1      10.222   1.782  21.946  0.00  0.00    -0.257 OA
ENDBRANCH  10  12
ENDBRANCH   9  10
ENDBRANCH   1   9
TORSDOF 6
ENDMDL
MODEL 4
REMARK VINA RESULT:      -4.1      2.693      3.104
REMARK  Name = 
REMARK  7 active torsions:
REMARK  status: ('A' for Active; 'I' for Inactive)
REMARK    1  A    between atoms: C_1  and  S_2
REMARK    2  A    between atoms: S_2  and  C_4
REMARK    3  A    between atoms: C_4  and  C_5
REMARK    4  A    between atoms: C_5  and  CA_6
REMARK    5  A    between atoms: CA_6  and  N_8
REMARK    6  A    between atoms: CA_6  and  C_9
REMARK    7  A    between atoms: C_9  and  O_10
REMARK                            x       y       z     vdW  Elec       q    Type
REMARK                         _______ _______ _______ _____ _____    ______ ____
ROOT
ATOM      1  CA  UNL     1       8.302  -4.492  26.392  0.00  0.00    +0.161 C 
ENDROOT
BRANCH   1   2
ATOM      2  N   UNL     1       8.150  -5.684  27.281  0.00  0.00    -0.318 NA
ATOM      3  H1  UNL     1       7.149  -5.776  27.497  0.00  0.00    +0.119 HD
ATOM      4  H2  UNL     1       8.348  -6.525  26.732  0.00  0.00    +0.119 HD
ENDBRANCH   1   2
BRANCH   1   5
ATOM      5  C   UNL     1       9.398  -4.807  25.356  0.00  0.00    +0.322 C 
ATOM      6  OXT UNL     1       9.804  -4.040  24.500  0.00  0.00    -0.249 OA
BRANCH   5   7
ATOM      7  O   UNL     1       9.852  -6.081  25.495  0.00  0.00    -0.480 OA
ATOM      8  H   UNL     1       9.376  -6.621  24.816  0.00  0.00    +0.295 HD
ENDBRANCH   5   7
ENDBRANCH   1   5
BRANCH   1   9
ATOM      9  C   UNL     1       7.002  -4.175  25.642  0.00  0.00    +0.043 C 
BRANCH   9  10
ATOM     10  C   UNL     1       6.458  -5.294  24.757  0.00  0.00    +0.105 C 
BRANCH  10  12
ATOM     11  C   UNL     1       4.183  -4.598  26.041  0.00  0.00    +0.121 C 
ATOM     12  S   UNL     1       5.017  -6.112  25.510  0.00  0.00    +0.019 S 
ATOM     13  O   UNL     1       5.496  -6.823  26.740  0.00  0.00    -0.257 OA
ENDBRANCH  10  12
ENDBRANCH   9  10
ENDBRANCH   1   9
TORSDOF 6
ENDMDL
MODEL 5
REMARK VINA RESULT:      -4.1      3.314      3.813
REMARK  Name = 
REMARK  7 active torsions:
REMARK  status: ('A' for Active; 'I' for Inactive)
REMARK    1  A    between atoms: C_1  and  S_2
REMARK    2  A    between atoms: S_2  and  C_4
REMARK    3  A    between atoms: C_4  and  C_5
REMARK    4  A    between atoms: C_5  and  CA_6
REMARK    5  A    between atoms: CA_6  and  N_8
REMARK    6  A    between atoms: CA_6  and  C_9
REMARK    7  A    between atoms: C_9  and  O_10
REMARK                            x       y       z     vdW  Elec       q    Type
REMARK                         _______ _______ _______ _____ _____    ______ ____
ROOT
ATOM      1  CA  UNL     1       8.681  -4.551  26.574  0.00  0.00    +0.161 C 
ENDROOT
BRANCH   1   2
ATOM      2  N   UNL     1       7.962  -5.676  27.245  0.00  0.00    -0.318 NA
ATOM      3  H1  UNL     1       8.650  -6.421  27.412  0.00  0.00    +0.119 HD
ATOM      4  H2  UNL     1       7.706  -5.379  28.192  0.00  0.00    +0.119 HD
ENDBRANCH   1   2
BRANCH   1   5
ATOM      5  C   UNL     1       9.298  -5.090  25.270  0.00  0.00    +0.322 C 
ATOM      6  OXT UNL     1       8.724  -5.170  24.197  0.00  0.00    -0.249 OA
BRANCH   5   7
ATOM      7  O   UNL     1      10.579  -5.501  25.467  0.00  0.00    -0.480 OA
ATOM      8  H   UNL     1      11.158  -4.747  25.193  0.00  0.00    +0.295 HD
ENDBRANCH   5   7
ENDBRANCH   1   5
BRANCH   1   9
ATOM      9  C   UNL     1       7.729  -3.400  26.222  0.00  0.00    +0.043 C 
BRANCH   9  10
ATOM     10  C   UNL     1       8.308  -1.994  26.366  0.00  0.00    +0.105 C 
BRANCH  10  12
ATOM     11  C   UNL     1       7.207  -1.972  23.897  0.00  0.00    +0.121 C 
ATOM     12  S   UNL     1       8.615  -1.222  24.746  0.00  0.00    +0.019 S 
ATOM     13  O   UNL     1       9.863  -1.835  24.186  0.00  0.00    -0.257 OA
ENDBRANCH  10  12
ENDBRANCH   9  10
ENDBRANCH   1   9
TORSDOF 6
ENDMDL
MODEL 6
REMARK VINA RESULT:      -4.0      2.751      3.767
REMARK  Name = 
REMARK  7 active torsions:
REMARK  status: ('A' for Active; 'I' for Inactive)
REMARK    1  A    between atoms: C_1  and  S_2
REMARK    2  A    between atoms: S_2  and  C_4
REMARK    3  A    between atoms: C_4  and  C_5
REMARK    4  A    between atoms: C_5  and  CA_6
REMARK    5  A    between atoms: CA_6  and  N_8
REMARK    6  A    between atoms: CA_6  and  C_9
REMARK    7  A    between atoms: C_9  and  O_10
REMARK                            x       y       z     vdW  Elec       q    Type
REMARK                         _______ _______ _______ _____ _____    ______ ____
ROOT
ATOM      1  CA  UNL     1       8.882  -5.295  24.818  0.00  0.00    +0.161 C 
ENDROOT
BRANCH   1   2
ATOM      2  N   UNL     1      10.367  -5.256  24.988  0.00  0.00    -0.318 NA
ATOM      3  H1  UNL     1      10.770  -4.990  24.081  0.00  0.00    +0.119 HD
ATOM      4  H2  UNL     1      10.604  -4.462  25.591  0.00  0.00    +0.119 HD
ENDBRANCH   1   2
BRANCH   1   5
ATOM      5  C   UNL     1       8.244  -5.368  26.218  0.00  0.00    +0.322 C 
ATOM      6  OXT UNL     1       7.154  -5.850  26.474  0.00  0.00    -0.249 OA
BRANCH   5   7
ATOM      7  O   UNL     1       9.047  -4.794  27.154  0.00  0.00    -0.480 OA
ATOM      8  H   UNL     1       8.879  -5.279  27.999  0.00  0.00    +0.295 HD
ENDBRANCH   5   7
ENDBRANCH   1   5
BRANCH   1   9
ATOM      9  C   UNL     1       8.361  -4.036  24.112  0.00  0.00    +0.043 C 
BRANCH   9  10
ATOM     10  C   UNL     1       9.293  -2.827  24.139  0.00  0.00    +0.105 C 
BRANCH  10  12
ATOM     11  C   UNL     1       9.950  -0.297  24.827  0.00  0.00    +0.121 C 
ATOM     12  S   UNL     1       8.603  -1.465  25.130  0.00  0.00    +0.019 S 
ATOM     13  O   UNL     1       8.674  -1.876  26.570  0.00  0.00    -0.257 OA
ENDBRANCH  10  12
ENDBRANCH   9  10
ENDBRANCH   1   9
TORSDOF 6
ENDMDL
MODEL 7
REMARK VINA RESULT:      -4.0      5.628      6.327
REMARK  Name = 
REMARK  7 active torsions:
REMARK  status: ('A' for Active; 'I' for Inactive)
REMARK    1  A    between atoms: C_1  and  S_2
REMARK    2  A    between atoms: S_2  and  C_4
REMARK    3  A    between atoms: C_4  and  C_5
REMARK    4  A    between atoms: C_5  and  CA_6
REMARK    5  A    between atoms: CA_6  and  N_8
REMARK    6  A    between atoms: CA_6  and  C_9
REMARK    7  A    between atoms: C_9  and  O_10
REMARK                            x       y       z     vdW  Elec       q    Type
REMARK                         _______ _______ _______ _____ _____    ______ ____
ROOT
ATOM      1  CA  UNL     1      10.229   1.063  22.730  0.00  0.00    +0.161 C 
ENDROOT
BRANCH   1   2
ATOM      2  N   UNL     1       9.969   2.114  21.700  0.00  0.00    -0.318 NA
ATOM      3  H1  UNL     1      10.414   2.980  22.030  0.00  0.00    +0.119 HD
ATOM      4  H2  UNL     1      10.506   1.883  20.858  0.00  0.00    +0.119 HD
ENDBRANCH   1   2
BRANCH   1   5
ATOM      5  C   UNL     1       9.994   1.687  24.118  0.00  0.00    +0.322 C 
ATOM      6  OXT UNL     1       9.471   2.768  24.328  0.00  0.00    -0.249 OA
BRANCH   5   7
ATOM      7  O   UNL     1      10.476   0.884  25.104  0.00  0.00    -0.480 OA
ATOM      8  H   UNL     1       9.727   0.736  25.732  0.00  0.00    +0.295 HD
ENDBRANCH   5   7
ENDBRANCH   1   5
BRANCH   1   9
ATOM      9  C   UNL     1       9.281  -0.133  22.568  0.00  0.00    +0.043 C 
BRANCH   9  10
ATOM     10  C   UNL     1       9.952  -1.500  22.450  0.00  0.00    +0.105 C 
BRANCH  10  12
ATOM     11  C   UNL     1       8.100  -3.317  23.208  0.00  0.00    +0.121 C 
ATOM     12  S   UNL     1       9.593  -2.556  23.888  0.00  0.00    +0.019 S 
ATOM     13  O   UNL     1       9.173  -1.657  25.012  0.00  0.00    -0.257 OA
ENDBRANCH  10  12
ENDBRANCH   9  10
ENDBRANCH   1   9
TORSDOF 6
ENDMDL
MODEL 8
REMARK VINA RESULT:      -3.9      3.238      3.954
REMARK  Name = 
REMARK  7 active torsions:
REMARK  status: ('A' for Active; 'I' for Inactive)
REMARK    1  A    between atoms: C_1  and  S_2
REMARK    2  A    between atoms: S_2  and  C_4
REMARK    3  A    between atoms: C_4  and  C_5
REMARK    4  A    between atoms: C_5  and  CA_6
REMARK    5  A    between atoms: CA_6  and  N_8
REMARK    6  A    between atoms: CA_6  and  C_9
REMARK    7  A    between atoms: C_9  and  O_10
REMARK                            x       y       z     vdW  Elec       q    Type
REMARK                         _______ _______ _______ _____ _____    ______ ____
ROOT
ATOM      1  CA  UNL     1       8.909  -4.914  24.905  0.00  0.00    +0.161 C 
ENDROOT
BRANCH   1   2
ATOM      2  N   UNL     1      10.167  -5.583  25.356  0.00  0.00    -0.318 NA
ATOM      3  H1  UNL     1      10.014  -5.898  26.323  0.00  0.00    +0.119 HD
ATOM      4  H2  UNL     1      10.270  -6.462  24.840  0.00  0.00    +0.119 HD
ENDBRANCH   1   2
BRANCH   1   5
ATOM      5  C   UNL     1       7.763  -5.385  25.820  0.00  0.00    +0.322 C 
ATOM      6  OXT UNL     1       6.578  -5.366  25.536  0.00  0.00    -0.249 OA
BRANCH   5   7
ATOM      7  O   UNL     1       8.238  -5.811  27.021  0.00  0.00    -0.480 OA
ATOM      8  H   UNL     1       7.461  -6.174  27.514  0.00  0.00    +0.295 HD
ENDBRANCH   5   7
ENDBRANCH   1   5
BRANCH   1   9
ATOM      9  C   UNL     1       9.014  -3.386  25.006  0.00  0.00    +0.043 C 
BRANCH   9  10
ATOM     10  C   UNL     1       9.821  -2.703  23.904  0.00  0.00    +0.105 C 
BRANCH  10  12
ATOM     11  C   UNL     1       9.876  -0.750  22.036  0.00  0.00    +0.121 C 
ATOM     12  S   UNL     1       9.428  -0.931  23.778  0.00  0.00    +0.019 S 
ATOM     13  O   UNL     1      10.445  -0.186  24.589  0.00  0.00    -0.257 OA
ENDBRANCH  10  12
ENDBRANCH   9  10
ENDBRANCH   1   9
TORSDOF 6
ENDMDL
MODEL 9
REMARK VINA RESULT:      -3.8      5.238      6.084
REMARK  Name = 
REMARK  7 active torsions:
REMARK  status: ('A' for Active; 'I' for Inactive)
REMARK    1  A    between atoms: C_1  and  S_2
REMARK    2  A    between atoms: S_2  and  C_4
REMARK    3  A    between atoms: C_4  and  C_5
REMARK    4  A    between atoms: C_5  and  CA_6
REMARK    5  A    between atoms: CA_6  and  N_8
REMARK    6  A    between atoms: CA_6  and  C_9
REMARK    7  A    between atoms: C_9  and  O_10
REMARK                            x       y       z     vdW  Elec       q    Type
REMARK                         _______ _______ _______ _____ _____    ______ ____
ROOT
ATOM      1  CA  UNL     1       8.751  -1.836  22.204  0.00  0.00    +0.161 C 
ENDROOT
BRANCH   1   2
ATOM      2  N   UNL     1      10.117  -1.525  21.683  0.00  0.00    -0.318 NA
ATOM      3  H1  UNL     1      10.537  -2.412  21.379  0.00  0.00    +0.119 HD
ATOM      4  H2  UNL     1      10.019  -1.002  20.807  0.00  0.00    +0.119 HD
ENDBRANCH   1   2
BRANCH   1   5
ATOM      5  C   UNL     1       8.899  -2.840  23.361  0.00  0.00    +0.322 C 
ATOM      6  OXT UNL     1       7.998  -3.510  23.836  0.00  0.00    -0.249 OA
BRANCH   5   7
ATOM      7  O   UNL     1      10.179  -2.873  23.821  0.00  0.00    -0.480 OA
ATOM      8  H   UNL     1      10.748  -2.549  23.080  0.00  0.00    +0.295 HD
ENDBRANCH   5   7
ENDBRANCH   1   5
BRANCH   1   9
ATOM      9  C   UNL     1       8.049  -0.580  22.737  0.00  0.00    +0.043 C 
BRANCH   9  10
ATOM     10  C   UNL     1       8.846   0.719  22.635  0.00  0.00    +0.105 C 
BRANCH  10  12
ATOM     11  C   UNL     1      10.562   2.579  23.585  0.00  0.00    +0.121 C 
ATOM     12  S   UNL     1       9.693   1.116  24.196  0.00  0.00    +0.019 S 
ATOM     13  O   UNL     1      10.717   0.047  24.437  0.00  0.00    -0.257 OA
ENDBRANCH  10  12
ENDBRANCH   9  10
ENDBRANCH   1   9
TORSDOF 6
ENDMDL
