MODEL 1
REMARK VINA RESULT:      -5.5      0.000      0.000
REMARK  Name = 
REMARK  6 active torsions:
REMARK  status: ('A' for Active; 'I' for Inactive)
REMARK    1  A    between atoms: O_1  and  C_2
REMARK    2  A    between atoms: C_2  and  CA_4
REMARK    3  A    between atoms: C_9  and  C_10
REMARK    4  A    between atoms: C_10  and  P_11
REMARK    5  A    between atoms: P_11  and  O_12
REMARK    6  A    between atoms: P_11  and  O_13
REMARK                            x       y       z     vdW  Elec       q    Type
REMARK                         _______ _______ _______ _____ _____    ______ ____
ROOT
ATOM      1  CA  UNL     1       9.030  -3.580  24.278  0.00  0.00    +0.151 A 
ATOM      2  C   UNL     1       7.949  -3.739  23.400  0.00  0.00    -0.003 A 
ATOM      3  C   UNL     1       7.925  -2.846  22.316  0.00  0.00    +0.008 A 
ATOM      4  C   UNL     1       8.882  -1.834  22.194  0.00  0.00    +0.020 A 
ATOM      5  C   UNL     1       9.865  -1.728  23.155  0.00  0.00    +0.111 A 
ATOM      6  N   UNL     1       9.978  -2.590  24.180  0.00  0.00    -0.248 NA
ENDROOT
BRANCH   1   7
ATOM      7  C   UNL     1       9.374  -4.544  25.360  0.00  0.00    +0.356 C 
ATOM      8  OXT UNL     1       8.918  -4.509  26.494  0.00  0.00    -0.243 OA
BRANCH   7   9
ATOM      9  O   UNL     1      10.188  -5.523  24.905  0.00  0.00    -0.476 OA
ATOM     10  H   UNL     1      10.951  -5.103  24.437  0.00  0.00    +0.295 HD
ENDBRANCH   7   9
ENDBRANCH   1   7
BRANCH   2  11
ATOM     11  C   UNL     1       6.900  -4.865  23.446  0.00  0.00    +0.164 C 
BRANCH  11  12
ATOM     12  P   UNL     1       6.373  -5.289  21.746  0.00  0.00    +0.332 P 
ATOM     13  O   UNL     1       5.927  -5.649  20.308  0.00  0.00    -0.258 OA
BRANCH  12  14
ATOM     14  O   UNL     1       4.910  -4.641  22.125  0.00  0.00    -0.324 OA
ATOM     15  H   UNL     1       5.024  -4.243  23.014  0.00  0.00    +0.220 HD
ENDBRANCH  12  14
BRANCH  12  16
ATOM     16  O   UNL     1       6.031  -6.793  22.327  0.00  0.00    -0.324 OA
ATOM     17  H   UNL     1       6.738  -7.472  22.186  0.00  0.00    +0.220 HD
ENDBRANCH  12  16
ENDBRANCH  11  12
ENDBRANCH   2  11
TORSDOF 6
ENDMDL
MODEL 2
REMARK VINA RESULT:      -5.2      3.617      4.491
REMARK  Name = 
REMARK  6 active torsions:
REMARK  status: ('A' for Active; 'I' for Inactive)
REMARK    1  A    between atoms: O_1  and  C_2
REMARK    2  A    between atoms: C_2  and  CA_4
REMARK    3  A    between atoms: C_9  and  C_10
REMARK    4  A    between atoms: C_10  and  P_11
REMARK    5  A    between atoms: P_11  and  O_12
REMARK    6  A    between atoms: P_11  and  O_13
REMARK                            x       y       z     vdW  Elec       q    Type
REMARK                         _______ _______ _______ _____ _____    ______ ____
ROOT
ATOM      1  CA  UNL     1       7.909  -5.088  24.038  0.00  0.00    +0.151 A 
ATOM      2  C   UNL     1       6.733  -4.937  24.788  0.00  0.00    -0.003 A 
ATOM      3  C   UNL     1       5.569  -5.431  24.178  0.00  0.00    +0.008 A 
ATOM      4  C   UNL     1       5.602  -5.960  22.884  0.00  0.00    +0.020 A 
ATOM      5  C   UNL     1       6.804  -5.998  22.211  0.00  0.00    +0.111 A 
ATOM      6  N   UNL     1       7.962  -5.599  22.764  0.00  0.00    -0.248 NA
ENDROOT
BRANCH   1   7
ATOM      7  C   UNL     1       9.276  -4.839  24.572  0.00  0.00    +0.356 C 
ATOM      8  OXT UNL     1       9.874  -3.775  24.486  0.00  0.00    -0.243 OA
BRANCH   7   9
ATOM      9  O   UNL     1       9.743  -5.913  25.248  0.00  0.00    -0.476 OA
ATOM     10  H   UNL     1      10.712  -5.790  25.400  0.00  0.00    +0.295 HD
ENDBRANCH   7   9
ENDBRANCH   1   7
BRANCH   2  11
ATOM     11  C   UNL     1       6.641  -4.420  26.235  0.00  0.00    +0.164 C 
BRANCH  11  12
ATOM     12  P   UNL     1       6.228  -5.803  27.360  0.00  0.00    +0.332 P 
ATOM     13  O   UNL     1       5.878  -6.972  28.312  0.00  0.00    -0.258 OA
BRANCH  12  14
ATOM     14  O   UNL     1       6.046  -4.676  28.545  0.00  0.00    -0.324 OA
ATOM     15  H   UNL     1       5.633  -3.903  28.107  0.00  0.00    +0.220 HD
ENDBRANCH  12  14
BRANCH  12  16
ATOM     16  O   UNL     1       7.851  -5.991  27.575  0.00  0.00    -0.324 OA
ATOM     17  H   UNL     1       8.409  -5.776  26.785  0.00  0.00    +0.220 HD
ENDBRANCH  12  16
ENDBRANCH  11  12
ENDBRANCH   2  11
TORSDOF 6
ENDMDL
MODEL 3
REMARK VINA RESULT:      -5.2      3.336      4.263
REMARK  Name = 
REMARK  6 active torsions:
REMARK  status: ('A' for Active; 'I' for Inactive)
REMARK    1  A    between atoms: O_1  and  C_2
REMARK    2  A    between atoms: C_2  and  CA_4
REMARK    3  A    between atoms: C_9  and  C_10
REMARK    4  A    between atoms: C_10  and  P_11
REMARK    5  A    between atoms: P_11  and  O_12
REMARK    6  A    between atoms: P_11  and  O_13
REMARK                            x       y       z     vdW  Elec       q    Type
REMARK                         _______ _______ _______ _____ _____    ______ ____
ROOT
ATOM      1  CA  UNL     1       8.428  -4.387  24.360  0.00  0.00    +0.151 A 
ATOM      2  C   UNL     1       8.642  -3.238  23.585  0.00  0.00    -0.003 A 
ATOM      3  C   UNL     1       7.635  -2.954  22.650  0.00  0.00    +0.008 A 
ATOM      4  C   UNL     1       6.548  -3.816  22.476  0.00  0.00    +0.020 A 
ATOM      5  C   UNL     1       6.473  -4.956  23.247  0.00  0.00    +0.111 A 
ATOM      6  N   UNL     1       7.371  -5.251  24.202  0.00  0.00    -0.248 NA
ENDROOT
BRANCH   1   7
ATOM      7  C   UNL     1       9.246  -4.756  25.549  0.00  0.00    +0.356 C 
ATOM      8  OXT UNL     1       9.058  -4.335  26.682  0.00  0.00    -0.243 OA
BRANCH   7   9
ATOM      9  O   UNL     1      10.174  -5.689  25.236  0.00  0.00    -0.476 OA
ATOM     10  H   UNL     1       9.865  -6.182  24.436  0.00  0.00    +0.295 HD
ENDBRANCH   7   9
ENDBRANCH   1   7
BRANCH   2  11
ATOM     11  C   UNL     1       9.783  -2.221  23.769  0.00  0.00    +0.164 C 
BRANCH  11  12
ATOM     12  P   UNL     1       9.583  -0.847  22.577  0.00  0.00    +0.332 P 
ATOM     13  O   UNL     1       9.414   0.315  21.568  0.00  0.00    -0.258 OA
BRANCH  12  14
ATOM     14  O   UNL     1      10.671  -1.627  21.621  0.00  0.00    -0.324 OA
ATOM     15  H   UNL     1      10.473  -1.331  20.707  0.00  0.00    +0.220 HD
ENDBRANCH  12  14
BRANCH  12  16
ATOM     16  O   UNL     1      10.711  -0.036  23.464  0.00  0.00    -0.324 OA
ATOM     17  H   UNL     1      10.682  -0.205  24.439  0.00  0.00    +0.220 HD
ENDBRANCH  12  16
ENDBRANCH  11  12
ENDBRANCH   2  11
TORSDOF 6
ENDMDL
MODEL 4
REMARK VINA RESULT:      -5.0      3.292      4.834
REMARK  Name = 
REMARK  6 active torsions:
REMARK  status: ('A' for Active; 'I' for Inactive)
REMARK    1  A    between atoms: O_1  and  C_2
REMARK    2  A    between atoms: C_2  and  CA_4
REMARK    3  A    between atoms: C_9  and  C_10
REMARK    4  A    between atoms: C_10  and  P_11
REMARK    5  A    between atoms: P_11  and  O_12
REMARK    6  A    between atoms: P_11  and  O_13
REMARK                            x       y       z     vdW  Elec       q    Type
REMARK                         _______ _______ _______ _____ _____    ______ ____
ROOT
ATOM      1  CA  UNL     1       6.241  -3.869  23.248  0.00  0.00    +0.151 A 
ATOM      2  C   UNL     1       7.359  -4.554  23.746  0.00  0.00    -0.003 A 
ATOM      3  C   UNL     1       7.753  -5.674  22.997  0.00  0.00    +0.008 A 
ATOM      4  C   UNL     1       7.017  -6.093  21.885  0.00  0.00    +0.020 A 
ATOM      5  C   UNL     1       5.893  -5.382  21.524  0.00  0.00    +0.111 A 
ATOM      6  N   UNL     1       5.501  -4.266  22.162  0.00  0.00    -0.248 NA
ENDROOT
BRANCH   1   7
ATOM      7  C   UNL     1       5.785  -2.543  23.751  0.00  0.00    +0.356 C 
ATOM      8  OXT UNL     1       5.248  -2.356  24.834  0.00  0.00    -0.243 OA
BRANCH   7   9
ATOM      9  O   UNL     1       6.122  -1.551  22.895  0.00  0.00    -0.476 OA
ATOM     10  H   UNL     1       6.063  -1.902  21.972  0.00  0.00    +0.295 HD
ENDBRANCH   7   9
ENDBRANCH   1   7
BRANCH   2  11
ATOM     11  C   UNL     1       8.243  -4.111  24.925  0.00  0.00    +0.164 C 
BRANCH  11  12
ATOM     12  P   UNL     1       7.786  -5.049  26.428  0.00  0.00    +0.332 P 
ATOM     13  O   UNL     1       7.399  -5.843  27.700  0.00  0.00    -0.258 OA
BRANCH  12  14
ATOM     14  O   UNL     1       7.093  -3.664  26.982  0.00  0.00    -0.324 OA
ATOM     15  H   UNL     1       6.845  -3.852  27.912  0.00  0.00    +0.220 HD
ENDBRANCH  12  14
BRANCH  12  16
ATOM     16  O   UNL     1       9.296  -4.702  26.992  0.00  0.00    -0.324 OA
ATOM     17  H   UNL     1       9.473  -3.743  27.160  0.00  0.00    +0.220 HD
ENDBRANCH  12  16
ENDBRANCH  11  12
ENDBRANCH   2  11
TORSDOF 6
ENDMDL
MODEL 5
REMARK VINA RESULT:      -5.0      1.277      1.466
REMARK  Name = 
REMARK  6 active torsions:
REMARK  status: ('A' for Active; 'I' for Inactive)
REMARK    1  A    between atoms: O_1  and  C_2
REMARK    2  A    between atoms: C_2  and  CA_4
REMARK    3  A    between atoms: C_9  and  C_10
REMARK    4  A    between atoms: C_10  and  P_11
REMARK    5  A    between atoms: P_11  and  O_12
REMARK    6  A    between atoms: P_11  and  O_13
REMARK                            x       y       z     vdW  Elec       q    Type
REMARK                         _______ _______ _______ _____ _____    ______ ____
ROOT
ATOM      1  CA  UNL     1       8.862  -3.908  24.606  0.00  0.00    +0.151 A 
ATOM      2  C   UNL     1       7.686  -4.227  23.912  0.00  0.00    -0.003 A 
ATOM      3  C   UNL     1       7.460  -3.477  22.747  0.00  0.00    +0.008 A 
ATOM      4  C   UNL     1       8.324  -2.442  22.376  0.00  0.00    +0.020 A 
ATOM      5  C   UNL     1       9.416  -2.170  23.172  0.00  0.00    +0.111 A 
ATOM      6  N   UNL     1       9.721  -2.892  24.263  0.00  0.00    -0.248 NA
ENDROOT
BRANCH   1   7
ATOM      7  C   UNL     1       9.409  -4.714  25.733  0.00  0.00    +0.356 C 
ATOM      8  OXT UNL     1       9.060  -4.605  26.900  0.00  0.00    -0.243 OA
BRANCH   7   9
ATOM      9  O   UNL     1      10.280  -5.649  25.291  0.00  0.00    -0.476 OA
ATOM     10  H   UNL     1      11.145  -5.513  25.751  0.00  0.00    +0.295 HD
ENDBRANCH   7   9
ENDBRANCH   1   7
BRANCH   2  11
ATOM     11  C   UNL     1       6.730  -5.390  24.233  0.00  0.00    +0.164 C 
BRANCH  11  12
ATOM     12  P   UNL     1       5.117  -5.108  23.417  0.00  0.00    +0.332 P 
ATOM     13  O   UNL     1       3.752  -4.869  22.726  0.00  0.00    -0.258 OA
BRANCH  12  14
ATOM     14  O   UNL     1       4.459  -5.040  24.923  0.00  0.00    -0.324 OA
ATOM     15  H   UNL     1       3.563  -5.427  24.832  0.00  0.00    +0.220 HD
ENDBRANCH  12  14
BRANCH  12  16
ATOM     16  O   UNL     1       5.008  -6.746  23.274  0.00  0.00    -0.324 OA
ATOM     17  H   UNL     1       5.289  -7.260  24.073  0.00  0.00    +0.220 HD
ENDBRANCH  12  16
ENDBRANCH  11  12
ENDBRANCH   2  11
TORSDOF 6
ENDMDL
MODEL 6
REMARK VINA RESULT:      -4.9      5.316      6.391
REMARK  Name = 
REMARK  6 active torsions:
REMARK  status: ('A' for Active; 'I' for Inactive)
REMARK    1  A    between atoms: O_1  and  C_2
REMARK    2  A    between atoms: C_2  and  CA_4
REMARK    3  A    between atoms: C_9  and  C_10
REMARK    4  A    between atoms: C_10  and  P_11
REMARK    5  A    between atoms: P_11  and  O_12
REMARK    6  A    between atoms: P_11  and  O_13
REMARK                            x       y       z     vdW  Elec       q    Type
REMARK                         _______ _______ _______ _____ _____    ______ ____
ROOT
ATOM      1  CA  UNL     1       9.337  -0.959  23.512  0.00  0.00    +0.151 A 
ATOM      2  C   UNL     1       9.557   0.215  24.247  0.00  0.00    -0.003 A 
ATOM      3  C   UNL     1       9.269   0.123  25.618  0.00  0.00    +0.008 A 
ATOM      4  C   UNL     1       8.729  -1.046  26.164  0.00  0.00    +0.020 A 
ATOM      5  C   UNL     1       8.489  -2.119  25.334  0.00  0.00    +0.111 A 
ATOM      6  N   UNL     1       8.802  -2.115  24.027  0.00  0.00    -0.248 NA
ENDROOT
BRANCH   1   7
ATOM      7  C   UNL     1       9.776  -1.154  22.102  0.00  0.00    +0.356 C 
ATOM      8  OXT UNL     1       9.216  -0.675  21.126  0.00  0.00    -0.243 OA
BRANCH   7   9
ATOM      9  O   UNL     1      10.929  -1.858  22.040  0.00  0.00    -0.476 OA
ATOM     10  H   UNL     1      11.015  -2.239  21.132  0.00  0.00    +0.295 HD
ENDBRANCH   7   9
ENDBRANCH   1   7
BRANCH   2  11
ATOM     11  C   UNL     1      10.203   1.508  23.718  0.00  0.00    +0.164 C 
BRANCH  11  12
ATOM     12  P   UNL     1       8.927   2.562  22.937  0.00  0.00    +0.332 P 
ATOM     13  O   UNL     1       7.848   3.454  22.276  0.00  0.00    -0.258 OA
BRANCH  12  14
ATOM     14  O   UNL     1       9.656   2.237  21.499  0.00  0.00    -0.324 OA
ATOM     15  H   UNL     1      10.537   1.876  21.730  0.00  0.00    +0.220 HD
ENDBRANCH  12  14
BRANCH  12  16
ATOM     16  O   UNL     1       9.891   3.846  23.311  0.00  0.00    -0.324 OA
ATOM     17  H   UNL     1       9.748   4.233  24.211  0.00  0.00    +0.220 HD
ENDBRANCH  12  16
ENDBRANCH  11  12
ENDBRANCH   2  11
TORSDOF 6
ENDMDL
MODEL 7
REMARK VINA RESULT:      -4.8      5.496      6.493
REMARK  Name = 
REMARK  6 active torsions:
REMARK  status: ('A' for Active; 'I' for Inactive)
REMARK    1  A    between atoms: O_1  and  C_2
REMARK    2  A    between atoms: C_2  and  CA_4
REMARK    3  A    between atoms: C_9  and  C_10
REMARK    4  A    between atoms: C_10  and  P_11
REMARK    5  A    between atoms: P_11  and  O_12
REMARK    6  A    between atoms: P_11  and  O_13
REMARK                            x       y       z     vdW  Elec       q    Type
REMARK                         _______ _______ _______ _____ _____    ______ ____
ROOT
ATOM      1  CA  UNL     1       9.255   2.739  23.015  0.00  0.00    +0.151 A 
ATOM      2  C   UNL     1       8.746   1.781  22.126  0.00  0.00    -0.003 A 
ATOM      3  C   UNL     1       7.452   2.040  21.648  0.00  0.00    +0.008 A 
ATOM      4  C   UNL     1       6.722   3.142  22.103  0.00  0.00    +0.020 A 
ATOM      5  C   UNL     1       7.297   3.983  23.031  0.00  0.00    +0.111 A 
ATOM      6  N   UNL     1       8.553   3.825  23.480  0.00  0.00    -0.248 NA
ENDROOT
BRANCH   1   7
ATOM      7  C   UNL     1      10.672   2.783  23.472  0.00  0.00    +0.356 C 
ATOM      8  OXT UNL     1      11.222   1.904  24.121  0.00  0.00    -0.243 OA
BRANCH   7   9
ATOM      9  O   UNL     1      11.307   3.880  23.000  0.00  0.00    -0.476 OA
ATOM     10  H   UNL     1      11.963   4.177  23.677  0.00  0.00    +0.295 HD
ENDBRANCH   7   9
ENDBRANCH   1   7
BRANCH   2  11
ATOM     11  C   UNL     1       9.519   0.584  21.543  0.00  0.00    +0.164 C 
BRANCH  11  12
ATOM     12  P   UNL     1       8.898  -0.971  22.280  0.00  0.00    +0.332 P 
ATOM     13  O   UNL     1       8.373  -2.288  22.904  0.00  0.00    -0.258 OA
BRANCH  12  14
ATOM     14  O   UNL     1       9.826  -0.623  23.593  0.00  0.00    -0.324 OA
ATOM     15  H   UNL     1       9.634   0.314  23.806  0.00  0.00    +0.220 HD
ENDBRANCH  12  14
BRANCH  12  16
ATOM     16  O   UNL     1      10.095  -1.736  21.444  0.00  0.00    -0.324 OA
ATOM     17  H   UNL     1      10.043  -2.725  21.442  0.00  0.00    +0.220 HD
ENDBRANCH  12  16
ENDBRANCH  11  12
ENDBRANCH   2  11
TORSDOF 6
ENDMDL
MODEL 8
REMARK VINA RESULT:      -4.8      2.134      3.979
REMARK  Name = 
REMARK  6 active torsions:
REMARK  status: ('A' for Active; 'I' for Inactive)
REMARK    1  A    between atoms: O_1  and  C_2
REMARK    2  A    between atoms: C_2  and  CA_4
REMARK    3  A    between atoms: C_9  and  C_10
REMARK    4  A    between atoms: C_10  and  P_11
REMARK    5  A    between atoms: P_11  and  O_12
REMARK    6  A    between atoms: P_11  and  O_13
REMARK                            x       y       z     vdW  Elec       q    Type
REMARK                         _______ _______ _______ _____ _____    ______ ____
ROOT
ATOM      1  CA  UNL     1       7.832  -3.963  23.059  0.00  0.00    +0.151 A 
ATOM      2  C   UNL     1       8.539  -4.078  24.264  0.00  0.00    -0.003 A 
ATOM      3  C   UNL     1       9.319  -2.962  24.607  0.00  0.00    +0.008 A 
ATOM      4  C   UNL     1       9.421  -1.864  23.748  0.00  0.00    +0.020 A 
ATOM      5  C   UNL     1       8.735  -1.887  22.553  0.00  0.00    +0.111 A 
ATOM      6  N   UNL     1       7.923  -2.897  22.198  0.00  0.00    -0.248 NA
ENDROOT
BRANCH   1   7
ATOM      7  C   UNL     1       6.784  -4.923  22.612  0.00  0.00    +0.356 C 
ATOM      8  OXT UNL     1       5.639  -4.953  23.041  0.00  0.00    -0.243 OA
BRANCH   7   9
ATOM      9  O   UNL     1       7.232  -5.704  21.603  0.00  0.00    -0.476 OA
ATOM     10  H   UNL     1       6.451  -6.100  21.143  0.00  0.00    +0.295 HD
ENDBRANCH   7   9
ENDBRANCH   1   7
BRANCH   2  11
ATOM     11  C   UNL     1       8.421  -5.231  25.278  0.00  0.00    +0.164 C 
BRANCH  11  12
ATOM     12  P   UNL     1       7.238  -4.775  26.597  0.00  0.00    +0.332 P 
ATOM     13  O   UNL     1       6.236  -4.390  27.714  0.00  0.00    -0.258 OA
BRANCH  12  14
ATOM     14  O   UNL     1       7.961  -5.922  27.529  0.00  0.00    -0.324 OA
ATOM     15  H   UNL     1       8.908  -5.672  27.561  0.00  0.00    +0.220 HD
ENDBRANCH  12  14
BRANCH  12  16
ATOM     16  O   UNL     1       6.177  -5.810  25.875  0.00  0.00    -0.324 OA
ATOM     17  H   UNL     1       6.569  -6.402  25.185  0.00  0.00    +0.220 HD
ENDBRANCH  12  16
ENDBRANCH  11  12
ENDBRANCH   2  11
TORSDOF 6
ENDMDL
MODEL 9
REMARK VINA RESULT:      -4.8      3.084      4.245
REMARK  Name = 
REMARK  6 active torsions:
REMARK  status: ('A' for Active; 'I' for Inactive)
REMARK    1  A    between atoms: O_1  and  C_2
REMARK    2  A    between atoms: C_2  and  CA_4
REMARK    3  A    between atoms: C_9  and  C_10
REMARK    4  A    between atoms: C_10  and  P_11
REMARK    5  A    between atoms: P_11  and  O_12
REMARK    6  A    between atoms: P_11  and  O_13
REMARK                            x       y       z     vdW  Elec       q    Type
REMARK                         _______ _______ _______ _____ _____    ______ ____
ROOT
ATOM      1  CA  UNL     1       8.688  -1.563  23.390  0.00  0.00    +0.151 A 
ATOM      2  C   UNL     1       8.407  -2.718  24.134  0.00  0.00    -0.003 A 
ATOM      3  C   UNL     1       7.048  -3.058  24.215  0.00  0.00    +0.008 A 
ATOM      4  C   UNL     1       6.065  -2.241  23.649  0.00  0.00    +0.020 A 
ATOM      5  C   UNL     1       6.451  -1.090  22.996  0.00  0.00    +0.111 A 
ATOM      6  N   UNL     1       7.738  -0.743  22.830  0.00  0.00    -0.248 NA
ENDROOT
BRANCH   1   7
ATOM      7  C   UNL     1      10.060  -1.141  22.992  0.00  0.00    +0.356 C 
ATOM      8  OXT UNL     1      10.779  -0.401  23.650  0.00  0.00    -0.243 OA
BRANCH   7   9
ATOM      9  O   UNL     1      10.450  -1.752  21.850  0.00  0.00    -0.476 OA
ATOM     10  H   UNL     1      11.063  -2.492  22.085  0.00  0.00    +0.295 HD
ENDBRANCH   7   9
ENDBRANCH   1   7
BRANCH   2  11
ATOM     11  C   UNL     1       9.444  -3.688  24.729  0.00  0.00    +0.164 C 
BRANCH  11  12
ATOM     12  P   UNL     1       8.591  -4.988  25.693  0.00  0.00    +0.332 P 
ATOM     13  O   UNL     1       7.870  -6.089  26.509  0.00  0.00    -0.258 OA
BRANCH  12  14
ATOM     14  O   UNL     1       9.507  -4.522  26.978  0.00  0.00    -0.324 OA
ATOM     15  H   UNL     1       9.018  -4.829  27.770  0.00  0.00    +0.220 HD
ENDBRANCH  12  14
BRANCH  12  16
ATOM     16  O   UNL     1       9.706  -6.040  25.084  0.00  0.00    -0.324 OA
ATOM     17  H   UNL     1       9.670  -6.171  24.103  0.00  0.00    +0.220 HD
ENDBRANCH  12  16
ENDBRANCH  11  12
ENDBRANCH   2  11
TORSDOF 6
ENDMDL
