MODEL 1
REMARK VINA RESULT:      -5.7      0.000      0.000
REMARK  Name = 
REMARK  7 active torsions:
REMARK  status: ('A' for Active; 'I' for Inactive)
REMARK    1  A    between atoms: O_1  and  C_2
REMARK    2  A    between atoms: C_2  and  C_4
REMARK    3  A    between atoms: C_4  and  C_5
REMARK    4  A    between atoms: C_5  and  C_6
REMARK    5  A    between atoms: C_6  and  C_8
REMARK    6  A    between atoms: C_9  and  C_14
REMARK    7  A    between atoms: C_14  and  O_15
REMARK                            x       y       z     vdW  Elec       q    Type
REMARK                         _______ _______ _______ _____ _____    ______ ____
ROOT
ATOM      1  C   UNL     1       8.359  -3.032  23.411  0.00  0.00    +0.031 A 
ATOM      2  C   UNL     1       7.305  -2.713  22.526  0.00  0.00    +0.012 A 
ATOM      3  C   UNL     1       6.175  -3.523  22.412  0.00  0.00    +0.001 A 
ATOM      4  C   UNL     1       6.075  -4.673  23.176  0.00  0.00    +0.001 A 
ATOM      5  C   UNL     1       7.104  -5.002  24.059  0.00  0.00    +0.015 A 
ATOM      6  C   UNL     1       8.261  -4.200  24.196  0.00  0.00    +0.069 A 
ENDROOT
BRANCH   1   7
ATOM      7  C   UNL     1       9.534  -2.110  23.421  0.00  0.00    +0.164 C 
ATOM      8  O   UNL     1      10.641  -2.550  23.122  0.00  0.00    -0.292 OA
BRANCH   7   9
ATOM      9  C   UNL     1       9.306  -0.641  23.736  0.00  0.00    +0.091 C 
BRANCH   9  10
ATOM     10  C   UNL     1      10.363   0.277  23.124  0.00  0.00    +0.128 C 
BRANCH  10  11
ATOM     11  C   UNL     1       9.828   0.907  21.860  0.00  0.00    +0.305 C 
ATOM     12  O   UNL     1       9.139   0.332  21.031  0.00  0.00    -0.251 OA
BRANCH  11  13
ATOM     13  O   UNL     1      10.198   2.198  21.721  0.00  0.00    -0.481 OA
ATOM     14  H   UNL     1       9.459   2.833  21.780  0.00  0.00    +0.295 HD
ENDBRANCH  11  13
ENDBRANCH  10  11
ENDBRANCH   9  10
ENDBRANCH   7   9
ENDBRANCH   1   7
BRANCH   6  15
ATOM     15  C   UNL     1       9.194  -4.681  25.262  0.00  0.00    +0.337 C 
ATOM     16  O   UNL     1       8.834  -4.721  26.430  0.00  0.00    -0.245 OA
BRANCH  15  17
ATOM     17  O   UNL     1      10.396  -5.156  24.895  0.00  0.00    -0.477 OA
ATOM     18  H   UNL     1      11.156  -4.536  24.968  0.00  0.00    +0.295 HD
ENDBRANCH  15  17
ENDBRANCH   6  15
TORSDOF 7
ENDMDL
MODEL 2
REMARK VINA RESULT:      -5.6      1.920      2.793
REMARK  Name = 
REMARK  7 active torsions:
REMARK  status: ('A' for Active; 'I' for Inactive)
REMARK    1  A    between atoms: O_1  and  C_2
REMARK    2  A    between atoms: C_2  and  C_4
REMARK    3  A    between atoms: C_4  and  C_5
REMARK    4  A    between atoms: C_5  and  C_6
REMARK    5  A    between atoms: C_6  and  C_8
REMARK    6  A    between atoms: C_9  and  C_14
REMARK    7  A    between atoms: C_14  and  O_15
REMARK                            x       y       z     vdW  Elec       q    Type
REMARK                         _______ _______ _______ _____ _____    ______ ____
ROOT
ATOM      1  C   UNL     1       7.551  -4.972  24.529  0.00  0.00    +0.031 A 
ATOM      2  C   UNL     1       7.131  -5.206  23.201  0.00  0.00    +0.012 A 
ATOM      3  C   UNL     1       5.910  -5.816  22.917  0.00  0.00    +0.001 A 
ATOM      4  C   UNL     1       5.082  -6.211  23.954  0.00  0.00    +0.001 A 
ATOM      5  C   UNL     1       5.478  -5.985  25.273  0.00  0.00    +0.015 A 
ATOM      6  C   UNL     1       6.710  -5.367  25.590  0.00  0.00    +0.069 A 
ENDROOT
BRANCH   1   7
ATOM      7  C   UNL     1       8.894  -4.343  24.713  0.00  0.00    +0.164 C 
ATOM      8  O   UNL     1       9.880  -5.066  24.825  0.00  0.00    -0.292 OA
BRANCH   7   9
ATOM      9  C   UNL     1       9.000  -2.828  24.684  0.00  0.00    +0.091 C 
BRANCH   9  10
ATOM     10  C   UNL     1      10.021  -2.315  23.670  0.00  0.00    +0.128 C 
BRANCH  10  11
ATOM     11  C   UNL     1       9.317  -1.874  22.410  0.00  0.00    +0.305 C 
ATOM     12  O   UNL     1       8.105  -1.849  22.259  0.00  0.00    -0.251 OA
BRANCH  11  13
ATOM     13  O   UNL     1      10.174  -1.506  21.432  0.00  0.00    -0.481 OA
ATOM     14  H   UNL     1      11.093  -1.379  21.734  0.00  0.00    +0.295 HD
ENDBRANCH  11  13
ENDBRANCH  10  11
ENDBRANCH   9  10
ENDBRANCH   7   9
ENDBRANCH   1   7
BRANCH   6  15
ATOM     15  C   UNL     1       6.895  -5.135  27.057  0.00  0.00    +0.337 C 
ATOM     16  O   UNL     1       6.238  -4.282  27.638  0.00  0.00    -0.245 OA
BRANCH  15  17
ATOM     17  O   UNL     1       7.726  -5.945  27.734  0.00  0.00    -0.477 OA
ATOM     18  H   UNL     1       7.371  -6.826  27.989  0.00  0.00    +0.295 HD
ENDBRANCH  15  17
ENDBRANCH   6  15
TORSDOF 7
ENDMDL
MODEL 3
REMARK VINA RESULT:      -5.4      2.224      3.421
REMARK  Name = 
REMARK  7 active torsions:
REMARK  status: ('A' for Active; 'I' for Inactive)
REMARK    1  A    between atoms: O_1  and  C_2
REMARK    2  A    between atoms: C_2  and  C_4
REMARK    3  A    between atoms: C_4  and  C_5
REMARK    4  A    between atoms: C_5  and  C_6
REMARK    5  A    between atoms: C_6  and  C_8
REMARK    6  A    between atoms: C_9  and  C_14
REMARK    7  A    between atoms: C_14  and  O_15
REMARK                            x       y       z     vdW  Elec       q    Type
REMARK                         _______ _______ _______ _____ _____    ______ ____
ROOT
ATOM      1  C   UNL     1       7.518  -5.000  24.858  0.00  0.00    +0.031 A 
ATOM      2  C   UNL     1       7.099  -5.385  26.151  0.00  0.00    +0.012 A 
ATOM      3  C   UNL     1       5.866  -5.999  26.367  0.00  0.00    +0.001 A 
ATOM      4  C   UNL     1       5.021  -6.239  25.297  0.00  0.00    +0.001 A 
ATOM      5  C   UNL     1       5.419  -5.870  24.012  0.00  0.00    +0.015 A 
ATOM      6  C   UNL     1       6.664  -5.246  23.763  0.00  0.00    +0.069 A 
ENDROOT
BRANCH   1   7
ATOM      7  C   UNL     1       8.843  -4.318  24.753  0.00  0.00    +0.164 C 
ATOM      8  O   UNL     1       9.864  -5.000  24.713  0.00  0.00    -0.292 OA
BRANCH   7   9
ATOM      9  C   UNL     1       8.877  -2.805  24.629  0.00  0.00    +0.091 C 
BRANCH   9  10
ATOM     10  C   UNL     1       9.974  -2.301  23.693  0.00  0.00    +0.128 C 
BRANCH  10  11
ATOM     11  C   UNL     1       9.358  -1.730  22.439  0.00  0.00    +0.305 C 
ATOM     12  O   UNL     1       8.174  -1.461  22.303  0.00  0.00    -0.251 OA
BRANCH  11  13
ATOM     13  O   UNL     1      10.259  -1.544  21.450  0.00  0.00    -0.481 OA
ATOM     14  H   UNL     1      11.016  -0.982  21.700  0.00  0.00    +0.295 HD
ENDBRANCH  11  13
ENDBRANCH  10  11
ENDBRANCH   9  10
ENDBRANCH   7   9
ENDBRANCH   1   7
BRANCH   6  15
ATOM     15  C   UNL     1       6.934  -5.021  22.308  0.00  0.00    +0.337 C 
ATOM     16  O   UNL     1       7.315  -5.941  21.598  0.00  0.00    -0.245 OA
BRANCH  15  17
ATOM     17  O   UNL     1       6.657  -3.815  21.784  0.00  0.00    -0.477 OA
ATOM     18  H   UNL     1       5.794  -3.414  22.034  0.00  0.00    +0.295 HD
ENDBRANCH  15  17
ENDBRANCH   6  15
TORSDOF 7
ENDMDL
MODEL 4
REMARK VINA RESULT:      -5.3      3.086      5.432
REMARK  Name = 
REMARK  7 active torsions:
REMARK  status: ('A' for Active; 'I' for Inactive)
REMARK    1  A    between atoms: O_1  and  C_2
REMARK    2  A    between atoms: C_2  and  C_4
REMARK    3  A    between atoms: C_4  and  C_5
REMARK    4  A    between atoms: C_5  and  C_6
REMARK    5  A    between atoms: C_6  and  C_8
REMARK    6  A    between atoms: C_9  and  C_14
REMARK    7  A    between atoms: C_14  and  O_15
REMARK                            x       y       z     vdW  Elec       q    Type
REMARK                         _______ _______ _______ _____ _____    ______ ____
ROOT
ATOM      1  C   UNL     1       7.983  -3.967  23.383  0.00  0.00    +0.031 A 
ATOM      2  C   UNL     1       7.805  -3.009  22.361  0.00  0.00    +0.012 A 
ATOM      3  C   UNL     1       8.579  -1.851  22.302  0.00  0.00    +0.001 A 
ATOM      4  C   UNL     1       9.545  -1.620  23.266  0.00  0.00    +0.001 A 
ATOM      5  C   UNL     1       9.739  -2.557  24.282  0.00  0.00    +0.015 A 
ATOM      6  C   UNL     1       8.969  -3.741  24.366  0.00  0.00    +0.069 A 
ENDROOT
BRANCH   1   7
ATOM      7  C   UNL     1       7.072  -5.152  23.365  0.00  0.00    +0.164 C 
ATOM      8  O   UNL     1       7.256  -6.033  22.529  0.00  0.00    -0.292 OA
BRANCH   7   9
ATOM      9  C   UNL     1       5.992  -5.257  24.427  0.00  0.00    +0.091 C 
BRANCH   9  10
ATOM     10  C   UNL     1       4.605  -4.870  23.916  0.00  0.00    +0.128 C 
BRANCH  10  11
ATOM     11  C   UNL     1       3.903  -6.085  23.360  0.00  0.00    +0.305 C 
ATOM     12  O   UNL     1       2.889  -6.055  22.680  0.00  0.00    -0.251 OA
BRANCH  11  13
ATOM     13  O   UNL     1       4.511  -7.243  23.700  0.00  0.00    -0.481 OA
ATOM     14  H   UNL     1       4.479  -7.928  23.006  0.00  0.00    +0.295 HD
ENDBRANCH  11  13
ENDBRANCH  10  11
ENDBRANCH   9  10
ENDBRANCH   7   9
ENDBRANCH   1   7
BRANCH   6  15
ATOM     15  C   UNL     1       9.401  -4.651  25.473  0.00  0.00    +0.337 C 
ATOM     16  O   UNL     1       8.982  -4.487  26.610  0.00  0.00    -0.245 OA
BRANCH  15  17
ATOM     17  O   UNL     1      10.178  -5.705  25.170  0.00  0.00    -0.477 OA
ATOM     18  H   UNL     1      11.076  -5.719  25.572  0.00  0.00    +0.295 HD
ENDBRANCH  15  17
ENDBRANCH   6  15
TORSDOF 7
ENDMDL
MODEL 5
REMARK VINA RESULT:      -5.3      2.390      3.212
REMARK  Name = 
REMARK  7 active torsions:
REMARK  status: ('A' for Active; 'I' for Inactive)
REMARK    1  A    between atoms: O_1  and  C_2
REMARK    2  A    between atoms: C_2  and  C_4
REMARK    3  A    between atoms: C_4  and  C_5
REMARK    4  A    between atoms: C_5  and  C_6
REMARK    5  A    between atoms: C_6  and  C_8
REMARK    6  A    between atoms: C_9  and  C_14
REMARK    7  A    between atoms: C_14  and  O_15
REMARK                            x       y       z     vdW  Elec       q    Type
REMARK                         _______ _______ _______ _____ _____    ______ ____
ROOT
ATOM      1  C   UNL     1       8.126  -0.647  24.202  0.00  0.00    +0.031 A 
ATOM      2  C   UNL     1       6.869  -0.783  24.830  0.00  0.00    +0.012 A 
ATOM      3  C   UNL     1       5.892  -1.644  24.331  0.00  0.00    +0.001 A 
ATOM      4  C   UNL     1       6.148  -2.385  23.189  0.00  0.00    +0.001 A 
ATOM      5  C   UNL     1       7.386  -2.266  22.557  0.00  0.00    +0.015 A 
ATOM      6  C   UNL     1       8.395  -1.401  23.041  0.00  0.00    +0.069 A 
ENDROOT
BRANCH   1   7
ATOM      7  C   UNL     1       9.080   0.332  24.806  0.00  0.00    +0.164 C 
ATOM      8  O   UNL     1      10.145  -0.077  25.262  0.00  0.00    -0.292 OA
BRANCH   7   9
ATOM      9  C   UNL     1       8.728   1.809  24.773  0.00  0.00    +0.091 C 
BRANCH   9  10
ATOM     10  C   UNL     1       9.580   2.609  23.790  0.00  0.00    +0.128 C 
BRANCH  10  11
ATOM     11  C   UNL     1       9.140   2.321  22.375  0.00  0.00    +0.305 C 
ATOM     12  O   UNL     1       7.978   2.277  22.001  0.00  0.00    -0.251 OA
BRANCH  11  13
ATOM     13  O   UNL     1      10.176   2.103  21.537  0.00  0.00    -0.481 OA
ATOM     14  H   UNL     1      10.075   2.520  20.660  0.00  0.00    +0.295 HD
ENDBRANCH  11  13
ENDBRANCH  10  11
ENDBRANCH   9  10
ENDBRANCH   7   9
ENDBRANCH   1   7
BRANCH   6  15
ATOM     15  C   UNL     1       9.676  -1.496  22.273  0.00  0.00    +0.337 C 
ATOM     16  O   UNL     1      10.583  -2.217  22.664  0.00  0.00    -0.245 OA
BRANCH  15  17
ATOM     17  O   UNL     1       9.768  -0.849  21.099  0.00  0.00    -0.477 OA
ATOM     18  H   UNL     1       9.833   0.132  21.141  0.00  0.00    +0.295 HD
ENDBRANCH  15  17
ENDBRANCH   6  15
TORSDOF 7
ENDMDL
MODEL 6
REMARK VINA RESULT:      -5.2      2.302      5.236
REMARK  Name = 
REMARK  7 active torsions:
REMARK  status: ('A' for Active; 'I' for Inactive)
REMARK    1  A    between atoms: O_1  and  C_2
REMARK    2  A    between atoms: C_2  and  C_4
REMARK    3  A    between atoms: C_4  and  C_5
REMARK    4  A    between atoms: C_5  and  C_6
REMARK    5  A    between atoms: C_6  and  C_8
REMARK    6  A    between atoms: C_9  and  C_14
REMARK    7  A    between atoms: C_14  and  O_15
REMARK                            x       y       z     vdW  Elec       q    Type
REMARK                         _______ _______ _______ _____ _____    ______ ____
ROOT
ATOM      1  C   UNL     1       7.811  -4.330  23.453  0.00  0.00    +0.031 A 
ATOM      2  C   UNL     1       7.716  -5.674  23.030  0.00  0.00    +0.012 A 
ATOM      3  C   UNL     1       6.891  -6.051  21.971  0.00  0.00    +0.001 A 
ATOM      4  C   UNL     1       6.138  -5.094  21.313  0.00  0.00    +0.001 A 
ATOM      5  C   UNL     1       6.222  -3.760  21.713  0.00  0.00    +0.015 A 
ATOM      6  C   UNL     1       7.051  -3.349  22.784  0.00  0.00    +0.069 A 
ENDROOT
BRANCH   1   7
ATOM      7  C   UNL     1       8.700  -4.050  24.621  0.00  0.00    +0.164 C 
ATOM      8  O   UNL     1       9.918  -4.115  24.473  0.00  0.00    -0.292 OA
BRANCH   7   9
ATOM      9  C   UNL     1       8.066  -3.628  25.935  0.00  0.00    +0.091 C 
BRANCH   9  10
ATOM     10  C   UNL     1       6.672  -4.214  26.147  0.00  0.00    +0.128 C 
BRANCH  10  11
ATOM     11  C   UNL     1       6.780  -5.594  26.749  0.00  0.00    +0.305 C 
ATOM     12  O   UNL     1       5.950  -6.481  26.614  0.00  0.00    -0.251 OA
BRANCH  11  13
ATOM     13  O   UNL     1       7.904  -5.762  27.477  0.00  0.00    -0.481 OA
ATOM     14  H   UNL     1       7.750  -6.117  28.373  0.00  0.00    +0.295 HD
ENDBRANCH  11  13
ENDBRANCH  10  11
ENDBRANCH   9  10
ENDBRANCH   7   9
ENDBRANCH   1   7
BRANCH   6  15
ATOM     15  C   UNL     1       7.065  -1.866  22.987  0.00  0.00    +0.337 C 
ATOM     16  O   UNL     1       6.222  -1.329  23.691  0.00  0.00    -0.245 OA
BRANCH  15  17
ATOM     17  O   UNL     1       8.076  -1.156  22.459  0.00  0.00    -0.477 OA
ATOM     18  H   UNL     1       8.214  -1.242  21.489  0.00  0.00    +0.295 HD
ENDBRANCH  15  17
ENDBRANCH   6  15
TORSDOF 7
ENDMDL
MODEL 7
REMARK VINA RESULT:      -5.0      2.062      5.393
REMARK  Name = 
REMARK  7 active torsions:
REMARK  status: ('A' for Active; 'I' for Inactive)
REMARK    1  A    between atoms: O_1  and  C_2
REMARK    2  A    between atoms: C_2  and  C_4
REMARK    3  A    between atoms: C_4  and  C_5
REMARK    4  A    between atoms: C_5  and  C_6
REMARK    5  A    between atoms: C_6  and  C_8
REMARK    6  A    between atoms: C_9  and  C_14
REMARK    7  A    between atoms: C_14  and  O_15
REMARK                            x       y       z     vdW  Elec       q    Type
REMARK                         _______ _______ _______ _____ _____    ______ ____
ROOT
ATOM      1  C   UNL     1       9.293   0.012  22.568  0.00  0.00    +0.031 A 
ATOM      2  C   UNL     1       8.599   0.590  21.483  0.00  0.00    +0.012 A 
ATOM      3  C   UNL     1       8.217   1.931  21.491  0.00  0.00    +0.001 A 
ATOM      4  C   UNL     1       8.515   2.724  22.586  0.00  0.00    +0.001 A 
ATOM      5  C   UNL     1       9.204   2.171  23.666  0.00  0.00    +0.015 A 
ATOM      6  C   UNL     1       9.604   0.814  23.685  0.00  0.00    +0.069 A 
ENDROOT
BRANCH   1   7
ATOM      7  C   UNL     1       9.619  -1.443  22.464  0.00  0.00    +0.164 C 
ATOM      8  O   UNL     1      10.771  -1.778  22.201  0.00  0.00    -0.292 OA
BRANCH   7   9
ATOM      9  C   UNL     1       8.527  -2.458  22.755  0.00  0.00    +0.091 C 
BRANCH   9  10
ATOM     10  C   UNL     1       8.592  -3.022  24.173  0.00  0.00    +0.128 C 
BRANCH  10  11
ATOM     11  C   UNL     1       8.351  -4.512  24.146  0.00  0.00    +0.305 C 
ATOM     12  O   UNL     1       9.199  -5.361  24.376  0.00  0.00    -0.251 OA
BRANCH  11  13
ATOM     13  O   UNL     1       7.078  -4.832  23.826  0.00  0.00    -0.481 OA
ATOM     14  H   UNL     1       6.994  -5.376  23.020  0.00  0.00    +0.295 HD
ENDBRANCH  11  13
ENDBRANCH  10  11
ENDBRANCH   9  10
ENDBRANCH   7   9
ENDBRANCH   1   7
BRANCH   6  15
ATOM     15  C   UNL     1      10.410   0.452  24.893  0.00  0.00    +0.337 C 
ATOM     16  O   UNL     1      11.622   0.620  24.904  0.00  0.00    -0.245 OA
BRANCH  15  17
ATOM     17  O   UNL     1       9.763   0.029  25.992  0.00  0.00    -0.477 OA
ATOM     18  H   UNL     1       8.907   0.468  26.194  0.00  0.00    +0.295 HD
ENDBRANCH  15  17
ENDBRANCH   6  15
TORSDOF 7
ENDMDL
MODEL 8
REMARK VINA RESULT:      -4.9      2.592      3.641
REMARK  Name = 
REMARK  7 active torsions:
REMARK  status: ('A' for Active; 'I' for Inactive)
REMARK    1  A    between atoms: O_1  and  C_2
REMARK    2  A    between atoms: C_2  and  C_4
REMARK    3  A    between atoms: C_4  and  C_5
REMARK    4  A    between atoms: C_5  and  C_6
REMARK    5  A    between atoms: C_6  and  C_8
REMARK    6  A    between atoms: C_9  and  C_14
REMARK    7  A    between atoms: C_14  and  O_15
REMARK                            x       y       z     vdW  Elec       q    Type
REMARK                         _______ _______ _______ _____ _____    ______ ____
ROOT
ATOM      1  C   UNL     1       9.527  -0.443  24.832  0.00  0.00    +0.031 A 
ATOM      2  C   UNL     1       9.122  -0.611  26.175  0.00  0.00    +0.012 A 
ATOM      3  C   UNL     1       8.426  -1.745  26.592  0.00  0.00    +0.001 A 
ATOM      4  C   UNL     1       8.114  -2.735  25.676  0.00  0.00    +0.001 A 
ATOM      5  C   UNL     1       8.510  -2.589  24.346  0.00  0.00    +0.015 A 
ATOM      6  C   UNL     1       9.218  -1.450  23.895  0.00  0.00    +0.069 A 
ENDROOT
BRANCH   1   7
ATOM      7  C   UNL     1      10.235   0.829  24.495  0.00  0.00    +0.164 C 
ATOM      8  O   UNL     1      11.442   0.797  24.266  0.00  0.00    -0.292 OA
BRANCH   7   9
ATOM      9  C   UNL     1       9.423   2.107  24.379  0.00  0.00    +0.091 C 
BRANCH   9  10
ATOM     10  C   UNL     1       8.130   1.929  23.586  0.00  0.00    +0.128 C 
BRANCH  10  11
ATOM     11  C   UNL     1       8.356   2.302  22.141  0.00  0.00    +0.305 C 
ATOM     12  O   UNL     1       7.485   2.686  21.375  0.00  0.00    -0.251 OA
BRANCH  11  13
ATOM     13  O   UNL     1       9.643   2.161  21.758  0.00  0.00    -0.481 OA
ATOM     14  H   UNL     1       9.948   1.235  21.717  0.00  0.00    +0.295 HD
ENDBRANCH  11  13
ENDBRANCH  10  11
ENDBRANCH   9  10
ENDBRANCH   7   9
ENDBRANCH   1   7
BRANCH   6  15
ATOM     15  C   UNL     1       9.627  -1.537  22.458  0.00  0.00    +0.337 C 
ATOM     16  O   UNL     1       8.806  -1.363  21.568  0.00  0.00    -0.245 OA
BRANCH  15  17
ATOM     17  O   UNL     1      10.928  -1.714  22.172  0.00  0.00    -0.477 OA
ATOM     18  H   UNL     1      11.570  -1.193  22.704  0.00  0.00    +0.295 HD
ENDBRANCH  15  17
ENDBRANCH   6  15
TORSDOF 7
ENDMDL
MODEL 9
REMARK VINA RESULT:      -4.9      2.483      5.206
REMARK  Name = 
REMARK  7 active torsions:
REMARK  status: ('A' for Active; 'I' for Inactive)
REMARK    1  A    between atoms: O_1  and  C_2
REMARK    2  A    between atoms: C_2  and  C_4
REMARK    3  A    between atoms: C_4  and  C_5
REMARK    4  A    between atoms: C_5  and  C_6
REMARK    5  A    between atoms: C_6  and  C_8
REMARK    6  A    between atoms: C_9  and  C_14
REMARK    7  A    between atoms: C_14  and  O_15
REMARK                            x       y       z     vdW  Elec       q    Type
REMARK                         _______ _______ _______ _____ _____    ______ ____
ROOT
ATOM      1  C   UNL     1       8.161  -1.752  24.337  0.00  0.00    +0.031 A 
ATOM      2  C   UNL     1       9.257  -0.933  24.687  0.00  0.00    +0.012 A 
ATOM      3  C   UNL     1      10.220  -0.561  23.750  0.00  0.00    +0.001 A 
ATOM      4  C   UNL     1      10.114  -1.004  22.443  0.00  0.00    +0.001 A 
ATOM      5  C   UNL     1       9.036  -1.811  22.077  0.00  0.00    +0.015 A 
ATOM      6  C   UNL     1       8.044  -2.203  23.006  0.00  0.00    +0.069 A 
ENDROOT
BRANCH   1   7
ATOM      7  C   UNL     1       7.212  -2.115  25.432  0.00  0.00    +0.164 C 
ATOM      8  O   UNL     1       6.097  -1.599  25.450  0.00  0.00    -0.292 OA
BRANCH   7   9
ATOM      9  C   UNL     1       7.635  -3.162  26.448  0.00  0.00    +0.091 C 
BRANCH   9  10
ATOM     10  C   UNL     1       7.614  -4.584  25.890  0.00  0.00    +0.128 C 
BRANCH  10  11
ATOM     11  C   UNL     1       9.022  -5.045  25.601  0.00  0.00    +0.305 C 
ATOM     12  O   UNL     1       9.425  -5.414  24.508  0.00  0.00    -0.251 OA
BRANCH  11  13
ATOM     13  O   UNL     1       9.817  -5.019  26.692  0.00  0.00    -0.481 OA
ATOM     14  H   UNL     1       9.500  -5.574  27.430  0.00  0.00    +0.295 HD
ENDBRANCH  11  13
ENDBRANCH  10  11
ENDBRANCH   9  10
ENDBRANCH   7   9
ENDBRANCH   1   7
BRANCH   6  15
ATOM     15  C   UNL     1       6.930  -2.987  22.387  0.00  0.00    +0.337 C 
ATOM     16  O   UNL     1       7.111  -4.140  22.021  0.00  0.00    -0.245 OA
BRANCH  15  17
ATOM     17  O   UNL     1       5.708  -2.431  22.331  0.00  0.00    -0.477 OA
ATOM     18  H   UNL     1       4.953  -3.041  22.170  0.00  0.00    +0.295 HD
ENDBRANCH  15  17
ENDBRANCH   6  15
TORSDOF 7
ENDMDL
