MODEL 1
REMARK VINA RESULT:      -4.9      0.000      0.000
REMARK  Name = 
REMARK  7 active torsions:
REMARK  status: ('A' for Active; 'I' for Inactive)
REMARK    1  A    between atoms: C_1  and  O_2
REMARK    2  A    between atoms: O_2  and  C_3
REMARK    3  A    between atoms: C_6  and  C_8
REMARK    4  A    between atoms: C_8  and  O_9
REMARK    5  A    between atoms: C_10  and  S_12
REMARK    6  A    between atoms: C_13  and  O_15
REMARK    7  A    between atoms: C_16  and  O_18
REMARK                            x       y       z     vdW  Elec       q    Type
REMARK                         _______ _______ _______ _____ _____    ______ ____
ROOT
ATOM      1  C   UNL     1       8.954  -4.128  24.269  0.00  0.00    +0.281 C 
ATOM      2  C   UNL     1       9.047  -4.657  25.715  0.00  0.00    +0.200 C 
ATOM      3  C   UNL     1       7.787  -5.465  26.082  0.00  0.00    +0.163 C 
ATOM      4  C   UNL     1       6.508  -4.687  25.733  0.00  0.00    +0.105 C 
ATOM      5  C   UNL     1       6.566  -4.269  24.262  0.00  0.00    +0.162 C 
ATOM      6  O   UNL     1       7.724  -3.450  24.033  0.00  0.00    -0.342 OA
ENDROOT
BRANCH   1   8
ATOM      7  C   UNL     1       9.654  -2.064  23.339  0.00  0.00    +0.197 C 
ATOM      8  O   UNL     1      10.042  -3.221  24.064  0.00  0.00    -0.352 OA
ENDBRANCH   1   8
BRANCH   2   9
ATOM      9  O   UNL     1      10.235  -5.467  25.861  0.00  0.00    -0.384 OA
ATOM     10  H   UNL     1      10.894  -4.970  26.375  0.00  0.00    +0.210 HD
ENDBRANCH   2   9
BRANCH   3  11
ATOM     11  O   UNL     1       7.832  -5.794  27.478  0.00  0.00    -0.388 OA
ATOM     12  H   UNL     1       8.400  -6.582  27.578  0.00  0.00    +0.210 HD
ENDBRANCH   3  11
BRANCH   4  13
ATOM     13  S   UNL     1       5.044  -5.716  26.155  0.00  0.00    -0.170 S 
ATOM     14  H   UNL     1       4.209  -5.211  25.233  0.00  0.00    +0.102 HD
ENDBRANCH   4  13
BRANCH   5  15
ATOM     15  C   UNL     1       5.363  -3.423  23.816  0.00  0.00    +0.188 C 
BRANCH  15  16
ATOM     16  O   UNL     1       4.832  -3.962  22.608  0.00  0.00    -0.392 OA
ATOM     17  H   UNL     1       5.466  -4.647  22.327  0.00  0.00    +0.210 HD
ENDBRANCH  15  16
ENDBRANCH   5  15
TORSDOF 6
ENDMDL
MODEL 2
REMARK VINA RESULT:      -4.5      2.422      3.632
REMARK  Name = 
REMARK  7 active torsions:
REMARK  status: ('A' for Active; 'I' for Inactive)
REMARK    1  A    between atoms: C_1  and  O_2
REMARK    2  A    between atoms: O_2  and  C_3
REMARK    3  A    between atoms: C_6  and  C_8
REMARK    4  A    between atoms: C_8  and  O_9
REMARK    5  A    between atoms: C_10  and  S_12
REMARK    6  A    between atoms: C_13  and  O_15
REMARK    7  A    between atoms: C_16  and  O_18
REMARK                            x       y       z     vdW  Elec       q    Type
REMARK                         _______ _______ _______ _____ _____    ______ ____
ROOT
ATOM      1  C   UNL     1       6.531  -4.761  25.594  0.00  0.00    +0.281 C 
ATOM      2  C   UNL     1       7.944  -5.379  25.571  0.00  0.00    +0.200 C 
ATOM      3  C   UNL     1       8.994  -4.322  25.179  0.00  0.00    +0.163 C 
ATOM      4  C   UNL     1       8.572  -3.566  23.908  0.00  0.00    +0.105 C 
ATOM      5  C   UNL     1       7.169  -2.993  24.114  0.00  0.00    +0.162 C 
ATOM      6  O   UNL     1       6.244  -4.057  24.389  0.00  0.00    -0.342 OA
ENDROOT
BRANCH   1   8
ATOM      7  C   UNL     1       5.023  -6.241  24.522  0.00  0.00    +0.197 C 
ATOM      8  O   UNL     1       5.590  -5.827  25.755  0.00  0.00    -0.352 OA
ENDBRANCH   1   8
BRANCH   2   9
ATOM      9  O   UNL     1       8.247  -5.945  26.866  0.00  0.00    -0.384 OA
ATOM     10  H   UNL     1       7.534  -5.714  27.486  0.00  0.00    +0.210 HD
ENDBRANCH   2   9
BRANCH   3  11
ATOM     11  O   UNL     1      10.264  -4.967  25.003  0.00  0.00    -0.388 OA
ATOM     12  H   UNL     1      10.959  -4.310  25.204  0.00  0.00    +0.210 HD
ENDBRANCH   3  11
BRANCH   4  13
ATOM     13  S   UNL     1       9.842  -2.295  23.515  0.00  0.00    -0.170 S 
ATOM     14  H   UNL     1      10.439  -2.273  24.717  0.00  0.00    +0.102 HD
ENDBRANCH   4  13
BRANCH   5  15
ATOM     15  C   UNL     1       6.614  -2.268  22.877  0.00  0.00    +0.188 C 
BRANCH  15  16
ATOM     16  O   UNL     1       6.222  -0.948  23.244  0.00  0.00    -0.392 OA
ATOM     17  H   UNL     1       6.735  -0.736  24.045  0.00  0.00    +0.210 HD
ENDBRANCH  15  16
ENDBRANCH   5  15
TORSDOF 6
ENDMDL
MODEL 3
REMARK VINA RESULT:      -4.5      4.245      5.909
REMARK  Name = 
REMARK  7 active torsions:
REMARK  status: ('A' for Active; 'I' for Inactive)
REMARK    1  A    between atoms: C_1  and  O_2
REMARK    2  A    between atoms: O_2  and  C_3
REMARK    3  A    between atoms: C_6  and  C_8
REMARK    4  A    between atoms: C_8  and  O_9
REMARK    5  A    between atoms: C_10  and  S_12
REMARK    6  A    between atoms: C_13  and  O_15
REMARK    7  A    between atoms: C_16  and  O_18
REMARK                            x       y       z     vdW  Elec       q    Type
REMARK                         _______ _______ _______ _____ _____    ______ ____
ROOT
ATOM      1  C   UNL     1       9.323   1.340  23.896  0.00  0.00    +0.281 C 
ATOM      2  C   UNL     1      10.010   0.587  22.738  0.00  0.00    +0.200 C 
ATOM      3  C   UNL     1       9.427  -0.832  22.591  0.00  0.00    +0.163 C 
ATOM      4  C   UNL     1       9.398  -1.563  23.942  0.00  0.00    +0.105 C 
ATOM      5  C   UNL     1       8.656  -0.696  24.961  0.00  0.00    +0.162 C 
ATOM      6  O   UNL     1       9.319   0.571  25.096  0.00  0.00    -0.342 OA
ENDROOT
BRANCH   1   8
ATOM      7  C   UNL     1       9.195   3.691  24.155  0.00  0.00    +0.197 C 
ATOM      8  O   UNL     1      10.045   2.556  24.116  0.00  0.00    -0.352 OA
ENDBRANCH   1   8
BRANCH   2   9
ATOM      9  O   UNL     1       9.852   1.335  21.512  0.00  0.00    -0.384 OA
ATOM     10  H   UNL     1       9.409   0.772  20.854  0.00  0.00    +0.210 HD
ENDBRANCH   2   9
BRANCH   3  11
ATOM     11  O   UNL     1      10.200  -1.557  21.623  0.00  0.00    -0.388 OA
ATOM     12  H   UNL     1       9.584  -1.892  20.943  0.00  0.00    +0.210 HD
ENDBRANCH   3  11
BRANCH   4  13
ATOM     13  S   UNL     1       8.658  -3.230  23.709  0.00  0.00    -0.170 S 
ATOM     14  H   UNL     1       8.890  -3.337  22.391  0.00  0.00    +0.102 HD
ENDBRANCH   4  13
BRANCH   5  15
ATOM     15  C   UNL     1       8.623  -1.300  26.374  0.00  0.00    +0.188 C 
BRANCH  15  16
ATOM     16  O   UNL     1       9.209  -0.381  27.291  0.00  0.00    -0.392 OA
ATOM     17  H   UNL     1       9.595  -0.928  27.999  0.00  0.00    +0.210 HD
ENDBRANCH  15  16
ENDBRANCH   5  15
TORSDOF 6
ENDMDL
MODEL 4
REMARK VINA RESULT:      -4.5      2.507      5.020
REMARK  Name = 
REMARK  7 active torsions:
REMARK  status: ('A' for Active; 'I' for Inactive)
REMARK    1  A    between atoms: C_1  and  O_2
REMARK    2  A    between atoms: O_2  and  C_3
REMARK    3  A    between atoms: C_6  and  C_8
REMARK    4  A    between atoms: C_8  and  O_9
REMARK    5  A    between atoms: C_10  and  S_12
REMARK    6  A    between atoms: C_13  and  O_15
REMARK    7  A    between atoms: C_16  and  O_18
REMARK                            x       y       z     vdW  Elec       q    Type
REMARK                         _______ _______ _______ _____ _____    ______ ____
ROOT
ATOM      1  C   UNL     1       6.276  -5.272  22.834  0.00  0.00    +0.281 C 
ATOM      2  C   UNL     1       6.086  -3.785  22.474  0.00  0.00    +0.200 C 
ATOM      3  C   UNL     1       7.419  -3.021  22.596  0.00  0.00    +0.163 C 
ATOM      4  C   UNL     1       8.098  -3.303  23.946  0.00  0.00    +0.105 C 
ATOM      5  C   UNL     1       8.237  -4.816  24.126  0.00  0.00    +0.162 C 
ATOM      6  O   UNL     1       6.939  -5.432  24.084  0.00  0.00    -0.342 OA
ENDROOT
BRANCH   1   8
ATOM      7  C   UNL     1       4.764  -6.554  24.133  0.00  0.00    +0.197 C 
ATOM      8  O   UNL     1       4.979  -5.873  22.906  0.00  0.00    -0.352 OA
ENDBRANCH   1   8
BRANCH   2   9
ATOM      9  O   UNL     1       5.554  -3.673  21.135  0.00  0.00    -0.384 OA
ATOM     10  H   UNL     1       5.844  -2.829  20.750  0.00  0.00    +0.210 HD
ENDBRANCH   2   9
BRANCH   3  11
ATOM     11  O   UNL     1       7.173  -1.618  22.421  0.00  0.00    -0.388 OA
ATOM     12  H   UNL     1       6.271  -1.519  22.060  0.00  0.00    +0.210 HD
ENDBRANCH   3  11
BRANCH   4  13
ATOM     13  S   UNL     1       9.698  -2.399  24.016  0.00  0.00    -0.170 S 
ATOM     14  H   UNL     1       9.601  -1.978  25.286  0.00  0.00    +0.102 HD
ENDBRANCH   4  13
BRANCH   5  15
ATOM     15  C   UNL     1       8.845  -5.221  25.478  0.00  0.00    +0.188 C 
BRANCH  15  16
ATOM     16  O   UNL     1      10.139  -5.778  25.262  0.00  0.00    -0.392 OA
ATOM     17  H   UNL     1      10.710  -5.026  25.019  0.00  0.00    +0.210 HD
ENDBRANCH  15  16
ENDBRANCH   5  15
TORSDOF 6
ENDMDL
MODEL 5
REMARK VINA RESULT:      -4.5      2.077      3.835
REMARK  Name = 
REMARK  7 active torsions:
REMARK  status: ('A' for Active; 'I' for Inactive)
REMARK    1  A    between atoms: C_1  and  O_2
REMARK    2  A    between atoms: O_2  and  C_3
REMARK    3  A    between atoms: C_6  and  C_8
REMARK    4  A    between atoms: C_8  and  O_9
REMARK    5  A    between atoms: C_10  and  S_12
REMARK    6  A    between atoms: C_13  and  O_15
REMARK    7  A    between atoms: C_16  and  O_18
REMARK                            x       y       z     vdW  Elec       q    Type
REMARK                         _______ _______ _______ _____ _____    ______ ____
ROOT
ATOM      1  C   UNL     1       6.381  -4.715  23.623  0.00  0.00    +0.281 C 
ATOM      2  C   UNL     1       5.636  -6.031  23.319  0.00  0.00    +0.200 C 
ATOM      3  C   UNL     1       4.673  -6.388  24.468  0.00  0.00    +0.163 C 
ATOM      4  C   UNL     1       5.383  -6.317  25.829  0.00  0.00    +0.105 C 
ATOM      5  C   UNL     1       6.036  -4.942  25.979  0.00  0.00    +0.162 C 
ATOM      6  O   UNL     1       6.979  -4.733  24.915  0.00  0.00    -0.342 OA
ENDROOT
BRANCH   1   8
ATOM      7  C   UNL     1       7.745  -3.190  22.427  0.00  0.00    +0.197 C 
ATOM      8  O   UNL     1       7.401  -4.551  22.632  0.00  0.00    -0.352 OA
ENDBRANCH   1   8
BRANCH   2   9
ATOM      9  O   UNL     1       4.920  -5.907  22.070  0.00  0.00    -0.384 OA
ATOM     10  H   UNL     1       4.832  -6.788  21.669  0.00  0.00    +0.210 HD
ENDBRANCH   2   9
BRANCH   3  11
ATOM     11  O   UNL     1       4.127  -7.694  24.232  0.00  0.00    -0.388 OA
ATOM     12  H   UNL     1       4.586  -8.071  23.456  0.00  0.00    +0.210 HD
ENDBRANCH   3  11
BRANCH   4  13
ATOM     13  S   UNL     1       4.175  -6.713  27.158  0.00  0.00    -0.170 S 
ATOM     14  H   UNL     1       3.312  -7.411  26.403  0.00  0.00    +0.102 HD
ENDBRANCH   4  13
BRANCH   5  15
ATOM     15  C   UNL     1       6.835  -4.779  27.281  0.00  0.00    +0.188 C 
BRANCH  15  16
ATOM     16  O   UNL     1       7.852  -5.776  27.335  0.00  0.00    -0.392 OA
ATOM     17  H   UNL     1       8.671  -5.301  27.566  0.00  0.00    +0.210 HD
ENDBRANCH  15  16
ENDBRANCH   5  15
TORSDOF 6
ENDMDL
MODEL 6
REMARK VINA RESULT:      -4.3      3.243      4.615
REMARK  Name = 
REMARK  7 active torsions:
REMARK  status: ('A' for Active; 'I' for Inactive)
REMARK    1  A    between atoms: C_1  and  O_2
REMARK    2  A    between atoms: O_2  and  C_3
REMARK    3  A    between atoms: C_6  and  C_8
REMARK    4  A    between atoms: C_8  and  O_9
REMARK    5  A    between atoms: C_10  and  S_12
REMARK    6  A    between atoms: C_13  and  O_15
REMARK    7  A    between atoms: C_16  and  O_18
REMARK                            x       y       z     vdW  Elec       q    Type
REMARK                         _______ _______ _______ _____ _____    ______ ____
ROOT
ATOM      1  C   UNL     1       8.084  -3.208  24.630  0.00  0.00    +0.281 C 
ATOM      2  C   UNL     1       8.350  -2.541  25.995  0.00  0.00    +0.200 C 
ATOM      3  C   UNL     1       8.665  -1.043  25.817  0.00  0.00    +0.163 C 
ATOM      4  C   UNL     1       9.743  -0.826  24.742  0.00  0.00    +0.105 C 
ATOM      5  C   UNL     1       9.305  -1.521  23.452  0.00  0.00    +0.162 C 
ATOM      6  O   UNL     1       9.120  -2.925  23.694  0.00  0.00    -0.342 OA
ENDROOT
BRANCH   1   8
ATOM      7  C   UNL     1       9.258  -5.180  25.216  0.00  0.00    +0.197 C 
ATOM      8  O   UNL     1       8.009  -4.621  24.841  0.00  0.00    -0.352 OA
ENDBRANCH   1   8
BRANCH   2   9
ATOM      9  O   UNL     1       7.205  -2.724  26.857  0.00  0.00    -0.384 OA
ATOM     10  H   UNL     1       6.407  -2.425  26.388  0.00  0.00    +0.210 HD
ENDBRANCH   2   9
BRANCH   3  11
ATOM     11  O   UNL     1       9.071  -0.496  27.080  0.00  0.00    -0.388 OA
ATOM     12  H   UNL     1       9.342   0.430  26.928  0.00  0.00    +0.210 HD
ENDBRANCH   3  11
BRANCH   4  13
ATOM     13  S   UNL     1      10.044   0.977  24.548  0.00  0.00    -0.170 S 
ATOM     14  H   UNL     1      10.234   1.260  25.847  0.00  0.00    +0.102 HD
ENDBRANCH   4  13
BRANCH   5  15
ATOM     15  C   UNL     1      10.342  -1.427  22.322  0.00  0.00    +0.188 C 
BRANCH  15  16
ATOM     16  O   UNL     1       9.690  -1.030  21.119  0.00  0.00    -0.392 OA
ATOM     17  H   UNL     1       8.742  -1.202  21.265  0.00  0.00    +0.210 HD
ENDBRANCH  15  16
ENDBRANCH   5  15
TORSDOF 6
ENDMDL
MODEL 7
REMARK VINA RESULT:      -4.3      3.228      4.535
REMARK  Name = 
REMARK  7 active torsions:
REMARK  status: ('A' for Active; 'I' for Inactive)
REMARK    1  A    between atoms: C_1  and  O_2
REMARK    2  A    between atoms: O_2  and  C_3
REMARK    3  A    between atoms: C_6  and  C_8
REMARK    4  A    between atoms: C_8  and  O_9
REMARK    5  A    between atoms: C_10  and  S_12
REMARK    6  A    between atoms: C_13  and  O_15
REMARK    7  A    between atoms: C_16  and  O_18
REMARK                            x       y       z     vdW  Elec       q    Type
REMARK                         _______ _______ _______ _____ _____    ______ ____
ROOT
ATOM      1  C   UNL     1       9.463  -0.068  23.509  0.00  0.00    +0.281 C 
ATOM      2  C   UNL     1      10.158  -1.444  23.452  0.00  0.00    +0.200 C 
ATOM      3  C   UNL     1       9.284  -2.524  24.119  0.00  0.00    +0.163 C 
ATOM      4  C   UNL     1       8.805  -2.071  25.508  0.00  0.00    +0.105 C 
ATOM      5  C   UNL     1       8.114  -0.712  25.377  0.00  0.00    +0.162 C 
ATOM      6  O   UNL     1       9.030   0.249  24.828  0.00  0.00    -0.342 OA
ENDROOT
BRANCH   1   8
ATOM      7  C   UNL     1       9.906   1.707  22.004  0.00  0.00    +0.197 C 
ATOM      8  O   UNL     1      10.405   0.916  23.070  0.00  0.00    -0.352 OA
ENDBRANCH   1   8
BRANCH   2   9
ATOM      9  O   UNL     1      10.439  -1.790  22.077  0.00  0.00    -0.384 OA
ATOM     10  H   UNL     1       9.731  -1.436  21.512  0.00  0.00    +0.210 HD
ENDBRANCH   2   9
BRANCH   3  11
ATOM     11  O   UNL     1      10.030  -3.747  24.198  0.00  0.00    -0.388 OA
ATOM     12  H   UNL     1      10.157  -3.954  25.144  0.00  0.00    +0.210 HD
ENDBRANCH   3  11
BRANCH   4  13
ATOM     13  S   UNL     1       7.737  -3.380  26.233  0.00  0.00    -0.170 S 
ATOM     14  H   UNL     1       8.117  -3.222  27.510  0.00  0.00    +0.102 HD
ENDBRANCH   4  13
BRANCH   5  15
ATOM     15  C   UNL     1       7.651  -0.127  26.720  0.00  0.00    +0.188 C 
BRANCH  15  16
ATOM     16  O   UNL     1       8.732  -0.169  27.648  0.00  0.00    -0.392 OA
ATOM     17  H   UNL     1       9.268  -0.942  27.389  0.00  0.00    +0.210 HD
ENDBRANCH  15  16
ENDBRANCH   5  15
TORSDOF 6
ENDMDL
MODEL 8
REMARK VINA RESULT:      -4.3      1.813      4.044
REMARK  Name = 
REMARK  7 active torsions:
REMARK  status: ('A' for Active; 'I' for Inactive)
REMARK    1  A    between atoms: C_1  and  O_2
REMARK    2  A    between atoms: O_2  and  C_3
REMARK    3  A    between atoms: C_6  and  C_8
REMARK    4  A    between atoms: C_8  and  O_9
REMARK    5  A    between atoms: C_10  and  S_12
REMARK    6  A    between atoms: C_13  and  O_15
REMARK    7  A    between atoms: C_16  and  O_18
REMARK                            x       y       z     vdW  Elec       q    Type
REMARK                         _______ _______ _______ _____ _____    ______ ____
ROOT
ATOM      1  C   UNL     1       9.060  -1.851  24.064  0.00  0.00    +0.281 C 
ATOM      2  C   UNL     1       8.064  -1.829  22.886  0.00  0.00    +0.200 C 
ATOM      3  C   UNL     1       6.925  -2.841  23.117  0.00  0.00    +0.163 C 
ATOM      4  C   UNL     1       7.480  -4.222  23.500  0.00  0.00    +0.105 C 
ATOM      5  C   UNL     1       8.417  -4.067  24.699  0.00  0.00    +0.162 C 
ATOM      6  O   UNL     1       9.493  -3.175  24.364  0.00  0.00    -0.342 OA
ENDROOT
BRANCH   1   8
ATOM      7  C   UNL     1      10.423   0.010  24.603  0.00  0.00    +0.197 C 
ATOM      8  O   UNL     1      10.191  -1.056  23.696  0.00  0.00    -0.352 OA
ENDBRANCH   1   8
BRANCH   2   9
ATOM      9  O   UNL     1       7.537  -0.493  22.722  0.00  0.00    -0.384 OA
ATOM     10  H   UNL     1       7.178  -0.189  23.573  0.00  0.00    +0.210 HD
ENDBRANCH   2   9
BRANCH   3  11
ATOM     11  O   UNL     1       6.117  -2.914  21.933  0.00  0.00    -0.388 OA
ATOM     12  H   UNL     1       6.244  -2.082  21.437  0.00  0.00    +0.210 HD
ENDBRANCH   3  11
BRANCH   4  13
ATOM     13  S   UNL     1       6.076  -5.371  23.801  0.00  0.00    -0.170 S 
ATOM     14  H   UNL     1       5.565  -5.345  22.560  0.00  0.00    +0.102 HD
ENDBRANCH   4  13
BRANCH   5  15
ATOM     15  C   UNL     1       9.086  -5.381  25.131  0.00  0.00    +0.188 C 
BRANCH  15  16
ATOM     16  O   UNL     1      10.500  -5.248  25.015  0.00  0.00    -0.392 OA
ATOM     17  H   UNL     1      10.738  -4.491  25.582  0.00  0.00    +0.210 HD
ENDBRANCH  15  16
ENDBRANCH   5  15
TORSDOF 6
ENDMDL
MODEL 9
REMARK VINA RESULT:      -4.2      3.589      5.090
REMARK  Name = 
REMARK  7 active torsions:
REMARK  status: ('A' for Active; 'I' for Inactive)
REMARK    1  A    between atoms: C_1  and  O_2
REMARK    2  A    between atoms: O_2  and  C_3
REMARK    3  A    between atoms: C_6  and  C_8
REMARK    4  A    between atoms: C_8  and  O_9
REMARK    5  A    between atoms: C_10  and  S_12
REMARK    6  A    between atoms: C_13  and  O_15
REMARK    7  A    between atoms: C_16  and  O_18
REMARK                            x       y       z     vdW  Elec       q    Type
REMARK                         _______ _______ _______ _____ _____    ______ ____
ROOT
ATOM      1  C   UNL     1       8.245  -2.060  24.808  0.00  0.00    +0.281 C 
ATOM      2  C   UNL     1       9.152  -2.481  23.634  0.00  0.00    +0.200 C 
ATOM      3  C   UNL     1       9.864  -1.255  23.029  0.00  0.00    +0.163 C 
ATOM      4  C   UNL     1       8.867  -0.124  22.734  0.00  0.00    +0.105 C 
ATOM      5  C   UNL     1       8.078   0.188  24.007  0.00  0.00    +0.162 C 
ATOM      6  O   UNL     1       7.380  -0.987  24.448  0.00  0.00    -0.342 OA
ENDROOT
BRANCH   1   8
ATOM      7  C   UNL     1       7.644  -3.556  26.544  0.00  0.00    +0.197 C 
ATOM      8  O   UNL     1       7.461  -3.196  25.184  0.00  0.00    -0.352 OA
ENDBRANCH   1   8
BRANCH   2   9
ATOM      9  O   UNL     1      10.114  -3.459  24.089  0.00  0.00    -0.384 OA
ATOM     10  H   UNL     1       9.796  -4.347  23.853  0.00  0.00    +0.210 HD
ENDBRANCH   2   9
BRANCH   3  11
ATOM     11  O   UNL     1      10.561  -1.658  21.841  0.00  0.00    -0.388 OA
ATOM     12  H   UNL     1      11.481  -1.336  21.914  0.00  0.00    +0.210 HD
ENDBRANCH   3  11
BRANCH   4  13
ATOM     13  S   UNL     1       9.779   1.321  22.054  0.00  0.00    -0.170 S 
ATOM     14  H   UNL     1      10.665   0.632  21.318  0.00  0.00    +0.102 HD
ENDBRANCH   4  13
BRANCH   5  15
ATOM     15  C   UNL     1       6.999   1.265  23.813  0.00  0.00    +0.188 C 
BRANCH  15  16
ATOM     16  O   UNL     1       6.213   0.940  22.669  0.00  0.00    -0.392 OA
ATOM     17  H   UNL     1       5.508   1.612  22.637  0.00  0.00    +0.210 HD
ENDBRANCH  15  16
ENDBRANCH   5  15
TORSDOF 6
ENDMDL
