MODEL 1
REMARK VINA RESULT:      -6.2      0.000      0.000
REMARK  Name = 
REMARK  9 active torsions:
REMARK  status: ('A' for Active; 'I' for Inactive)
REMARK    1  A    between atoms: O_1  and  C_2
REMARK    2  A    between atoms: C_2  and  C_4
REMARK    3  A    between atoms: C_7  and  C_8
REMARK    4  A    between atoms: N_9  and  O_10
REMARK    5  A    between atoms: O_10  and  C_11
REMARK    6  A    between atoms: C_11  and  C_12
REMARK    7  A    between atoms: C_12  and  O_13
REMARK    8  A    between atoms: O_13  and  N_14
REMARK    9  A    between atoms: C_15  and  C_16
REMARK                            x       y       z     vdW  Elec       q    Type
REMARK                         _______ _______ _______ _____ _____    ______ ____
ROOT
ATOM      1  C   UNL     1       8.354  -4.645  24.745  0.00  0.00    +0.306 C 
ENDROOT
BRANCH   1   2
ATOM      2  O   UNL     1       9.608  -4.198  24.221  0.00  0.00    -0.390 OA
BRANCH   2   4
ATOM      3  C   UNL     1       9.999  -2.212  23.387  0.00  0.00    +0.160 C 
ATOM      4  N   UNL     1       9.752  -2.830  24.496  0.00  0.00    -0.092 NA
BRANCH   3   8
ATOM      5  C   UNL     1      10.344   2.039  23.275  0.00  0.00    +0.059 A 
ATOM      6  C   UNL     1      10.565   1.340  24.472  0.00  0.00    +0.015 A 
ATOM      7  C   UNL     1      10.467  -0.054  24.496  0.00  0.00    +0.010 A 
ATOM      8  C   UNL     1      10.125  -0.746  23.330  0.00  0.00    -0.004 A 
ATOM      9  C   UNL     1       9.905  -0.055  22.135  0.00  0.00    +0.010 A 
ATOM     10  C   UNL     1      10.012   1.336  22.109  0.00  0.00    +0.015 A 
BRANCH   5  11
ATOM     11  C   UNL     1      10.386   3.521  23.207  0.00  0.00    +0.337 C 
ATOM     12  O   UNL     1      11.403   4.161  23.411  0.00  0.00    -0.245 OA
BRANCH  11  13
ATOM     13  O   UNL     1       9.196   4.092  22.931  0.00  0.00    -0.477 OA
ATOM     14  H   UNL     1       8.593   4.188  23.690  0.00  0.00    +0.295 HD
ENDBRANCH  11  13
ENDBRANCH   5  11
ENDBRANCH   3   8
ENDBRANCH   2   4
ENDBRANCH   1   2
BRANCH   1  15
ATOM     15  C   UNL     1       7.350  -4.919  23.629  0.00  0.00    +0.306 C 
BRANCH  15  16
ATOM     16  O   UNL     1       6.175  -4.126  23.832  0.00  0.00    -0.390 OA
BRANCH  16  17
ATOM     17  N   UNL     1       6.561  -2.898  24.395  0.00  0.00    -0.091 NA
ATOM     18  C   UNL     1       6.223  -1.945  23.587  0.00  0.00    +0.178 C 
BRANCH  18  19
ATOM     19  C   UNL     1       6.485  -0.520  23.903  0.00  0.00    +0.070 A 
ATOM     20  N   UNL     1       6.414   0.395  22.890  0.00  0.00    -0.306 N 
ATOM     21  H   UNL     1       6.180   0.071  21.956  0.00  0.00    +0.170 HD
ATOM     22  C   UNL     1       6.647   1.729  23.060  0.00  0.00    +0.327 A 
ATOM     23  O   UNL     1       6.573   2.532  22.137  0.00  0.00    -0.247 OA
ATOM     24  N   UNL     1       6.963   2.109  24.335  0.00  0.00    -0.275 N 
ATOM     25  H   UNL     1       7.135   3.091  24.491  0.00  0.00    +0.173 HD
ATOM     26  C   UNL     1       7.050   1.271  25.410  0.00  0.00    +0.255 A 
ATOM     27  O   UNL     1       7.327   1.660  26.540  0.00  0.00    -0.268 OA
ATOM     28  C   UNL     1       6.786  -0.157  25.154  0.00  0.00    +0.097 A 
ENDBRANCH  18  19
ENDBRANCH  16  17
ENDBRANCH  15  16
ENDBRANCH   1  15
TORSDOF 9
ENDMDL
MODEL 2
REMARK VINA RESULT:      -5.9      2.672      4.983
REMARK  Name = 
REMARK  9 active torsions:
REMARK  status: ('A' for Active; 'I' for Inactive)
REMARK    1  A    between atoms: O_1  and  C_2
REMARK    2  A    between atoms: C_2  and  C_4
REMARK    3  A    between atoms: C_7  and  C_8
REMARK    4  A    between atoms: N_9  and  O_10
REMARK    5  A    between atoms: O_10  and  C_11
REMARK    6  A    between atoms: C_11  and  C_12
REMARK    7  A    between atoms: C_12  and  O_13
REMARK    8  A    between atoms: O_13  and  N_14
REMARK    9  A    between atoms: C_15  and  C_16
REMARK                            x       y       z     vdW  Elec       q    Type
REMARK                         _______ _______ _______ _____ _____    ______ ____
ROOT
ATOM      1  C   UNL     1       9.740  -5.043  25.367  0.00  0.00    +0.306 C 
ENDROOT
BRANCH   1   2
ATOM      2  O   UNL     1       9.513  -4.270  24.183  0.00  0.00    -0.390 OA
BRANCH   2   4
ATOM      3  C   UNL     1       9.897  -2.252  23.427  0.00  0.00    +0.160 C 
ATOM      4  N   UNL     1       9.613  -2.909  24.505  0.00  0.00    -0.092 NA
BRANCH   3   8
ATOM      5  C   UNL     1      10.200   2.002  23.354  0.00  0.00    +0.059 A 
ATOM      6  C   UNL     1       9.954   1.287  22.171  0.00  0.00    +0.015 A 
ATOM      7  C   UNL     1       9.839  -0.105  22.207  0.00  0.00    +0.010 A 
ATOM      8  C   UNL     1       9.993  -0.783  23.419  0.00  0.00    -0.004 A 
ATOM      9  C   UNL     1      10.236  -0.076  24.601  0.00  0.00    +0.010 A 
ATOM     10  C   UNL     1      10.341   1.315  24.567  0.00  0.00    +0.015 A 
BRANCH   5  11
ATOM     11  C   UNL     1      10.380   3.475  23.362  0.00  0.00    +0.337 C 
ATOM     12  O   UNL     1       9.492   4.246  23.681  0.00  0.00    -0.245 OA
BRANCH  11  13
ATOM     13  O   UNL     1      11.601   3.881  22.958  0.00  0.00    -0.477 OA
ATOM     14  H   UNL     1      12.352   3.467  23.419  0.00  0.00    +0.295 HD
ENDBRANCH  11  13
ENDBRANCH   5  11
ENDBRANCH   3   8
ENDBRANCH   2   4
ENDBRANCH   1   2
BRANCH   1  15
ATOM     15  C   UNL     1       9.249  -4.309  26.612  0.00  0.00    +0.306 C 
BRANCH  15  16
ATOM     16  O   UNL     1       8.190  -5.055  27.223  0.00  0.00    -0.390 OA
BRANCH  16  17
ATOM     17  N   UNL     1       7.530  -5.789  26.224  0.00  0.00    -0.091 NA
ATOM     18  C   UNL     1       6.394  -5.224  25.973  0.00  0.00    +0.178 C 
BRANCH  18  19
ATOM     19  C   UNL     1       5.462  -5.757  24.950  0.00  0.00    +0.070 A 
ATOM     20  N   UNL     1       5.741  -5.525  23.632  0.00  0.00    -0.306 N 
ATOM     21  H   UNL     1       6.579  -5.001  23.396  0.00  0.00    +0.170 HD
ATOM     22  C   UNL     1       4.951  -5.956  22.606  0.00  0.00    +0.327 A 
ATOM     23  O   UNL     1       5.224  -5.741  21.431  0.00  0.00    -0.247 OA
ATOM     24  N   UNL     1       3.835  -6.652  22.981  0.00  0.00    -0.275 N 
ATOM     25  H   UNL     1       3.235  -6.987  22.242  0.00  0.00    +0.173 HD
ATOM     26  C   UNL     1       3.478  -6.938  24.267  0.00  0.00    +0.255 A 
ATOM     27  O   UNL     1       2.470  -7.574  24.555  0.00  0.00    -0.268 OA
ATOM     28  C   UNL     1       4.377  -6.441  25.325  0.00  0.00    +0.097 A 
ENDBRANCH  18  19
ENDBRANCH  16  17
ENDBRANCH  15  16
ENDBRANCH   1  15
TORSDOF 9
ENDMDL
MODEL 3
REMARK VINA RESULT:      -5.9      3.415      5.177
REMARK  Name = 
REMARK  9 active torsions:
REMARK  status: ('A' for Active; 'I' for Inactive)
REMARK    1  A    between atoms: O_1  and  C_2
REMARK    2  A    between atoms: C_2  and  C_4
REMARK    3  A    between atoms: C_7  and  C_8
REMARK    4  A    between atoms: N_9  and  O_10
REMARK    5  A    between atoms: O_10  and  C_11
REMARK    6  A    between atoms: C_11  and  C_12
REMARK    7  A    between atoms: C_12  and  O_13
REMARK    8  A    between atoms: O_13  and  N_14
REMARK    9  A    between atoms: C_15  and  C_16
REMARK                            x       y       z     vdW  Elec       q    Type
REMARK                         _______ _______ _______ _____ _____    ______ ____
ROOT
ATOM      1  C   UNL     1       5.820  -5.654  28.130  0.00  0.00    +0.306 C 
ENDROOT
BRANCH   1   2
ATOM      2  O   UNL     1       7.187  -6.062  28.254  0.00  0.00    -0.390 OA
BRANCH   2   4
ATOM      3  C   UNL     1       7.628  -4.304  27.027  0.00  0.00    +0.160 C 
ATOM      4  N   UNL     1       7.908  -5.560  27.161  0.00  0.00    -0.092 NA
BRANCH   3   8
ATOM      5  C   UNL     1       9.499  -1.847  24.084  0.00  0.00    +0.059 A 
ATOM      6  C   UNL     1       8.719  -1.270  25.098  0.00  0.00    +0.015 A 
ATOM      7  C   UNL     1       8.123  -2.081  26.068  0.00  0.00    +0.010 A 
ATOM      8  C   UNL     1       8.289  -3.468  26.010  0.00  0.00    -0.004 A 
ATOM      9  C   UNL     1       9.066  -4.048  25.003  0.00  0.00    +0.010 A 
ATOM     10  C   UNL     1       9.669  -3.237  24.040  0.00  0.00    +0.015 A 
BRANCH   5  11
ATOM     11  C   UNL     1      10.110  -1.036  23.002  0.00  0.00    +0.337 C 
ATOM     12  O   UNL     1      10.463   0.119  23.163  0.00  0.00    -0.245 OA
BRANCH  11  13
ATOM     13  O   UNL     1      10.211  -1.681  21.822  0.00  0.00    -0.477 OA
ATOM     14  H   UNL     1       9.903  -1.181  21.045  0.00  0.00    +0.295 HD
ENDBRANCH  11  13
ENDBRANCH   5  11
ENDBRANCH   3   8
ENDBRANCH   2   4
ENDBRANCH   1   2
BRANCH   1  15
ATOM     15  C   UNL     1       4.897  -6.855  27.934  0.00  0.00    +0.306 C 
BRANCH  15  16
ATOM     16  O   UNL     1       4.022  -6.612  26.827  0.00  0.00    -0.390 OA
BRANCH  16  17
ATOM     17  N   UNL     1       4.622  -5.659  25.987  0.00  0.00    -0.091 NA
ATOM     18  C   UNL     1       4.618  -6.111  24.775  0.00  0.00    +0.178 C 
BRANCH  18  19
ATOM     19  C   UNL     1       5.174  -5.328  23.644  0.00  0.00    +0.070 A 
ATOM     20  N   UNL     1       5.448  -5.980  22.475  0.00  0.00    -0.306 N 
ATOM     21  H   UNL     1       5.258  -6.976  22.416  0.00  0.00    +0.170 HD
ATOM     22  C   UNL     1       5.972  -5.366  21.374  0.00  0.00    +0.327 A 
ATOM     23  O   UNL     1       6.206  -5.971  20.334  0.00  0.00    -0.247 OA
ATOM     24  N   UNL     1       6.213  -4.027  21.511  0.00  0.00    -0.275 N 
ATOM     25  H   UNL     1       6.596  -3.547  20.711  0.00  0.00    +0.173 HD
ATOM     26  C   UNL     1       5.965  -3.291  22.634  0.00  0.00    +0.255 A 
ATOM     27  O   UNL     1       6.189  -2.087  22.707  0.00  0.00    -0.268 OA
ATOM     28  C   UNL     1       5.399  -4.019  23.785  0.00  0.00    +0.097 A 
ENDBRANCH  18  19
ENDBRANCH  16  17
ENDBRANCH  15  16
ENDBRANCH   1  15
TORSDOF 9
ENDMDL
MODEL 4
REMARK VINA RESULT:      -5.9      1.049      1.831
REMARK  Name = 
REMARK  9 active torsions:
REMARK  status: ('A' for Active; 'I' for Inactive)
REMARK    1  A    between atoms: O_1  and  C_2
REMARK    2  A    between atoms: C_2  and  C_4
REMARK    3  A    between atoms: C_7  and  C_8
REMARK    4  A    between atoms: N_9  and  O_10
REMARK    5  A    between atoms: O_10  and  C_11
REMARK    6  A    between atoms: C_11  and  C_12
REMARK    7  A    between atoms: C_12  and  O_13
REMARK    8  A    between atoms: O_13  and  N_14
REMARK    9  A    between atoms: C_15  and  C_16
REMARK                            x       y       z     vdW  Elec       q    Type
REMARK                         _______ _______ _______ _____ _____    ______ ____
ROOT
ATOM      1  C   UNL     1       8.183  -4.335  24.556  0.00  0.00    +0.306 C 
ENDROOT
BRANCH   1   2
ATOM      2  O   UNL     1       9.238  -3.909  23.687  0.00  0.00    -0.390 OA
BRANCH   2   4
ATOM      3  C   UNL     1       9.698  -1.884  22.994  0.00  0.00    +0.160 C 
ATOM      4  N   UNL     1       9.636  -2.617  24.059  0.00  0.00    -0.092 NA
BRANCH   3   8
ATOM      5  C   UNL     1      10.598   2.278  23.242  0.00  0.00    +0.059 A 
ATOM      6  C   UNL     1      10.798   1.441  24.350  0.00  0.00    +0.015 A 
ATOM      7  C   UNL     1      10.517   0.075  24.256  0.00  0.00    +0.010 A 
ATOM      8  C   UNL     1      10.014  -0.448  23.061  0.00  0.00    -0.004 A 
ATOM      9  C   UNL     1       9.814   0.380  21.953  0.00  0.00    +0.010 A 
ATOM     10  C   UNL     1      10.104   1.743  22.045  0.00  0.00    +0.015 A 
BRANCH   5  11
ATOM     11  C   UNL     1      10.833   3.742  23.306  0.00  0.00    +0.337 C 
ATOM     12  O   UNL     1      11.949   4.230  23.314  0.00  0.00    -0.245 OA
BRANCH  11  13
ATOM     13  O   UNL     1       9.704   4.476  23.383  0.00  0.00    -0.477 OA
ATOM     14  H   UNL     1       9.261   4.649  22.534  0.00  0.00    +0.295 HD
ENDBRANCH  11  13
ENDBRANCH   5  11
ENDBRANCH   3   8
ENDBRANCH   2   4
ENDBRANCH   1   2
BRANCH   1  15
ATOM     15  C   UNL     1       6.814  -3.954  23.997  0.00  0.00    +0.306 C 
BRANCH  15  16
ATOM     16  O   UNL     1       6.188  -3.003  24.866  0.00  0.00    -0.390 OA
BRANCH  16  17
ATOM     17  N   UNL     1       6.160  -1.759  24.216  0.00  0.00    -0.091 NA
ATOM     18  C   UNL     1       6.705  -0.873  24.986  0.00  0.00    +0.178 C 
BRANCH  18  19
ATOM     19  C   UNL     1       6.839   0.546  24.578  0.00  0.00    +0.070 A 
ATOM     20  N   UNL     1       7.342   1.439  25.483  0.00  0.00    -0.306 N 
ATOM     21  H   UNL     1       7.612   1.101  26.402  0.00  0.00    +0.170 HD
ATOM     22  C   UNL     1       7.499   2.770  25.223  0.00  0.00    +0.327 A 
ATOM     23  O   UNL     1       7.957   3.551  26.049  0.00  0.00    -0.247 OA
ATOM     24  N   UNL     1       7.114   3.170  23.973  0.00  0.00    -0.275 N 
ATOM     25  H   UNL     1       7.224   4.148  23.752  0.00  0.00    +0.173 HD
ATOM     26  C   UNL     1       6.609   2.352  23.003  0.00  0.00    +0.255 A 
ATOM     27  O   UNL     1       6.286   2.756  21.890  0.00  0.00    -0.268 OA
ATOM     28  C   UNL     1       6.467   0.927  23.353  0.00  0.00    +0.097 A 
ENDBRANCH  18  19
ENDBRANCH  16  17
ENDBRANCH  15  16
ENDBRANCH   1  15
TORSDOF 9
ENDMDL
MODEL 5
REMARK VINA RESULT:      -5.8      2.537      7.260
REMARK  Name = 
REMARK  9 active torsions:
REMARK  status: ('A' for Active; 'I' for Inactive)
REMARK    1  A    between atoms: O_1  and  C_2
REMARK    2  A    between atoms: C_2  and  C_4
REMARK    3  A    between atoms: C_7  and  C_8
REMARK    4  A    between atoms: N_9  and  O_10
REMARK    5  A    between atoms: O_10  and  C_11
REMARK    6  A    between atoms: C_11  and  C_12
REMARK    7  A    between atoms: C_12  and  O_13
REMARK    8  A    between atoms: O_13  and  N_14
REMARK    9  A    between atoms: C_15  and  C_16
REMARK                            x       y       z     vdW  Elec       q    Type
REMARK                         _______ _______ _______ _____ _____    ______ ____
ROOT
ATOM      1  C   UNL     1       8.964   0.219  23.674  0.00  0.00    +0.306 C 
ENDROOT
BRANCH   1   2
ATOM      2  O   UNL     1       8.076   0.095  22.558  0.00  0.00    -0.390 OA
BRANCH   2   4
ATOM      3  C   UNL     1       7.459  -2.005  22.625  0.00  0.00    +0.160 C 
ATOM      4  N   UNL     1       7.054  -0.806  22.893  0.00  0.00    -0.092 NA
BRANCH   3   8
ATOM      5  C   UNL     1       5.110  -5.458  23.493  0.00  0.00    +0.059 A 
ATOM      6  C   UNL     1       6.454  -5.592  23.110  0.00  0.00    +0.015 A 
ATOM      7  C   UNL     1       7.221  -4.454  22.844  0.00  0.00    +0.010 A 
ATOM      8  C   UNL     1       6.639  -3.187  22.938  0.00  0.00    -0.004 A 
ATOM      9  C   UNL     1       5.301  -3.048  23.321  0.00  0.00    +0.010 A 
ATOM     10  C   UNL     1       4.538  -4.183  23.596  0.00  0.00    +0.015 A 
BRANCH   5  11
ATOM     11  C   UNL     1       4.239  -6.635  23.737  0.00  0.00    +0.337 C 
ATOM     12  O   UNL     1       4.450  -7.436  24.631  0.00  0.00    -0.245 OA
BRANCH  11  13
ATOM     13  O   UNL     1       3.217  -6.751  22.866  0.00  0.00    -0.477 OA
ATOM     14  H   UNL     1       2.329  -6.629  23.246  0.00  0.00    +0.295 HD
ENDBRANCH  11  13
ENDBRANCH   5  11
ENDBRANCH   3   8
ENDBRANCH   2   4
ENDBRANCH   1   2
BRANCH   1  15
ATOM     15  C   UNL     1       8.423   1.202  24.709  0.00  0.00    +0.306 C 
BRANCH  15  16
ATOM     16  O   UNL     1       8.185   0.516  25.944  0.00  0.00    -0.390 OA
BRANCH  16  17
ATOM     17  N   UNL     1       8.646  -0.804  25.815  0.00  0.00    -0.091 NA
ATOM     18  C   UNL     1       7.767  -1.604  26.327  0.00  0.00    +0.178 C 
BRANCH  18  19
ATOM     19  C   UNL     1       7.956  -3.075  26.334  0.00  0.00    +0.070 A 
ATOM     20  N   UNL     1       9.107  -3.586  25.802  0.00  0.00    -0.306 N 
ATOM     21  H   UNL     1       9.797  -2.943  25.424  0.00  0.00    +0.170 HD
ATOM     22  C   UNL     1       9.384  -4.921  25.744  0.00  0.00    +0.327 A 
ATOM     23  O   UNL     1      10.426  -5.356  25.266  0.00  0.00    -0.247 OA
ATOM     24  N   UNL     1       8.420  -5.741  26.262  0.00  0.00    -0.275 N 
ATOM     25  H   UNL     1       8.600  -6.733  26.236  0.00  0.00    +0.173 HD
ATOM     26  C   UNL     1       7.245  -5.324  26.819  0.00  0.00    +0.255 A 
ATOM     27  O   UNL     1       6.412  -6.097  27.280  0.00  0.00    -0.268 OA
ATOM     28  C   UNL     1       7.012  -3.868  26.848  0.00  0.00    +0.097 A 
ENDBRANCH  18  19
ENDBRANCH  16  17
ENDBRANCH  15  16
ENDBRANCH   1  15
TORSDOF 9
ENDMDL
MODEL 6
REMARK VINA RESULT:      -5.8      2.893      7.342
REMARK  Name = 
REMARK  9 active torsions:
REMARK  status: ('A' for Active; 'I' for Inactive)
REMARK    1  A    between atoms: O_1  and  C_2
REMARK    2  A    between atoms: C_2  and  C_4
REMARK    3  A    between atoms: C_7  and  C_8
REMARK    4  A    between atoms: N_9  and  O_10
REMARK    5  A    between atoms: O_10  and  C_11
REMARK    6  A    between atoms: C_11  and  C_12
REMARK    7  A    between atoms: C_12  and  O_13
REMARK    8  A    between atoms: O_13  and  N_14
REMARK    9  A    between atoms: C_15  and  C_16
REMARK                            x       y       z     vdW  Elec       q    Type
REMARK                         _______ _______ _______ _____ _____    ______ ____
ROOT
ATOM      1  C   UNL     1       9.461  -1.790  22.655  0.00  0.00    +0.306 C 
ENDROOT
BRANCH   1   2
ATOM      2  O   UNL     1      10.255  -2.658  23.472  0.00  0.00    -0.390 OA
BRANCH   2   4
ATOM      3  C   UNL     1       8.285  -3.614  23.485  0.00  0.00    +0.160 C 
ATOM      4  N   UNL     1       9.406  -3.561  24.129  0.00  0.00    -0.092 NA
BRANCH   3   8
ATOM      5  C   UNL     1       5.135  -6.269  24.589  0.00  0.00    +0.059 A 
ATOM      6  C   UNL     1       5.429  -6.041  23.236  0.00  0.00    +0.015 A 
ATOM      7  C   UNL     1       6.475  -5.183  22.883  0.00  0.00    +0.010 A 
ATOM      8  C   UNL     1       7.208  -4.536  23.882  0.00  0.00    -0.004 A 
ATOM      9  C   UNL     1       6.920  -4.760  25.231  0.00  0.00    +0.010 A 
ATOM     10  C   UNL     1       5.883  -5.625  25.584  0.00  0.00    +0.015 A 
BRANCH   5  11
ATOM     11  C   UNL     1       4.004  -7.131  25.016  0.00  0.00    +0.337 C 
ATOM     12  O   UNL     1       3.576  -7.139  26.157  0.00  0.00    -0.245 OA
BRANCH  11  13
ATOM     13  O   UNL     1       3.517  -7.922  24.038  0.00  0.00    -0.477 OA
ATOM     14  H   UNL     1       2.822  -7.521  23.486  0.00  0.00    +0.295 HD
ENDBRANCH  11  13
ENDBRANCH   5  11
ENDBRANCH   3   8
ENDBRANCH   2   4
ENDBRANCH   1   2
BRANCH   1  15
ATOM     15  C   UNL     1       9.799  -0.324  22.909  0.00  0.00    +0.306 C 
BRANCH  15  16
ATOM     16  O   UNL     1       9.897  -0.091  24.319  0.00  0.00    -0.390 OA
BRANCH  16  17
ATOM     17  N   UNL     1      10.509   1.157  24.522  0.00  0.00    -0.091 NA
ATOM     18  C   UNL     1      10.048   1.994  23.650  0.00  0.00    +0.178 C 
BRANCH  18  19
ATOM     19  C   UNL     1      10.491   3.409  23.609  0.00  0.00    +0.070 A 
ATOM     20  N   UNL     1      11.821   3.669  23.430  0.00  0.00    -0.306 N 
ATOM     21  H   UNL     1      12.461   2.886  23.325  0.00  0.00    +0.170 HD
ATOM     22  C   UNL     1      12.346   4.928  23.389  0.00  0.00    +0.327 A 
ATOM     23  O   UNL     1      13.542   5.137  23.222  0.00  0.00    -0.247 OA
ATOM     24  N   UNL     1      11.441   5.942  23.540  0.00  0.00    -0.275 N 
ATOM     25  H   UNL     1      11.800   6.884  23.509  0.00  0.00    +0.173 HD
ATOM     26  C   UNL     1      10.096   5.781  23.717  0.00  0.00    +0.255 A 
ATOM     27  O   UNL     1       9.321   6.724  23.839  0.00  0.00    -0.268 OA
ATOM     28  C   UNL     1       9.600   4.394  23.752  0.00  0.00    +0.097 A 
ENDBRANCH  18  19
ENDBRANCH  16  17
ENDBRANCH  15  16
ENDBRANCH   1  15
TORSDOF 9
ENDMDL
MODEL 7
REMARK VINA RESULT:      -5.7      3.010      4.864
REMARK  Name = 
REMARK  9 active torsions:
REMARK  status: ('A' for Active; 'I' for Inactive)
REMARK    1  A    between atoms: O_1  and  C_2
REMARK    2  A    between atoms: C_2  and  C_4
REMARK    3  A    between atoms: C_7  and  C_8
REMARK    4  A    between atoms: N_9  and  O_10
REMARK    5  A    between atoms: O_10  and  C_11
REMARK    6  A    between atoms: C_11  and  C_12
REMARK    7  A    between atoms: C_12  and  O_13
REMARK    8  A    between atoms: O_13  and  N_14
REMARK    9  A    between atoms: C_15  and  C_16
REMARK                            x       y       z     vdW  Elec       q    Type
REMARK                         _______ _______ _______ _____ _____    ______ ____
ROOT
ATOM      1  C   UNL     1       3.931  -7.162  24.297  0.00  0.00    +0.306 C 
ENDROOT
BRANCH   1   2
ATOM      2  O   UNL     1       4.151  -7.031  25.705  0.00  0.00    -0.390 OA
BRANCH   2   4
ATOM      3  C   UNL     1       5.933  -5.774  25.898  0.00  0.00    +0.160 C 
ATOM      4  N   UNL     1       4.641  -5.744  25.968  0.00  0.00    -0.092 NA
BRANCH   3   8
ATOM      5  C   UNL     1       8.240  -2.212  26.326  0.00  0.00    +0.059 A 
ATOM      6  C   UNL     1       6.899  -2.242  26.737  0.00  0.00    +0.015 A 
ATOM      7  C   UNL     1       6.155  -3.419  26.609  0.00  0.00    +0.010 A 
ATOM      8  C   UNL     1       6.745  -4.556  26.049  0.00  0.00    -0.004 A 
ATOM      9  C   UNL     1       8.082  -4.532  25.640  0.00  0.00    +0.010 A 
ATOM     10  C   UNL     1       8.828  -3.360  25.777  0.00  0.00    +0.015 A 
BRANCH   5  11
ATOM     11  C   UNL     1       9.058  -0.976  26.393  0.00  0.00    +0.337 C 
ATOM     12  O   UNL     1       9.683  -0.546  25.439  0.00  0.00    -0.245 OA
BRANCH  11  13
ATOM     13  O   UNL     1       9.071  -0.391  27.609  0.00  0.00    -0.477 OA
ATOM     14  H   UNL     1       8.299   0.167  27.811  0.00  0.00    +0.295 HD
ENDBRANCH  11  13
ENDBRANCH   5  11
ENDBRANCH   3   8
ENDBRANCH   2   4
ENDBRANCH   1   2
BRANCH   1  15
ATOM     15  C   UNL     1       3.350  -5.881  23.703  0.00  0.00    +0.306 C 
BRANCH  15  16
ATOM     16  O   UNL     1       4.132  -5.478  22.573  0.00  0.00    -0.390 OA
BRANCH  16  17
ATOM     17  N   UNL     1       4.616  -4.181  22.807  0.00  0.00    -0.091 NA
ATOM     18  C   UNL     1       5.875  -4.146  22.510  0.00  0.00    +0.178 C 
BRANCH  18  19
ATOM     19  C   UNL     1       6.677  -2.905  22.639  0.00  0.00    +0.070 A 
ATOM     20  N   UNL     1       7.978  -2.925  22.221  0.00  0.00    -0.306 N 
ATOM     21  H   UNL     1       8.352  -3.786  21.831  0.00  0.00    +0.170 HD
ATOM     22  C   UNL     1       8.814  -1.849  22.302  0.00  0.00    +0.327 A 
ATOM     23  O   UNL     1       9.976  -1.889  21.915  0.00  0.00    -0.247 OA
ATOM     24  N   UNL     1       8.261  -0.719  22.838  0.00  0.00    -0.275 N 
ATOM     25  H   UNL     1       8.854   0.093  22.906  0.00  0.00    +0.173 HD
ATOM     26  C   UNL     1       6.972  -0.602  23.276  0.00  0.00    +0.255 A 
ATOM     27  O   UNL     1       6.517   0.437  23.742  0.00  0.00    -0.268 OA
ATOM     28  C   UNL     1       6.127  -1.804  23.159  0.00  0.00    +0.097 A 
ENDBRANCH  18  19
ENDBRANCH  16  17
ENDBRANCH  15  16
ENDBRANCH   1  15
TORSDOF 9
ENDMDL
MODEL 8
REMARK VINA RESULT:      -5.7      2.741      6.685
REMARK  Name = 
REMARK  9 active torsions:
REMARK  status: ('A' for Active; 'I' for Inactive)
REMARK    1  A    between atoms: O_1  and  C_2
REMARK    2  A    between atoms: C_2  and  C_4
REMARK    3  A    between atoms: C_7  and  C_8
REMARK    4  A    between atoms: N_9  and  O_10
REMARK    5  A    between atoms: O_10  and  C_11
REMARK    6  A    between atoms: C_11  and  C_12
REMARK    7  A    between atoms: C_12  and  O_13
REMARK    8  A    between atoms: O_13  and  N_14
REMARK    9  A    between atoms: C_15  and  C_16
REMARK                            x       y       z     vdW  Elec       q    Type
REMARK                         _______ _______ _______ _____ _____    ______ ____
ROOT
ATOM      1  C   UNL     1      10.165   0.264  22.983  0.00  0.00    +0.306 C 
ENDROOT
BRANCH   1   2
ATOM      2  O   UNL     1      10.121  -0.818  22.048  0.00  0.00    -0.390 OA
BRANCH   2   4
ATOM      3  C   UNL     1       8.261  -1.961  22.203  0.00  0.00    +0.160 C 
ATOM      4  N   UNL     1       9.474  -1.908  22.648  0.00  0.00    -0.092 NA
BRANCH   3   8
ATOM      5  C   UNL     1       5.564  -5.068  23.331  0.00  0.00    +0.059 A 
ATOM      6  C   UNL     1       5.076  -3.855  22.820  0.00  0.00    +0.015 A 
ATOM      7  C   UNL     1       5.967  -2.849  22.437  0.00  0.00    +0.010 A 
ATOM      8  C   UNL     1       7.343  -3.046  22.586  0.00  0.00    -0.004 A 
ATOM      9  C   UNL     1       7.835  -4.253  23.093  0.00  0.00    +0.010 A 
ATOM     10  C   UNL     1       6.945  -5.262  23.466  0.00  0.00    +0.015 A 
BRANCH   5  11
ATOM     11  C   UNL     1       4.660  -6.148  23.799  0.00  0.00    +0.337 C 
ATOM     12  O   UNL     1       4.709  -6.605  24.927  0.00  0.00    -0.245 OA
BRANCH  11  13
ATOM     13  O   UNL     1       3.804  -6.594  22.857  0.00  0.00    -0.477 OA
ATOM     14  H   UNL     1       3.056  -7.120  23.190  0.00  0.00    +0.295 HD
ENDBRANCH  11  13
ENDBRANCH   5  11
ENDBRANCH   3   8
ENDBRANCH   2   4
ENDBRANCH   1   2
BRANCH   1  15
ATOM     15  C   UNL     1      10.180  -0.245  24.422  0.00  0.00    +0.306 C 
BRANCH  15  16
ATOM     16  O   UNL     1       9.234   0.495  25.203  0.00  0.00    -0.390 OA
BRANCH  16  17
ATOM     17  N   UNL     1       8.130  -0.332  25.464  0.00  0.00    -0.091 NA
ATOM     18  C   UNL     1       8.557  -1.474  25.898  0.00  0.00    +0.178 C 
BRANCH  18  19
ATOM     19  C   UNL     1       7.628  -2.567  26.275  0.00  0.00    +0.070 A 
ATOM     20  N   UNL     1       6.285  -2.361  26.124  0.00  0.00    -0.306 N 
ATOM     21  H   UNL     1       5.967  -1.470  25.754  0.00  0.00    +0.170 HD
ATOM     22  C   UNL     1       5.338  -3.289  26.448  0.00  0.00    +0.327 A 
ATOM     23  O   UNL     1       4.139  -3.084  26.299  0.00  0.00    -0.247 OA
ATOM     24  N   UNL     1       5.822  -4.467  26.946  0.00  0.00    -0.275 N 
ATOM     25  H   UNL     1       5.144  -5.173  27.190  0.00  0.00    +0.173 HD
ATOM     26  C   UNL     1       7.142  -4.766  27.126  0.00  0.00    +0.255 A 
ATOM     27  O   UNL     1       7.529  -5.843  27.568  0.00  0.00    -0.268 OA
ATOM     28  C   UNL     1       8.109  -3.718  26.754  0.00  0.00    +0.097 A 
ENDBRANCH  18  19
ENDBRANCH  16  17
ENDBRANCH  15  16
ENDBRANCH   1  15
TORSDOF 9
ENDMDL
MODEL 9
REMARK VINA RESULT:      -5.6      3.409      5.585
REMARK  Name = 
REMARK  9 active torsions:
REMARK  status: ('A' for Active; 'I' for Inactive)
REMARK    1  A    between atoms: O_1  and  C_2
REMARK    2  A    between atoms: C_2  and  C_4
REMARK    3  A    between atoms: C_7  and  C_8
REMARK    4  A    between atoms: N_9  and  O_10
REMARK    5  A    between atoms: O_10  and  C_11
REMARK    6  A    between atoms: C_11  and  C_12
REMARK    7  A    between atoms: C_12  and  O_13
REMARK    8  A    between atoms: O_13  and  N_14
REMARK    9  A    between atoms: C_15  and  C_16
REMARK                            x       y       z     vdW  Elec       q    Type
REMARK                         _______ _______ _______ _____ _____    ______ ____
ROOT
ATOM      1  C   UNL     1       7.791  -4.206  23.857  0.00  0.00    +0.306 C 
ENDROOT
BRANCH   1   2
ATOM      2  O   UNL     1       9.217  -4.084  23.864  0.00  0.00    -0.390 OA
BRANCH   2   4
ATOM      3  C   UNL     1       9.622  -2.052  23.157  0.00  0.00    +0.160 C 
ATOM      4  N   UNL     1       9.556  -2.773  24.229  0.00  0.00    -0.092 NA
BRANCH   3   8
ATOM      5  C   UNL     1      10.354   2.144  23.368  0.00  0.00    +0.059 A 
ATOM      6  C   UNL     1      10.426   1.353  24.524  0.00  0.00    +0.015 A 
ATOM      7  C   UNL     1      10.202  -0.025  24.443  0.00  0.00    +0.010 A 
ATOM      8  C   UNL     1       9.883  -0.605  23.212  0.00  0.00    -0.004 A 
ATOM      9  C   UNL     1       9.811   0.180  22.057  0.00  0.00    +0.010 A 
ATOM     10  C   UNL     1      10.045   1.553  22.136  0.00  0.00    +0.015 A 
BRANCH   5  11
ATOM     11  C   UNL     1      10.534   3.617  23.409  0.00  0.00    +0.337 C 
ATOM     12  O   UNL     1       9.752   4.361  23.975  0.00  0.00    -0.245 OA
BRANCH  11  13
ATOM     13  O   UNL     1      11.619   4.057  22.740  0.00  0.00    -0.477 OA
ATOM     14  H   UNL     1      11.440   4.450  21.867  0.00  0.00    +0.295 HD
ENDBRANCH  11  13
ENDBRANCH   5  11
ENDBRANCH   3   8
ENDBRANCH   2   4
ENDBRANCH   1   2
BRANCH   1  15
ATOM     15  C   UNL     1       7.307  -4.994  22.641  0.00  0.00    +0.306 C 
BRANCH  15  16
ATOM     16  O   UNL     1       6.042  -5.598  22.933  0.00  0.00    -0.390 OA
BRANCH  16  17
ATOM     17  N   UNL     1       5.858  -5.594  24.325  0.00  0.00    -0.091 NA
ATOM     18  C   UNL     1       4.885  -6.393  24.620  0.00  0.00    +0.178 C 
BRANCH  18  19
ATOM     19  C   UNL     1       4.451  -6.619  26.020  0.00  0.00    +0.070 A 
ATOM     20  N   UNL     1       5.406  -6.870  26.965  0.00  0.00    -0.306 N 
ATOM     21  H   UNL     1       6.381  -6.890  26.679  0.00  0.00    +0.170 HD
ATOM     22  C   UNL     1       5.125  -7.104  28.280  0.00  0.00    +0.327 A 
ATOM     23  O   UNL     1       5.999  -7.323  29.110  0.00  0.00    -0.247 OA
ATOM     24  N   UNL     1       3.798  -7.071  28.607  0.00  0.00    -0.275 N 
ATOM     25  H   UNL     1       3.561  -7.236  29.574  0.00  0.00    +0.173 HD
ATOM     26  C   UNL     1       2.775  -6.821  27.737  0.00  0.00    +0.255 A 
ATOM     27  O   UNL     1       1.598  -6.792  28.080  0.00  0.00    -0.268 OA
ATOM     28  C   UNL     1       3.153  -6.578  26.333  0.00  0.00    +0.097 A 
ENDBRANCH  18  19
ENDBRANCH  16  17
ENDBRANCH  15  16
ENDBRANCH   1  15
TORSDOF 9
ENDMDL
