MODEL 1
REMARK VINA RESULT:      -6.8      0.000      0.000
REMARK  Name = 
REMARK  4 active torsions:
REMARK  status: ('A' for Active; 'I' for Inactive)
REMARK    1  A    between atoms: O_1  and  C_2
REMARK    2  A    between atoms: C_2  and  C_4
REMARK    3  A    between atoms: C_11  and  C_12
REMARK    4  A    between atoms: C_12  and  C_14
REMARK                            x       y       z     vdW  Elec       q    Type
REMARK                         _______ _______ _______ _____ _____    ______ ____
ROOT
ATOM      1  C   UNL     1       6.411  -4.643  25.440  0.00  0.00    +0.146 C 
ATOM      2  C   UNL     1       7.295  -3.457  25.565  0.00  0.00    +0.033 A 
ATOM      3  C   UNL     1       7.572  -2.457  26.456  0.00  0.00    +0.024 A 
ATOM      4  C   UNL     1       8.612  -1.689  25.861  0.00  0.00    +0.031 A 
ATOM      5  C   UNL     1       8.941  -2.246  24.623  0.00  0.00    +0.090 A 
ATOM      6  N   UNL     1       8.066  -3.276  24.458  0.00  0.00    -0.340 N 
ATOM      7  C   UNL     1       7.846  -4.273  23.427  0.00  0.00    +0.123 C 
ATOM      8  C   UNL     1       6.716  -5.154  24.008  0.00  0.00    +0.042 C 
ENDROOT
BRANCH   1   9
ATOM      9  C   UNL     1       6.681  -5.729  26.472  0.00  0.00    +0.314 C 
ATOM     10  O   UNL     1       5.806  -6.483  26.877  0.00  0.00    -0.250 OA
BRANCH   9  11
ATOM     11  O   UNL     1       7.967  -5.875  26.866  0.00  0.00    -0.480 OA
ATOM     12  H   UNL     1       8.469  -6.533  26.346  0.00  0.00    +0.295 HD
ENDBRANCH   9  11
ENDBRANCH   1   9
BRANCH   5  13
ATOM     13  C   UNL     1       9.948  -1.834  23.656  0.00  0.00    +0.209 C 
ATOM     14  O   UNL     1      10.723  -2.629  23.129  0.00  0.00    -0.285 OA
BRANCH  13  15
ATOM     15  C   UNL     1      10.082  -0.384  23.319  0.00  0.00    +0.024 A 
ATOM     16  C   UNL     1       9.616   0.120  22.095  0.00  0.00    +0.012 A 
ATOM     17  C   UNL     1       9.664   1.491  21.831  0.00  0.00    +0.001 A 
ATOM     18  C   UNL     1      10.173   2.367  22.788  0.00  0.00    +0.000 A 
ATOM     19  C   UNL     1      10.647   1.873  24.004  0.00  0.00    +0.001 A 
ATOM     20  C   UNL     1      10.599   0.502  24.272  0.00  0.00    +0.012 A 
ENDBRANCH  13  15
ENDBRANCH   5  13
TORSDOF 4
ENDMDL
MODEL 2
REMARK VINA RESULT:      -6.8      1.665      2.291
REMARK  Name = 
REMARK  4 active torsions:
REMARK  status: ('A' for Active; 'I' for Inactive)
REMARK    1  A    between atoms: O_1  and  C_2
REMARK    2  A    between atoms: C_2  and  C_4
REMARK    3  A    between atoms: C_11  and  C_12
REMARK    4  A    between atoms: C_12  and  C_14
REMARK                            x       y       z     vdW  Elec       q    Type
REMARK                         _______ _______ _______ _____ _____    ______ ____
ROOT
ATOM      1  C   UNL     1       5.113  -5.636  23.311  0.00  0.00    +0.146 C 
ATOM      2  C   UNL     1       5.805  -4.471  23.917  0.00  0.00    +0.033 A 
ATOM      3  C   UNL     1       5.549  -3.447  24.788  0.00  0.00    +0.024 A 
ATOM      4  C   UNL     1       6.772  -2.731  24.909  0.00  0.00    +0.031 A 
ATOM      5  C   UNL     1       7.741  -3.341  24.110  0.00  0.00    +0.090 A 
ATOM      6  N   UNL     1       7.087  -4.351  23.474  0.00  0.00    -0.340 N 
ATOM      7  C   UNL     1       7.471  -5.379  22.525  0.00  0.00    +0.123 C 
ATOM      8  C   UNL     1       6.179  -6.207  22.340  0.00  0.00    +0.042 C 
ENDROOT
BRANCH   1   9
ATOM      9  C   UNL     1       4.676  -6.690  24.318  0.00  0.00    +0.314 C 
ATOM     10  O   UNL     1       5.021  -6.659  25.493  0.00  0.00    -0.250 OA
BRANCH   9  11
ATOM     11  O   UNL     1       3.813  -7.630  23.868  0.00  0.00    -0.480 OA
ATOM     12  H   UNL     1       4.156  -8.543  23.924  0.00  0.00    +0.295 HD
ENDBRANCH   9  11
ENDBRANCH   1   9
BRANCH   5  13
ATOM     13  C   UNL     1       9.141  -2.992  23.916  0.00  0.00    +0.209 C 
ATOM     14  O   UNL     1      10.061  -3.711  24.301  0.00  0.00    -0.285 OA
BRANCH  13  15
ATOM     15  C   UNL     1       9.483  -1.690  23.267  0.00  0.00    +0.024 A 
ATOM     16  C   UNL     1       9.134  -1.434  21.933  0.00  0.00    +0.012 A 
ATOM     17  C   UNL     1       9.377  -0.180  21.367  0.00  0.00    +0.001 A 
ATOM     18  C   UNL     1       9.967   0.826  22.130  0.00  0.00    +0.000 A 
ATOM     19  C   UNL     1      10.326   0.577  23.455  0.00  0.00    +0.001 A 
ATOM     20  C   UNL     1      10.083  -0.677  24.026  0.00  0.00    +0.012 A 
ENDBRANCH  13  15
ENDBRANCH   5  13
TORSDOF 4
ENDMDL
MODEL 3
REMARK VINA RESULT:      -6.5      2.265      2.818
REMARK  Name = 
REMARK  4 active torsions:
REMARK  status: ('A' for Active; 'I' for Inactive)
REMARK    1  A    between atoms: O_1  and  C_2
REMARK    2  A    between atoms: C_2  and  C_4
REMARK    3  A    between atoms: C_11  and  C_12
REMARK    4  A    between atoms: C_12  and  C_14
REMARK                            x       y       z     vdW  Elec       q    Type
REMARK                         _______ _______ _______ _____ _____    ______ ____
ROOT
ATOM      1  C   UNL     1       5.777  -4.579  23.662  0.00  0.00    +0.146 C 
ATOM      2  C   UNL     1       7.157  -4.233  24.090  0.00  0.00    +0.033 A 
ATOM      3  C   UNL     1       8.376  -4.831  24.252  0.00  0.00    +0.024 A 
ATOM      4  C   UNL     1       9.259  -3.797  24.671  0.00  0.00    +0.031 A 
ATOM      5  C   UNL     1       8.552  -2.596  24.750  0.00  0.00    +0.090 A 
ATOM      6  N   UNL     1       7.265  -2.925  24.455  0.00  0.00    -0.340 N 
ATOM      7  C   UNL     1       6.022  -2.186  24.341  0.00  0.00    +0.123 C 
ATOM      8  C   UNL     1       5.002  -3.255  23.884  0.00  0.00    +0.042 C 
ENDROOT
BRANCH   1   9
ATOM      9  C   UNL     1       5.674  -5.032  22.213  0.00  0.00    +0.314 C 
ATOM     10  O   UNL     1       5.746  -4.250  21.274  0.00  0.00    -0.250 OA
BRANCH   9  11
ATOM     11  O   UNL     1       5.579  -6.366  22.006  0.00  0.00    -0.480 OA
ATOM     12  H   UNL     1       4.702  -6.740  22.224  0.00  0.00    +0.295 HD
ENDBRANCH   9  11
ENDBRANCH   1   9
BRANCH   5  13
ATOM     13  C   UNL     1       9.018  -1.264  25.111  0.00  0.00    +0.209 C 
ATOM     14  O   UNL     1       9.059  -0.872  26.275  0.00  0.00    -0.285 OA
BRANCH  13  15
ATOM     15  C   UNL     1       9.421  -0.316  24.028  0.00  0.00    +0.024 A 
ATOM     16  C   UNL     1       9.303  -0.671  22.676  0.00  0.00    +0.012 A 
ATOM     17  C   UNL     1       9.596   0.257  21.673  0.00  0.00    +0.001 A 
ATOM     18  C   UNL     1      10.004   1.545  22.015  0.00  0.00    +0.000 A 
ATOM     19  C   UNL     1      10.133   1.903  23.358  0.00  0.00    +0.001 A 
ATOM     20  C   UNL     1       9.839   0.977  24.364  0.00  0.00    +0.012 A 
ENDBRANCH  13  15
ENDBRANCH   5  13
TORSDOF 4
ENDMDL
MODEL 4
REMARK VINA RESULT:      -6.5      2.442      6.156
REMARK  Name = 
REMARK  4 active torsions:
REMARK  status: ('A' for Active; 'I' for Inactive)
REMARK    1  A    between atoms: O_1  and  C_2
REMARK    2  A    between atoms: C_2  and  C_4
REMARK    3  A    between atoms: C_11  and  C_12
REMARK    4  A    between atoms: C_12  and  C_14
REMARK                            x       y       z     vdW  Elec       q    Type
REMARK                         _______ _______ _______ _____ _____    ______ ____
ROOT
ATOM      1  C   UNL     1       9.360   0.897  22.588  0.00  0.00    +0.146 C 
ATOM      2  C   UNL     1       9.186  -0.055  23.715  0.00  0.00    +0.033 A 
ATOM      3  C   UNL     1       9.039  -0.040  25.075  0.00  0.00    +0.024 A 
ATOM      4  C   UNL     1       8.878  -1.401  25.459  0.00  0.00    +0.031 A 
ATOM      5  C   UNL     1       8.929  -2.206  24.320  0.00  0.00    +0.090 A 
ATOM      6  N   UNL     1       9.187  -1.350  23.294  0.00  0.00    -0.340 N 
ATOM      7  C   UNL     1       9.355  -1.494  21.861  0.00  0.00    +0.123 C 
ATOM      8  C   UNL     1       9.538  -0.041  21.366  0.00  0.00    +0.042 C 
ENDROOT
BRANCH   1   9
ATOM      9  C   UNL     1       8.180   1.836  22.384  0.00  0.00    +0.314 C 
ATOM     10  O   UNL     1       7.022   1.488  22.575  0.00  0.00    -0.250 OA
BRANCH   9  11
ATOM     11  O   UNL     1       8.480   3.114  22.055  0.00  0.00    -0.480 OA
ATOM     12  H   UNL     1       7.721   3.727  22.111  0.00  0.00    +0.295 HD
ENDBRANCH   9  11
ENDBRANCH   1   9
BRANCH   5  13
ATOM     13  C   UNL     1       8.795  -3.651  24.196  0.00  0.00    +0.209 C 
ATOM     14  O   UNL     1       9.667  -4.430  24.576  0.00  0.00    -0.285 OA
BRANCH  13  15
ATOM     15  C   UNL     1       7.576  -4.215  23.542  0.00  0.00    +0.024 A 
ATOM     16  C   UNL     1       7.622  -5.440  22.860  0.00  0.00    +0.012 A 
ATOM     17  C   UNL     1       6.455  -6.000  22.333  0.00  0.00    +0.001 A 
ATOM     18  C   UNL     1       5.236  -5.343  22.487  0.00  0.00    +0.000 A 
ATOM     19  C   UNL     1       5.183  -4.119  23.156  0.00  0.00    +0.001 A 
ATOM     20  C   UNL     1       6.348  -3.557  23.686  0.00  0.00    +0.012 A 
ENDBRANCH  13  15
ENDBRANCH   5  13
TORSDOF 4
ENDMDL
MODEL 5
REMARK VINA RESULT:      -6.5      2.468      6.184
REMARK  Name = 
REMARK  4 active torsions:
REMARK  status: ('A' for Active; 'I' for Inactive)
REMARK    1  A    between atoms: O_1  and  C_2
REMARK    2  A    between atoms: C_2  and  C_4
REMARK    3  A    between atoms: C_11  and  C_12
REMARK    4  A    between atoms: C_12  and  C_14
REMARK                            x       y       z     vdW  Elec       q    Type
REMARK                         _______ _______ _______ _____ _____    ______ ____
ROOT
ATOM      1  C   UNL     1       9.340   1.107  22.427  0.00  0.00    +0.146 C 
ATOM      2  C   UNL     1       9.237   0.196  23.596  0.00  0.00    +0.033 A 
ATOM      3  C   UNL     1       9.170   0.260  24.960  0.00  0.00    +0.024 A 
ATOM      4  C   UNL     1       9.037  -1.086  25.402  0.00  0.00    +0.031 A 
ATOM      5  C   UNL     1       9.024  -1.932  24.293  0.00  0.00    +0.090 A 
ATOM      6  N   UNL     1       9.218  -1.113  23.223  0.00  0.00    -0.340 N 
ATOM      7  C   UNL     1       9.301  -1.309  21.788  0.00  0.00    +0.123 C 
ATOM      8  C   UNL     1       9.449   0.126  21.231  0.00  0.00    +0.042 C 
ENDROOT
BRANCH   1   9
ATOM      9  C   UNL     1       8.146   2.036  22.259  0.00  0.00    +0.314 C 
ATOM     10  O   UNL     1       6.993   1.627  22.238  0.00  0.00    -0.250 OA
BRANCH   9  11
ATOM     11  O   UNL     1       8.419   3.360  22.214  0.00  0.00    -0.480 OA
ATOM     12  H   UNL     1       9.334   3.586  22.472  0.00  0.00    +0.295 HD
ENDBRANCH   9  11
ENDBRANCH   1   9
BRANCH   5  13
ATOM     13  C   UNL     1       8.889  -3.381  24.230  0.00  0.00    +0.209 C 
ATOM     14  O   UNL     1       9.804  -4.144  24.533  0.00  0.00    -0.285 OA
BRANCH  13  15
ATOM     15  C   UNL     1       7.608  -3.971  23.735  0.00  0.00    +0.024 A 
ATOM     16  C   UNL     1       6.419  -3.226  23.741  0.00  0.00    +0.012 A 
ATOM     17  C   UNL     1       5.250  -3.757  23.191  0.00  0.00    +0.001 A 
ATOM     18  C   UNL     1       5.261  -5.033  22.630  0.00  0.00    +0.000 A 
ATOM     19  C   UNL     1       6.437  -5.784  22.629  0.00  0.00    +0.001 A 
ATOM     20  C   UNL     1       7.610  -5.255  23.177  0.00  0.00    +0.012 A 
ENDBRANCH  13  15
ENDBRANCH   5  13
TORSDOF 4
ENDMDL
MODEL 6
REMARK VINA RESULT:      -6.4      2.031      2.579
REMARK  Name = 
REMARK  4 active torsions:
REMARK  status: ('A' for Active; 'I' for Inactive)
REMARK    1  A    between atoms: O_1  and  C_2
REMARK    2  A    between atoms: C_2  and  C_4
REMARK    3  A    between atoms: C_11  and  C_12
REMARK    4  A    between atoms: C_12  and  C_14
REMARK                            x       y       z     vdW  Elec       q    Type
REMARK                         _______ _______ _______ _____ _____    ______ ____
ROOT
ATOM      1  C   UNL     1       5.977  -4.629  23.461  0.00  0.00    +0.146 C 
ATOM      2  C   UNL     1       7.325  -4.213  23.925  0.00  0.00    +0.033 A 
ATOM      3  C   UNL     1       8.281  -4.602  24.823  0.00  0.00    +0.024 A 
ATOM      4  C   UNL     1       9.363  -3.694  24.650  0.00  0.00    +0.031 A 
ATOM      5  C   UNL     1       9.036  -2.779  23.648  0.00  0.00    +0.090 A 
ATOM      6  N   UNL     1       7.762  -3.092  23.287  0.00  0.00    -0.340 N 
ATOM      7  C   UNL     1       6.818  -2.573  22.315  0.00  0.00    +0.123 C 
ATOM      8  C   UNL     1       5.601  -3.518  22.446  0.00  0.00    +0.042 C 
ENDROOT
BRANCH   1   9
ATOM      9  C   UNL     1       5.944  -6.000  22.802  0.00  0.00    +0.314 C 
ATOM     10  O   UNL     1       6.804  -6.371  22.015  0.00  0.00    -0.250 OA
BRANCH   9  11
ATOM     11  O   UNL     1       4.951  -6.831  23.195  0.00  0.00    -0.480 OA
ATOM     12  H   UNL     1       5.006  -7.726  22.807  0.00  0.00    +0.295 HD
ENDBRANCH   9  11
ENDBRANCH   1   9
BRANCH   5  13
ATOM     13  C   UNL     1       9.819  -1.679  23.101  0.00  0.00    +0.209 C 
ATOM     14  O   UNL     1      10.728  -1.853  22.292  0.00  0.00    -0.285 OA
BRANCH  13  15
ATOM     15  C   UNL     1       9.543  -0.287  23.571  0.00  0.00    +0.024 A 
ATOM     16  C   UNL     1       8.710  -0.047  24.673  0.00  0.00    +0.012 A 
ATOM     17  C   UNL     1       8.535   1.252  25.158  0.00  0.00    +0.001 A 
ATOM     18  C   UNL     1       9.193   2.317  24.547  0.00  0.00    +0.000 A 
ATOM     19  C   UNL     1      10.017   2.089  23.444  0.00  0.00    +0.001 A 
ATOM     20  C   UNL     1      10.196   0.790  22.957  0.00  0.00    +0.012 A 
ENDBRANCH  13  15
ENDBRANCH   5  13
TORSDOF 4
ENDMDL
MODEL 7
REMARK VINA RESULT:      -6.4      3.004      5.091
REMARK  Name = 
REMARK  4 active torsions:
REMARK  status: ('A' for Active; 'I' for Inactive)
REMARK    1  A    between atoms: O_1  and  C_2
REMARK    2  A    between atoms: C_2  and  C_4
REMARK    3  A    between atoms: C_11  and  C_12
REMARK    4  A    between atoms: C_12  and  C_14
REMARK                            x       y       z     vdW  Elec       q    Type
REMARK                         _______ _______ _______ _____ _____    ______ ____
ROOT
ATOM      1  C   UNL     1       9.876  -1.274  24.169  0.00  0.00    +0.146 C 
ATOM      2  C   UNL     1       9.521  -0.336  23.073  0.00  0.00    +0.033 A 
ATOM      3  C   UNL     1       9.776  -0.147  21.743  0.00  0.00    +0.024 A 
ATOM      4  C   UNL     1       9.008   0.988  21.362  0.00  0.00    +0.031 A 
ATOM      5  C   UNL     1       8.303   1.458  22.472  0.00  0.00    +0.090 A 
ATOM      6  N   UNL     1       8.701   0.663  23.503  0.00  0.00    -0.340 N 
ATOM      7  C   UNL     1       8.372   0.578  24.913  0.00  0.00    +0.123 C 
ATOM      8  C   UNL     1       9.179  -0.646  25.403  0.00  0.00    +0.042 C 
ENDROOT
BRANCH   1   9
ATOM      9  C   UNL     1       9.398  -2.701  23.942  0.00  0.00    +0.314 C 
ATOM     10  O   UNL     1      10.074  -3.676  24.244  0.00  0.00    -0.250 OA
BRANCH   9  11
ATOM     11  O   UNL     1       8.142  -2.843  23.461  0.00  0.00    -0.480 OA
ATOM     12  H   UNL     1       7.917  -3.759  23.203  0.00  0.00    +0.295 HD
ENDBRANCH   9  11
ENDBRANCH   1   9
BRANCH   5  13
ATOM     13  C   UNL     1       7.375   2.575  22.580  0.00  0.00    +0.209 C 
ATOM     14  O   UNL     1       6.167   2.450  22.389  0.00  0.00    -0.285 OA
BRANCH  13  15
ATOM     15  C   UNL     1       7.908   3.936  22.889  0.00  0.00    +0.024 A 
ATOM     16  C   UNL     1       9.063   4.100  23.669  0.00  0.00    +0.012 A 
ATOM     17  C   UNL     1       9.602   5.373  23.874  0.00  0.00    +0.001 A 
ATOM     18  C   UNL     1       8.995   6.487  23.299  0.00  0.00    +0.000 A 
ATOM     19  C   UNL     1       7.841   6.334  22.529  0.00  0.00    +0.001 A 
ATOM     20  C   UNL     1       7.299   5.061  22.321  0.00  0.00    +0.012 A 
ENDBRANCH  13  15
ENDBRANCH   5  13
TORSDOF 4
ENDMDL
MODEL 8
REMARK VINA RESULT:      -6.3      2.606      6.511
REMARK  Name = 
REMARK  4 active torsions:
REMARK  status: ('A' for Active; 'I' for Inactive)
REMARK    1  A    between atoms: O_1  and  C_2
REMARK    2  A    between atoms: C_2  and  C_4
REMARK    3  A    between atoms: C_11  and  C_12
REMARK    4  A    between atoms: C_12  and  C_14
REMARK                            x       y       z     vdW  Elec       q    Type
REMARK                         _______ _______ _______ _____ _____    ______ ____
ROOT
ATOM      1  C   UNL     1       9.895   1.735  24.180  0.00  0.00    +0.146 C 
ATOM      2  C   UNL     1       8.679   0.979  23.789  0.00  0.00    +0.033 A 
ATOM      3  C   UNL     1       7.382   1.212  23.423  0.00  0.00    +0.024 A 
ATOM      4  C   UNL     1       6.822  -0.067  23.150  0.00  0.00    +0.031 A 
ATOM      5  C   UNL     1       7.797  -1.045  23.355  0.00  0.00    +0.090 A 
ATOM      6  N   UNL     1       8.886  -0.367  23.809  0.00  0.00    -0.340 N 
ATOM      7  C   UNL     1      10.231  -0.741  24.202  0.00  0.00    +0.123 C 
ATOM      8  C   UNL     1      10.909   0.612  24.519  0.00  0.00    +0.042 C 
ENDROOT
BRANCH   1   9
ATOM      9  C   UNL     1      10.437   2.644  23.086  0.00  0.00    +0.314 C 
ATOM     10  O   UNL     1      11.091   3.649  23.330  0.00  0.00    -0.250 OA
BRANCH   9  11
ATOM     11  O   UNL     1      10.229   2.239  21.812  0.00  0.00    -0.480 OA
ATOM     12  H   UNL     1      10.590   2.847  21.137  0.00  0.00    +0.295 HD
ENDBRANCH   9  11
ENDBRANCH   1   9
BRANCH   5  13
ATOM     13  C   UNL     1       7.714  -2.490  23.188  0.00  0.00    +0.209 C 
ATOM     14  O   UNL     1       7.560  -3.020  22.090  0.00  0.00    -0.285 OA
BRANCH  13  15
ATOM     15  C   UNL     1       7.772  -3.366  24.397  0.00  0.00    +0.024 A 
ATOM     16  C   UNL     1       8.594  -4.502  24.428  0.00  0.00    +0.012 A 
ATOM     17  C   UNL     1       8.709  -5.260  25.596  0.00  0.00    +0.001 A 
ATOM     18  C   UNL     1       8.007  -4.886  26.740  0.00  0.00    +0.000 A 
ATOM     19  C   UNL     1       7.180  -3.762  26.716  0.00  0.00    +0.001 A 
ATOM     20  C   UNL     1       7.064  -3.000  25.549  0.00  0.00    +0.012 A 
ENDBRANCH  13  15
ENDBRANCH   5  13
TORSDOF 4
ENDMDL
MODEL 9
REMARK VINA RESULT:      -6.2      1.664      2.059
REMARK  Name = 
REMARK  4 active torsions:
REMARK  status: ('A' for Active; 'I' for Inactive)
REMARK    1  A    between atoms: O_1  and  C_2
REMARK    2  A    between atoms: C_2  and  C_4
REMARK    3  A    between atoms: C_11  and  C_12
REMARK    4  A    between atoms: C_12  and  C_14
REMARK                            x       y       z     vdW  Elec       q    Type
REMARK                         _______ _______ _______ _____ _____    ______ ____
ROOT
ATOM      1  C   UNL     1       7.735  -4.071  25.480  0.00  0.00    +0.146 C 
ATOM      2  C   UNL     1       7.805  -2.630  25.831  0.00  0.00    +0.033 A 
ATOM      3  C   UNL     1       7.251  -1.748  26.717  0.00  0.00    +0.024 A 
ATOM      4  C   UNL     1       7.878  -0.497  26.457  0.00  0.00    +0.031 A 
ATOM      5  C   UNL     1       8.800  -0.654  25.421  0.00  0.00    +0.090 A 
ATOM      6  N   UNL     1       8.670  -1.951  25.028  0.00  0.00    -0.340 N 
ATOM      7  C   UNL     1       9.311  -2.785  24.029  0.00  0.00    +0.123 C 
ATOM      8  C   UNL     1       8.674  -4.176  24.251  0.00  0.00    +0.042 C 
ENDROOT
BRANCH   1   9
ATOM      9  C   UNL     1       8.192  -5.003  26.593  0.00  0.00    +0.314 C 
ATOM     10  O   UNL     1       7.483  -5.899  27.033  0.00  0.00    -0.250 OA
BRANCH   9  11
ATOM     11  O   UNL     1       9.465  -4.844  27.023  0.00  0.00    -0.480 OA
ATOM     12  H   UNL     1       9.879  -4.006  26.737  0.00  0.00    +0.295 HD
ENDBRANCH   9  11
ENDBRANCH   1   9
BRANCH   5  13
ATOM     13  C   UNL     1       9.695   0.322  24.816  0.00  0.00    +0.209 C 
ATOM     14  O   UNL     1      10.900   0.354  25.059  0.00  0.00    -0.285 OA
BRANCH  13  15
ATOM     15  C   UNL     1       9.128   1.358  23.899  0.00  0.00    +0.024 A 
ATOM     16  C   UNL     1       8.459   0.992  22.722  0.00  0.00    +0.012 A 
ATOM     17  C   UNL     1       7.854   1.965  21.922  0.00  0.00    +0.001 A 
ATOM     18  C   UNL     1       7.911   3.307  22.294  0.00  0.00    +0.000 A 
ATOM     19  C   UNL     1       8.582   3.680  23.459  0.00  0.00    +0.001 A 
ATOM     20  C   UNL     1       9.187   2.709  24.264  0.00  0.00    +0.012 A 
ENDBRANCH  13  15
ENDBRANCH   5  13
TORSDOF 4
ENDMDL
