MODEL 1
REMARK VINA RESULT:      -6.1      0.000      0.000
REMARK  Name = 
REMARK  13 active torsions:
REMARK  status: ('A' for Active; 'I' for Inactive)
REMARK    1  A    between atoms: C_1  and  O_2
REMARK    2  A    between atoms: O_2  and  C_3
REMARK    3  A    between atoms: C_4  and  O_5
REMARK    4  A    between atoms: C_8  and  C_9
REMARK    5  A    between atoms: C_9  and  N_10
REMARK    6  A    between atoms: C_11  and  C_13
REMARK    7  A    between atoms: C_13  and  C_14
REMARK    8  A    between atoms: C_14  and  C_15
REMARK    9  A    between atoms: C_15  and  C_16
REMARK   10  A    between atoms: C_16  and  C_17
REMARK   11  A    between atoms: C_18  and  C_19
REMARK   12  A    between atoms: C_19  and  C_20
REMARK   13  A    between atoms: C_19  and  C_21
REMARK                            x       y       z     vdW  Elec       q    Type
REMARK                         _______ _______ _______ _____ _____    ______ ____
ROOT
ATOM      1  N   UNL     1       8.448  -2.905  25.019  0.00  0.00    -0.311 N 
ATOM      2  H   UNL     1       7.667  -2.310  24.779  0.00  0.00    +0.149 HD
ATOM      3  C   UNL     1       8.369  -3.741  26.105  0.00  0.00    +0.213 C 
ATOM      4  O   UNL     1       9.262  -4.523  26.425  0.00  0.00    -0.276 OA
ENDROOT
BRANCH   1   5
ATOM      5  C   UNL     1       9.618  -2.870  24.180  0.00  0.00    +0.139 C 
BRANCH   5   8
ATOM      6  C   UNL     1       9.975   0.843  23.452  0.00  0.00    +0.162 A 
ATOM      7  C   UNL     1       9.993  -0.384  24.113  0.00  0.00    +0.054 A 
ATOM      8  C   UNL     1       9.734  -1.575  23.416  0.00  0.00    -0.027 A 
ATOM      9  C   UNL     1       9.498  -1.521  22.033  0.00  0.00    +0.009 A 
ATOM     10  C   UNL     1       9.524  -0.297  21.358  0.00  0.00    +0.049 A 
ATOM     11  C   UNL     1       9.759   0.870  22.071  0.00  0.00    +0.158 A 
BRANCH   6  13
ATOM     12  C   UNL     1       9.000   2.587  24.694  0.00  0.00    +0.277 C 
ATOM     13  O   UNL     1      10.166   2.059  24.063  0.00  0.00    -0.491 OA
ENDBRANCH   6  13
BRANCH  11  14
ATOM     14  O   UNL     1       9.742   2.059  21.397  0.00  0.00    -0.503 OA
ATOM     15  H   UNL     1       9.881   2.742  22.081  0.00  0.00    +0.292 HD
ENDBRANCH  11  14
ENDBRANCH   5   8
ENDBRANCH   1   5
BRANCH   3  16
ATOM     16  C   UNL     1       7.061  -3.635  26.860  0.00  0.00    +0.096 C 
BRANCH  16  17
ATOM     17  C   UNL     1       6.484  -5.006  27.206  0.00  0.00    +0.009 C 
BRANCH  17  18
ATOM     18  C   UNL     1       5.104  -5.220  26.578  0.00  0.00    +0.004 C 
BRANCH  18  19
ATOM     19  C   UNL     1       5.175  -6.200  25.406  0.00  0.00    +0.027 C 
BRANCH  19  20
ATOM     20  C   UNL     1       5.394  -5.469  24.113  0.00  0.00    -0.031 C 
ATOM     21  C   UNL     1       6.542  -5.511  23.419  0.00  0.00    -0.028 C 
BRANCH  21  22
ATOM     22  C   UNL     1       6.765  -4.778  22.121  0.00  0.00    +0.005 C 
ATOM     23  C   UNL     1       6.036  -3.436  22.142  0.00  0.00    +0.011 C 
ATOM     24  C   UNL     1       6.288  -5.633  20.947  0.00  0.00    +0.011 C 
ENDBRANCH  21  22
ENDBRANCH  19  20
ENDBRANCH  18  19
ENDBRANCH  17  18
ENDBRANCH  16  17
ENDBRANCH   3  16
TORSDOF 10
ENDMDL
MODEL 2
REMARK VINA RESULT:      -5.9      2.120      6.938
REMARK  Name = 
REMARK  13 active torsions:
REMARK  status: ('A' for Active; 'I' for Inactive)
REMARK    1  A    between atoms: C_1  and  O_2
REMARK    2  A    between atoms: O_2  and  C_3
REMARK    3  A    between atoms: C_4  and  O_5
REMARK    4  A    between atoms: C_8  and  C_9
REMARK    5  A    between atoms: C_9  and  N_10
REMARK    6  A    between atoms: C_11  and  C_13
REMARK    7  A    between atoms: C_13  and  C_14
REMARK    8  A    between atoms: C_14  and  C_15
REMARK    9  A    between atoms: C_15  and  C_16
REMARK   10  A    between atoms: C_16  and  C_17
REMARK   11  A    between atoms: C_18  and  C_19
REMARK   12  A    between atoms: C_19  and  C_20
REMARK   13  A    between atoms: C_19  and  C_21
REMARK                            x       y       z     vdW  Elec       q    Type
REMARK                         _______ _______ _______ _____ _____    ______ ____
ROOT
ATOM      1  N   UNL     1       7.649  -2.231  22.453  0.00  0.00    -0.311 N 
ATOM      2  H   UNL     1       6.809  -1.767  22.770  0.00  0.00    +0.149 HD
ATOM      3  C   UNL     1       8.764  -1.496  22.133  0.00  0.00    +0.213 C 
ATOM      4  O   UNL     1       9.830  -1.999  21.786  0.00  0.00    -0.276 OA
ENDROOT
BRANCH   1   5
ATOM      5  C   UNL     1       7.648  -3.669  22.375  0.00  0.00    +0.139 C 
BRANCH   5   8
ATOM      6  C   UNL     1       6.654  -5.484  25.563  0.00  0.00    +0.162 A 
ATOM      7  C   UNL     1       6.635  -4.992  24.259  0.00  0.00    +0.054 A 
ATOM      8  C   UNL     1       7.747  -4.315  23.733  0.00  0.00    -0.027 A 
ATOM      9  C   UNL     1       8.900  -4.176  24.525  0.00  0.00    +0.009 A 
ATOM     10  C   UNL     1       8.939  -4.707  25.817  0.00  0.00    +0.049 A 
ATOM     11  C   UNL     1       7.819  -5.352  26.323  0.00  0.00    +0.158 A 
BRANCH   6  13
ATOM     12  C   UNL     1       4.671  -6.713  25.268  0.00  0.00    +0.277 C 
ATOM     13  O   UNL     1       5.595  -6.111  26.173  0.00  0.00    -0.491 OA
ENDBRANCH   6  13
BRANCH  11  14
ATOM     14  O   UNL     1       7.867  -5.830  27.604  0.00  0.00    -0.503 OA
ATOM     15  H   UNL     1       6.966  -5.703  27.957  0.00  0.00    +0.292 HD
ENDBRANCH  11  14
ENDBRANCH   5   8
ENDBRANCH   1   5
BRANCH   3  16
ATOM     16  C   UNL     1       8.569  -0.001  22.280  0.00  0.00    +0.096 C 
BRANCH  16  17
ATOM     17  C   UNL     1       9.895   0.757  22.253  0.00  0.00    +0.009 C 
BRANCH  17  18
ATOM     18  C   UNL     1      10.215   1.396  23.607  0.00  0.00    +0.004 C 
BRANCH  18  19
ATOM     19  C   UNL     1      10.685   0.347  24.616  0.00  0.00    +0.027 C 
BRANCH  19  20
ATOM     20  C   UNL     1       9.669   0.160  25.704  0.00  0.00    -0.031 C 
ATOM     21  C   UNL     1       8.820  -0.878  25.760  0.00  0.00    -0.028 C 
BRANCH  21  22
ATOM     22  C   UNL     1       7.798  -1.068  26.851  0.00  0.00    +0.005 C 
ATOM     23  C   UNL     1       6.574  -1.802  26.304  0.00  0.00    +0.011 C 
ATOM     24  C   UNL     1       7.398   0.285  27.437  0.00  0.00    +0.011 C 
ENDBRANCH  21  22
ENDBRANCH  19  20
ENDBRANCH  18  19
ENDBRANCH  17  18
ENDBRANCH  16  17
ENDBRANCH   3  16
TORSDOF 10
ENDMDL
MODEL 3
REMARK VINA RESULT:      -5.8      2.427      7.083
REMARK  Name = 
REMARK  13 active torsions:
REMARK  status: ('A' for Active; 'I' for Inactive)
REMARK    1  A    between atoms: C_1  and  O_2
REMARK    2  A    between atoms: O_2  and  C_3
REMARK    3  A    between atoms: C_4  and  O_5
REMARK    4  A    between atoms: C_8  and  C_9
REMARK    5  A    between atoms: C_9  and  N_10
REMARK    6  A    between atoms: C_11  and  C_13
REMARK    7  A    between atoms: C_13  and  C_14
REMARK    8  A    between atoms: C_14  and  C_15
REMARK    9  A    between atoms: C_15  and  C_16
REMARK   10  A    between atoms: C_16  and  C_17
REMARK   11  A    between atoms: C_18  and  C_19
REMARK   12  A    between atoms: C_19  and  C_20
REMARK   13  A    between atoms: C_19  and  C_21
REMARK                            x       y       z     vdW  Elec       q    Type
REMARK                         _______ _______ _______ _____ _____    ______ ____
ROOT
ATOM      1  N   UNL     1       8.498  -2.093  22.501  0.00  0.00    -0.311 N 
ATOM      2  H   UNL     1       7.592  -1.743  22.220  0.00  0.00    +0.149 HD
ATOM      3  C   UNL     1       9.642  -1.478  22.058  0.00  0.00    +0.213 C 
ATOM      4  O   UNL     1      10.772  -1.824  22.398  0.00  0.00    -0.276 OA
ENDROOT
BRANCH   1   5
ATOM      5  C   UNL     1       8.547  -3.225  23.390  0.00  0.00    +0.139 C 
BRANCH   5   8
ATOM      6  C   UNL     1       5.460  -5.235  24.324  0.00  0.00    +0.162 A 
ATOM      7  C   UNL     1       6.512  -4.322  24.380  0.00  0.00    +0.054 A 
ATOM      8  C   UNL     1       7.332  -4.108  23.260  0.00  0.00    -0.027 A 
ATOM      9  C   UNL     1       7.055  -4.795  22.067  0.00  0.00    +0.009 A 
ATOM     10  C   UNL     1       5.973  -5.677  21.993  0.00  0.00    +0.049 A 
ATOM     11  C   UNL     1       5.190  -5.890  23.119  0.00  0.00    +0.158 A 
BRANCH   6  13
ATOM     12  C   UNL     1       5.264  -6.332  26.395  0.00  0.00    +0.277 C 
ATOM     13  O   UNL     1       4.640  -5.543  25.383  0.00  0.00    -0.491 OA
ENDBRANCH   6  13
BRANCH  11  14
ATOM     14  O   UNL     1       4.160  -6.786  23.035  0.00  0.00    -0.503 OA
ATOM     15  H   UNL     1       4.492  -7.503  22.462  0.00  0.00    +0.292 HD
ENDBRANCH  11  14
ENDBRANCH   5   8
ENDBRANCH   1   5
BRANCH   3  16
ATOM     16  C   UNL     1       9.384  -0.307  21.133  0.00  0.00    +0.096 C 
BRANCH  16  17
ATOM     17  C   UNL     1       8.912   0.932  21.892  0.00  0.00    +0.009 C 
BRANCH  17  18
ATOM     18  C   UNL     1      10.078   1.854  22.260  0.00  0.00    +0.004 C 
BRANCH  18  19
ATOM     19  C   UNL     1      10.462   1.699  23.732  0.00  0.00    +0.027 C 
BRANCH  19  20
ATOM     20  C   UNL     1       9.300   1.192  24.537  0.00  0.00    -0.031 C 
ATOM     21  C   UNL     1       9.368   0.135  25.360  0.00  0.00    -0.028 C 
BRANCH  21  22
ATOM     22  C   UNL     1       8.203  -0.376  26.168  0.00  0.00    +0.005 C 
ATOM     23  C   UNL     1       8.489  -1.791  26.668  0.00  0.00    +0.011 C 
ATOM     24  C   UNL     1       6.928  -0.349  25.326  0.00  0.00    +0.011 C 
ENDBRANCH  21  22
ENDBRANCH  19  20
ENDBRANCH  18  19
ENDBRANCH  17  18
ENDBRANCH  16  17
ENDBRANCH   3  16
TORSDOF 10
ENDMDL
MODEL 4
REMARK VINA RESULT:      -5.8      2.510      7.394
REMARK  Name = 
REMARK  13 active torsions:
REMARK  status: ('A' for Active; 'I' for Inactive)
REMARK    1  A    between atoms: C_1  and  O_2
REMARK    2  A    between atoms: O_2  and  C_3
REMARK    3  A    between atoms: C_4  and  O_5
REMARK    4  A    between atoms: C_8  and  C_9
REMARK    5  A    between atoms: C_9  and  N_10
REMARK    6  A    between atoms: C_11  and  C_13
REMARK    7  A    between atoms: C_13  and  C_14
REMARK    8  A    between atoms: C_14  and  C_15
REMARK    9  A    between atoms: C_15  and  C_16
REMARK   10  A    between atoms: C_16  and  C_17
REMARK   11  A    between atoms: C_18  and  C_19
REMARK   12  A    between atoms: C_19  and  C_20
REMARK   13  A    between atoms: C_19  and  C_21
REMARK                            x       y       z     vdW  Elec       q    Type
REMARK                         _______ _______ _______ _____ _____    ______ ____
ROOT
ATOM      1  N   UNL     1       8.194  -3.665  25.379  0.00  0.00    -0.311 N 
ATOM      2  H   UNL     1       7.702  -2.788  25.288  0.00  0.00    +0.149 HD
ATOM      3  C   UNL     1       9.415  -3.837  24.776  0.00  0.00    +0.213 C 
ATOM      4  O   UNL     1      10.087  -4.860  24.885  0.00  0.00    -0.276 OA
ENDROOT
BRANCH   1   5
ATOM      5  C   UNL     1       7.595  -4.706  26.175  0.00  0.00    +0.139 C 
BRANCH   5   8
ATOM      6  C   UNL     1       5.252  -5.769  23.378  0.00  0.00    +0.162 A 
ATOM      7  C   UNL     1       6.339  -5.222  24.058  0.00  0.00    +0.054 A 
ATOM      8  C   UNL     1       6.494  -5.425  25.439  0.00  0.00    -0.027 A 
ATOM      9  C   UNL     1       5.561  -6.224  26.122  0.00  0.00    +0.009 A 
ATOM     10  C   UNL     1       4.495  -6.812  25.435  0.00  0.00    +0.049 A 
ATOM     11  C   UNL     1       4.349  -6.578  24.074  0.00  0.00    +0.158 A 
BRANCH   6  13
ATOM     12  C   UNL     1       6.121  -5.798  21.192  0.00  0.00    +0.277 C 
ATOM     13  O   UNL     1       4.995  -5.579  22.042  0.00  0.00    -0.491 OA
ENDBRANCH   6  13
BRANCH  11  14
ATOM     14  O   UNL     1       3.278  -7.131  23.430  0.00  0.00    -0.503 OA
ATOM     15  H   UNL     1       3.321  -6.784  22.518  0.00  0.00    +0.292 HD
ENDBRANCH  11  14
ENDBRANCH   5   8
ENDBRANCH   1   5
BRANCH   3  16
ATOM     16  C   UNL     1       9.877  -2.631  23.985  0.00  0.00    +0.096 C 
BRANCH  16  17
ATOM     17  C   UNL     1       8.708  -1.752  23.543  0.00  0.00    +0.009 C 
BRANCH  17  18
ATOM     18  C   UNL     1       8.575  -1.703  22.019  0.00  0.00    +0.004 C 
BRANCH  18  19
ATOM     19  C   UNL     1       9.487  -0.632  21.418  0.00  0.00    +0.027 C 
BRANCH  19  20
ATOM     20  C   UNL     1       9.213   0.709  22.034  0.00  0.00    -0.031 C 
ATOM     21  C   UNL     1      10.169   1.515  22.519  0.00  0.00    -0.028 C 
BRANCH  21  22
ATOM     22  C   UNL     1       9.897   2.862  23.139  0.00  0.00    +0.005 C 
ATOM     23  C   UNL     1      11.206   3.623  23.341  0.00  0.00    +0.011 C 
ATOM     24  C   UNL     1       9.163   2.689  24.468  0.00  0.00    +0.011 C 
ENDBRANCH  21  22
ENDBRANCH  19  20
ENDBRANCH  18  19
ENDBRANCH  17  18
ENDBRANCH  16  17
ENDBRANCH   3  16
TORSDOF 10
ENDMDL
MODEL 5
REMARK VINA RESULT:      -5.8      2.398      8.300
REMARK  Name = 
REMARK  13 active torsions:
REMARK  status: ('A' for Active; 'I' for Inactive)
REMARK    1  A    between atoms: C_1  and  O_2
REMARK    2  A    between atoms: O_2  and  C_3
REMARK    3  A    between atoms: C_4  and  O_5
REMARK    4  A    between atoms: C_8  and  C_9
REMARK    5  A    between atoms: C_9  and  N_10
REMARK    6  A    between atoms: C_11  and  C_13
REMARK    7  A    between atoms: C_13  and  C_14
REMARK    8  A    between atoms: C_14  and  C_15
REMARK    9  A    between atoms: C_15  and  C_16
REMARK   10  A    between atoms: C_16  and  C_17
REMARK   11  A    between atoms: C_18  and  C_19
REMARK   12  A    between atoms: C_19  and  C_20
REMARK   13  A    between atoms: C_19  and  C_21
REMARK                            x       y       z     vdW  Elec       q    Type
REMARK                         _______ _______ _______ _____ _____    ______ ____
ROOT
ATOM      1  N   UNL     1       7.714  -2.149  22.645  0.00  0.00    -0.311 N 
ATOM      2  H   UNL     1       6.848  -1.739  22.966  0.00  0.00    +0.149 HD
ATOM      3  C   UNL     1       8.795  -1.349  22.367  0.00  0.00    +0.213 C 
ATOM      4  O   UNL     1       9.889  -1.787  22.018  0.00  0.00    -0.276 OA
ENDROOT
BRANCH   1   5
ATOM      5  C   UNL     1       7.785  -3.582  22.517  0.00  0.00    +0.139 C 
BRANCH   5   8
ATOM      6  C   UNL     1       6.564  -5.289  25.686  0.00  0.00    +0.162 A 
ATOM      7  C   UNL     1       6.600  -4.763  24.395  0.00  0.00    +0.054 A 
ATOM      8  C   UNL     1       7.802  -4.275  23.856  0.00  0.00    -0.027 A 
ATOM      9  C   UNL     1       8.979  -4.361  24.619  0.00  0.00    +0.009 A 
ATOM     10  C   UNL     1       8.955  -4.929  25.896  0.00  0.00    +0.049 A 
ATOM     11  C   UNL     1       7.751  -5.383  26.417  0.00  0.00    +0.158 A 
BRANCH   6  13
ATOM     12  C   UNL     1       4.713  -6.737  25.577  0.00  0.00    +0.277 C 
ATOM     13  O   UNL     1       5.426  -5.741  26.310  0.00  0.00    -0.491 OA
ENDBRANCH   6  13
BRANCH  11  14
ATOM     14  O   UNL     1       7.744  -5.900  27.683  0.00  0.00    -0.503 OA
ATOM     15  H   UNL     1       8.297  -5.292  28.209  0.00  0.00    +0.292 HD
ENDBRANCH  11  14
ENDBRANCH   5   8
ENDBRANCH   1   5
BRANCH   3  16
ATOM     16  C   UNL     1       8.523   0.128  22.562  0.00  0.00    +0.096 C 
BRANCH  16  17
ATOM     17  C   UNL     1       9.275   0.989  21.548  0.00  0.00    +0.009 C 
BRANCH  17  18
ATOM     18  C   UNL     1      10.263   1.940  22.228  0.00  0.00    +0.004 C 
BRANCH  18  19
ATOM     19  C   UNL     1       9.840   2.241  23.667  0.00  0.00    +0.027 C 
BRANCH  19  20
ATOM     20  C   UNL     1       9.502   3.694  23.831  0.00  0.00    -0.031 C 
ATOM     21  C   UNL     1      10.389   4.688  23.671  0.00  0.00    -0.028 C 
BRANCH  21  22
ATOM     22  C   UNL     1      10.053   6.148  23.836  0.00  0.00    +0.005 C 
ATOM     23  C   UNL     1      10.010   6.515  25.318  0.00  0.00    +0.011 C 
ATOM     24  C   UNL     1       8.715   6.458  23.165  0.00  0.00    +0.011 C 
ENDBRANCH  21  22
ENDBRANCH  19  20
ENDBRANCH  18  19
ENDBRANCH  17  18
ENDBRANCH  16  17
ENDBRANCH   3  16
TORSDOF 10
ENDMDL
MODEL 6
REMARK VINA RESULT:      -5.8      2.891      8.339
REMARK  Name = 
REMARK  13 active torsions:
REMARK  status: ('A' for Active; 'I' for Inactive)
REMARK    1  A    between atoms: C_1  and  O_2
REMARK    2  A    between atoms: O_2  and  C_3
REMARK    3  A    between atoms: C_4  and  O_5
REMARK    4  A    between atoms: C_8  and  C_9
REMARK    5  A    between atoms: C_9  and  N_10
REMARK    6  A    between atoms: C_11  and  C_13
REMARK    7  A    between atoms: C_13  and  C_14
REMARK    8  A    between atoms: C_14  and  C_15
REMARK    9  A    between atoms: C_15  and  C_16
REMARK   10  A    between atoms: C_16  and  C_17
REMARK   11  A    between atoms: C_18  and  C_19
REMARK   12  A    between atoms: C_19  and  C_20
REMARK   13  A    between atoms: C_19  and  C_21
REMARK                            x       y       z     vdW  Elec       q    Type
REMARK                         _______ _______ _______ _____ _____    ______ ____
ROOT
ATOM      1  N   UNL     1       7.797  -2.237  24.062  0.00  0.00    -0.311 N 
ATOM      2  H   UNL     1       6.892  -1.817  23.901  0.00  0.00    +0.149 HD
ATOM      3  C   UNL     1       8.901  -1.778  23.387  0.00  0.00    +0.213 C 
ATOM      4  O   UNL     1      10.036  -2.213  23.569  0.00  0.00    -0.276 OA
ENDROOT
BRANCH   1   5
ATOM      5  C   UNL     1       7.895  -3.300  25.030  0.00  0.00    +0.139 C 
BRANCH   5   8
ATOM      6  C   UNL     1       5.612  -5.643  23.095  0.00  0.00    +0.162 A 
ATOM      7  C   UNL     1       6.577  -4.682  23.393  0.00  0.00    +0.054 A 
ATOM      8  C   UNL     1       6.958  -4.440  24.723  0.00  0.00    -0.027 A 
ATOM      9  C   UNL     1       6.384  -5.208  25.750  0.00  0.00    +0.009 A 
ATOM     10  C   UNL     1       5.449  -6.203  25.451  0.00  0.00    +0.049 A 
ATOM     11  C   UNL     1       5.071  -6.409  24.131  0.00  0.00    +0.158 A 
BRANCH   6  13
ATOM     12  C   UNL     1       6.131  -5.797  20.806  0.00  0.00    +0.277 C 
ATOM     13  O   UNL     1       5.144  -5.909  21.831  0.00  0.00    -0.491 OA
ENDBRANCH   6  13
BRANCH  11  14
ATOM     14  O   UNL     1       4.127  -7.362  23.865  0.00  0.00    -0.503 OA
ATOM     15  H   UNL     1       4.501  -7.895  23.137  0.00  0.00    +0.292 HD
ENDBRANCH  11  14
ENDBRANCH   5   8
ENDBRANCH   1   5
BRANCH   3  16
ATOM     16  C   UNL     1       8.596  -0.658  22.414  0.00  0.00    +0.096 C 
BRANCH  16  17
ATOM     17  C   UNL     1       9.864  -0.074  21.794  0.00  0.00    +0.009 C 
BRANCH  17  18
ATOM     18  C   UNL     1       9.945   1.443  21.982  0.00  0.00    +0.004 C 
BRANCH  18  19
ATOM     19  C   UNL     1       9.730   1.831  23.446  0.00  0.00    +0.027 C 
BRANCH  19  20
ATOM     20  C   UNL     1      10.265   3.207  23.717  0.00  0.00    -0.031 C 
ATOM     21  C   UNL     1      11.452   3.646  23.271  0.00  0.00    -0.028 C 
BRANCH  21  22
ATOM     22  C   UNL     1      11.992   5.027  23.543  0.00  0.00    +0.005 C 
ATOM     23  C   UNL     1      10.842   6.018  23.714  0.00  0.00    +0.011 C 
ATOM     24  C   UNL     1      12.916   5.462  22.406  0.00  0.00    +0.011 C 
ENDBRANCH  21  22
ENDBRANCH  19  20
ENDBRANCH  18  19
ENDBRANCH  17  18
ENDBRANCH  16  17
ENDBRANCH   3  16
TORSDOF 10
ENDMDL
MODEL 7
REMARK VINA RESULT:      -5.6      3.965      7.461
REMARK  Name = 
REMARK  13 active torsions:
REMARK  status: ('A' for Active; 'I' for Inactive)
REMARK    1  A    between atoms: C_1  and  O_2
REMARK    2  A    between atoms: O_2  and  C_3
REMARK    3  A    between atoms: C_4  and  O_5
REMARK    4  A    between atoms: C_8  and  C_9
REMARK    5  A    between atoms: C_9  and  N_10
REMARK    6  A    between atoms: C_11  and  C_13
REMARK    7  A    between atoms: C_13  and  C_14
REMARK    8  A    between atoms: C_14  and  C_15
REMARK    9  A    between atoms: C_15  and  C_16
REMARK   10  A    between atoms: C_16  and  C_17
REMARK   11  A    between atoms: C_18  and  C_19
REMARK   12  A    between atoms: C_19  and  C_20
REMARK   13  A    between atoms: C_19  and  C_21
REMARK                            x       y       z     vdW  Elec       q    Type
REMARK                         _______ _______ _______ _____ _____    ______ ____
ROOT
ATOM      1  N   UNL     1      10.004   4.238  23.672  0.00  0.00    -0.311 N 
ATOM      2  H   UNL     1       9.030   3.984  23.770  0.00  0.00    +0.149 HD
ATOM      3  C   UNL     1      10.383   5.556  23.732  0.00  0.00    +0.213 C 
ATOM      4  O   UNL     1      11.552   5.928  23.668  0.00  0.00    -0.276 OA
ENDROOT
BRANCH   1   5
ATOM      5  C   UNL     1      10.970   3.184  23.500  0.00  0.00    +0.139 C 
BRANCH   5   8
ATOM      6  C   UNL     1       9.895  -0.461  23.561  0.00  0.00    +0.162 A 
ATOM      7  C   UNL     1      10.361   0.789  23.967  0.00  0.00    +0.054 A 
ATOM      8  C   UNL     1      10.330   1.883  23.087  0.00  0.00    -0.027 A 
ATOM      9  C   UNL     1       9.783   1.714  21.804  0.00  0.00    +0.009 A 
ATOM     10  C   UNL     1       9.273   0.474  21.410  0.00  0.00    +0.049 A 
ATOM     11  C   UNL     1       9.336  -0.599  22.288  0.00  0.00    +0.158 A 
BRANCH   6  13
ATOM     12  C   UNL     1       8.975  -1.614  25.394  0.00  0.00    +0.277 C 
ATOM     13  O   UNL     1       9.934  -1.594  24.337  0.00  0.00    -0.491 OA
ENDBRANCH   6  13
BRANCH  11  14
ATOM     14  O   UNL     1       8.865  -1.812  21.867  0.00  0.00    -0.503 OA
ATOM     15  H   UNL     1       7.964  -1.635  21.537  0.00  0.00    +0.292 HD
ENDBRANCH  11  14
ENDBRANCH   5   8
ENDBRANCH   1   5
BRANCH   3  16
ATOM     16  C   UNL     1       9.224   6.513  23.918  0.00  0.00    +0.096 C 
BRANCH  16  17
ATOM     17  C   UNL     1       8.266   6.494  22.728  0.00  0.00    +0.009 C 
BRANCH  17  18
ATOM     18  C   UNL     1       6.997   5.692  23.030  0.00  0.00    +0.004 C 
BRANCH  18  19
ATOM     19  C   UNL     1       6.870   4.486  22.098  0.00  0.00    +0.027 C 
BRANCH  19  20
ATOM     20  C   UNL     1       6.556   3.241  22.875  0.00  0.00    -0.031 C 
ATOM     21  C   UNL     1       6.702   3.136  24.205  0.00  0.00    -0.028 C 
BRANCH  21  22
ATOM     22  C   UNL     1       6.388   1.887  24.987  0.00  0.00    +0.005 C 
ATOM     23  C   UNL     1       7.413   1.693  26.104  0.00  0.00    +0.011 C 
ATOM     24  C   UNL     1       6.369   0.675  24.057  0.00  0.00    +0.011 C 
ENDBRANCH  21  22
ENDBRANCH  19  20
ENDBRANCH  18  19
ENDBRANCH  17  18
ENDBRANCH  16  17
ENDBRANCH   3  16
TORSDOF 10
ENDMDL
MODEL 8
REMARK VINA RESULT:      -5.6      2.129      2.705
REMARK  Name = 
REMARK  13 active torsions:
REMARK  status: ('A' for Active; 'I' for Inactive)
REMARK    1  A    between atoms: C_1  and  O_2
REMARK    2  A    between atoms: O_2  and  C_3
REMARK    3  A    between atoms: C_4  and  O_5
REMARK    4  A    between atoms: C_8  and  C_9
REMARK    5  A    between atoms: C_9  and  N_10
REMARK    6  A    between atoms: C_11  and  C_13
REMARK    7  A    between atoms: C_13  and  C_14
REMARK    8  A    between atoms: C_14  and  C_15
REMARK    9  A    between atoms: C_15  and  C_16
REMARK   10  A    between atoms: C_16  and  C_17
REMARK   11  A    between atoms: C_18  and  C_19
REMARK   12  A    between atoms: C_19  and  C_20
REMARK   13  A    between atoms: C_19  and  C_21
REMARK                            x       y       z     vdW  Elec       q    Type
REMARK                         _______ _______ _______ _____ _____    ______ ____
ROOT
ATOM      1  N   UNL     1       6.616  -1.940  26.621  0.00  0.00    -0.311 N 
ATOM      2  H   UNL     1       7.046  -2.635  27.216  0.00  0.00    +0.149 HD
ATOM      3  C   UNL     1       5.339  -2.127  26.155  0.00  0.00    +0.213 C 
ATOM      4  O   UNL     1       4.742  -1.302  25.467  0.00  0.00    -0.276 OA
ENDROOT
BRANCH   1   5
ATOM      5  C   UNL     1       7.366  -0.751  26.307  0.00  0.00    +0.139 C 
BRANCH   5   8
ATOM      6  C   UNL     1       8.762  -0.290  22.802  0.00  0.00    +0.162 A 
ATOM      7  C   UNL     1       8.068  -0.067  23.991  0.00  0.00    +0.054 A 
ATOM      8  C   UNL     1       8.234  -0.929  25.087  0.00  0.00    -0.027 A 
ATOM      9  C   UNL     1       9.141  -1.998  24.986  0.00  0.00    +0.009 A 
ATOM     10  C   UNL     1       9.872  -2.197  23.812  0.00  0.00    +0.049 A 
ATOM     11  C   UNL     1       9.675  -1.346  22.733  0.00  0.00    +0.158 A 
BRANCH   6  13
ATOM     12  C   UNL     1       9.170   1.786  21.772  0.00  0.00    +0.277 C 
ATOM     13  O   UNL     1       8.624   0.471  21.666  0.00  0.00    -0.491 OA
ENDBRANCH   6  13
BRANCH  11  14
ATOM     14  O   UNL     1      10.373  -1.582  21.582  0.00  0.00    -0.503 OA
ATOM     15  H   UNL     1      10.544  -2.544  21.580  0.00  0.00    +0.292 HD
ENDBRANCH  11  14
ENDBRANCH   5   8
ENDBRANCH   1   5
BRANCH   3  16
ATOM     16  C   UNL     1       4.717  -3.436  26.594  0.00  0.00    +0.096 C 
BRANCH  16  17
ATOM     17  C   UNL     1       5.678  -4.275  27.434  0.00  0.00    +0.009 C 
BRANCH  17  18
ATOM     18  C   UNL     1       6.190  -5.497  26.666  0.00  0.00    +0.004 C 
BRANCH  18  19
ATOM     19  C   UNL     1       7.690  -5.388  26.389  0.00  0.00    +0.027 C 
BRANCH  19  20
ATOM     20  C   UNL     1       7.950  -5.216  24.921  0.00  0.00    -0.031 C 
ATOM     21  C   UNL     1       7.028  -4.786  24.046  0.00  0.00    -0.028 C 
BRANCH  21  22
ATOM     22  C   UNL     1       7.286  -4.613  22.571  0.00  0.00    +0.005 C 
ATOM     23  C   UNL     1       6.511  -3.410  22.038  0.00  0.00    +0.011 C 
ATOM     24  C   UNL     1       6.896  -5.884  21.817  0.00  0.00    +0.011 C 
ENDBRANCH  21  22
ENDBRANCH  19  20
ENDBRANCH  18  19
ENDBRANCH  17  18
ENDBRANCH  16  17
ENDBRANCH   3  16
TORSDOF 10
ENDMDL
MODEL 9
REMARK VINA RESULT:      -5.6      1.880      6.202
REMARK  Name = 
REMARK  13 active torsions:
REMARK  status: ('A' for Active; 'I' for Inactive)
REMARK    1  A    between atoms: C_1  and  O_2
REMARK    2  A    between atoms: O_2  and  C_3
REMARK    3  A    between atoms: C_4  and  O_5
REMARK    4  A    between atoms: C_8  and  C_9
REMARK    5  A    between atoms: C_9  and  N_10
REMARK    6  A    between atoms: C_11  and  C_13
REMARK    7  A    between atoms: C_13  and  C_14
REMARK    8  A    between atoms: C_14  and  C_15
REMARK    9  A    between atoms: C_15  and  C_16
REMARK   10  A    between atoms: C_16  and  C_17
REMARK   11  A    between atoms: C_18  and  C_19
REMARK   12  A    between atoms: C_19  and  C_20
REMARK   13  A    between atoms: C_19  and  C_21
REMARK                            x       y       z     vdW  Elec       q    Type
REMARK                         _______ _______ _______ _____ _____    ______ ____
ROOT
ATOM      1  N   UNL     1       9.444  -0.406  25.472  0.00  0.00    -0.311 N 
ATOM      2  H   UNL     1      10.109  -1.122  25.212  0.00  0.00    +0.149 HD
ATOM      3  C   UNL     1       9.425   0.793  24.802  0.00  0.00    +0.213 C 
ATOM      4  O   UNL     1       8.614   1.686  25.036  0.00  0.00    -0.276 OA
ENDROOT
BRANCH   1   5
ATOM      5  C   UNL     1       8.512  -0.691  26.532  0.00  0.00    +0.139 C 
BRANCH   5   8
ATOM      6  C   UNL     1       6.205  -3.696  26.827  0.00  0.00    +0.162 A 
ATOM      7  C   UNL     1       6.662  -2.383  26.727  0.00  0.00    +0.054 A 
ATOM      8  C   UNL     1       8.021  -2.115  26.494  0.00  0.00    -0.027 A 
ATOM      9  C   UNL     1       8.910  -3.189  26.320  0.00  0.00    +0.009 A 
ATOM     10  C   UNL     1       8.447  -4.507  26.375  0.00  0.00    +0.049 A 
ATOM     11  C   UNL     1       7.104  -4.747  26.630  0.00  0.00    +0.158 A 
BRANCH   6  13
ATOM     12  C   UNL     1       4.408  -3.530  28.337  0.00  0.00    +0.277 C 
ATOM     13  O   UNL     1       4.906  -4.048  27.104  0.00  0.00    -0.491 OA
ENDBRANCH   6  13
BRANCH  11  14
ATOM     14  O   UNL     1       6.680  -6.045  26.718  0.00  0.00    -0.503 OA
ATOM     15  H   UNL     1       7.339  -6.490  27.284  0.00  0.00    +0.292 HD
ENDBRANCH  11  14
ENDBRANCH   5   8
ENDBRANCH   1   5
BRANCH   3  16
ATOM     16  C   UNL     1      10.480   0.902  23.721  0.00  0.00    +0.096 C 
BRANCH  16  17
ATOM     17  C   UNL     1       9.884   1.314  22.377  0.00  0.00    +0.009 C 
BRANCH  17  18
ATOM     18  C   UNL     1       9.368   0.108  21.587  0.00  0.00    +0.004 C 
BRANCH  18  19
ATOM     19  C   UNL     1      10.104  -1.171  21.987  0.00  0.00    +0.027 C 
BRANCH  19  20
ATOM     20  C   UNL     1       9.133  -2.243  22.389  0.00  0.00    -0.031 C 
ATOM     21  C   UNL     1       7.833  -2.017  22.633  0.00  0.00    -0.028 C 
BRANCH  21  22
ATOM     22  C   UNL     1       6.856  -3.091  23.038  0.00  0.00    +0.005 C 
ATOM     23  C   UNL     1       7.504  -4.468  22.909  0.00  0.00    +0.011 C 
ATOM     24  C   UNL     1       5.596  -3.005  22.179  0.00  0.00    +0.011 C 
ENDBRANCH  21  22
ENDBRANCH  19  20
ENDBRANCH  18  19
ENDBRANCH  17  18
ENDBRANCH  16  17
ENDBRANCH   3  16
TORSDOF 10
ENDMDL
