MODEL 1
REMARK VINA RESULT:      -7.4      0.000      0.000
REMARK  Name = 
REMARK  8 active torsions:
REMARK  status: ('A' for Active; 'I' for Inactive)
REMARK    1  A    between atoms: C_1  and  C_2
REMARK    2  A    between atoms: C_2  and  C_3
REMARK    3  A    between atoms: C_3  and  S_4
REMARK    4  A    between atoms: S_4  and  N_7
REMARK    5  A    between atoms: N_7  and  C_8
REMARK    6  A    between atoms: C_11  and  C_12
REMARK    7  A    between atoms: C_12  and  C_14
REMARK    8  A    between atoms: C_20  and  C_23
REMARK                            x       y       z     vdW  Elec       q    Type
REMARK                         _______ _______ _______ _____ _____    ______ ____
ROOT
ATOM      1  C   UNL     1       8.532  -4.723  24.232  0.00  0.00    +0.201 C 
ATOM      2  O   UNL     1       9.390  -5.560  24.502  0.00  0.00    -0.286 OA
ENDROOT
BRANCH   1   3
ATOM      3  C   UNL     1       7.337  -5.097  23.470  0.00  0.00    +0.049 A 
ATOM      4  C   UNL     1       5.951  -4.779  23.661  0.00  0.00    +0.030 A 
ATOM      5  C   UNL     1       5.223  -5.566  22.775  0.00  0.00    +0.139 A 
ATOM      6  N   UNL     1       3.888  -5.699  22.706  0.00  0.00    -0.237 NA
ATOM      7  C   UNL     1       3.232  -4.940  23.623  0.00  0.00    +0.121 A 
ATOM      8  C   UNL     1       3.801  -4.037  24.528  0.00  0.00    +0.001 A 
ATOM      9  N   UNL     1       6.108  -6.193  21.946  0.00  0.00    -0.345 N 
ATOM     10  H   UNL     1       5.834  -6.793  21.181  0.00  0.00    +0.167 HD
ATOM     11  C   UNL     1       5.203  -3.946  24.515  0.00  0.00    +0.022 A 
ATOM     12  C   UNL     1       7.387  -5.895  22.333  0.00  0.00    +0.096 A 
BRANCH   8  13
ATOM     13  C   UNL     1       2.997  -3.223  25.462  0.00  0.00    -0.016 A 
ATOM     14  C   UNL     1       3.620  -2.365  26.390  0.00  0.00    +0.010 A 
ATOM     15  C   UNL     1       2.877  -1.599  27.294  0.00  0.00    +0.020 A 
ATOM     16  C   UNL     1       1.489  -1.669  27.278  0.00  0.00    +0.041 A 
ATOM     17 CL   UNL     1       0.572  -0.718  28.378  0.00  0.00    -0.084 Cl
ATOM     18  C   UNL     1       0.843  -2.506  26.373  0.00  0.00    +0.020 A 
ATOM     19  C   UNL     1       1.591  -3.279  25.476  0.00  0.00    +0.010 A 
ENDBRANCH   8  13
ENDBRANCH   1   3
BRANCH   1  25
ATOM     20  C   UNL     1       9.567  -1.057  24.480  0.00  0.00    +0.084 A 
ATOM     21  C   UNL     1       9.193  -0.762  25.789  0.00  0.00    +0.030 A 
ATOM     22  C   UNL     1       8.582  -1.751  26.566  0.00  0.00    +0.041 A 
ATOM     23  C   UNL     1       8.375  -3.027  26.039  0.00  0.00    +0.137 A 
ATOM     24  F   UNL     1       7.865  -3.959  26.857  0.00  0.00    -0.205 F 
ATOM     25  C   UNL     1       8.724  -3.334  24.721  0.00  0.00    +0.094 A 
ATOM     26  C   UNL     1       9.253  -2.308  23.930  0.00  0.00    +0.159 A 
ATOM     27  F   UNL     1       9.533  -2.514  22.632  0.00  0.00    -0.203 F 
BRANCH  20  28
ATOM     28  N   UNL     1      10.319  -0.081  23.725  0.00  0.00    -0.218 N 
ATOM     29  H   UNL     1      10.762  -0.528  22.916  0.00  0.00    +0.173 HD
BRANCH  28  30
ATOM     30  S   UNL     1       9.423   1.233  23.110  0.00  0.00    +0.043 S 
ATOM     31  O   UNL     1       9.193   2.113  24.233  0.00  0.00    -0.155 OA
ATOM     32  O   UNL     1      10.044   1.690  21.886  0.00  0.00    -0.155 OA
BRANCH  30  33
ATOM     33  C   UNL     1       7.876   0.414  22.702  0.00  0.00    +0.188 C 
BRANCH  33  35
ATOM     34  C   UNL     1       6.005  -0.136  24.324  0.00  0.00    +0.005 C 
ATOM     35  C   UNL     1       6.718   0.958  23.537  0.00  0.00    +0.021 C 
ENDBRANCH  33  35
ENDBRANCH  30  33
ENDBRANCH  28  30
ENDBRANCH  20  28
ENDBRANCH   1  25
TORSDOF 7
ENDMDL
MODEL 2
REMARK VINA RESULT:      -7.4      3.660      6.763
REMARK  Name = 
REMARK  8 active torsions:
REMARK  status: ('A' for Active; 'I' for Inactive)
REMARK    1  A    between atoms: C_1  and  C_2
REMARK    2  A    between atoms: C_2  and  C_3
REMARK    3  A    between atoms: C_3  and  S_4
REMARK    4  A    between atoms: S_4  and  N_7
REMARK    5  A    between atoms: N_7  and  C_8
REMARK    6  A    between atoms: C_11  and  C_12
REMARK    7  A    between atoms: C_12  and  C_14
REMARK    8  A    between atoms: C_20  and  C_23
REMARK                            x       y       z     vdW  Elec       q    Type
REMARK                         _______ _______ _______ _____ _____    ______ ____
ROOT
ATOM      1  C   UNL     1       8.512  -1.998  25.634  0.00  0.00    +0.201 C 
ATOM      2  O   UNL     1       8.687  -1.371  26.676  0.00  0.00    -0.286 OA
ENDROOT
BRANCH   1   3
ATOM      3  C   UNL     1       9.108  -1.536  24.376  0.00  0.00    +0.049 A 
ATOM      4  C   UNL     1       8.851  -0.375  23.573  0.00  0.00    +0.030 A 
ATOM      5  C   UNL     1       9.547  -0.539  22.380  0.00  0.00    +0.139 A 
ATOM      6  N   UNL     1       9.484   0.234  21.283  0.00  0.00    -0.237 NA
ATOM      7  C   UNL     1       8.637   1.287  21.426  0.00  0.00    +0.121 A 
ATOM      8  C   UNL     1       7.925   1.643  22.577  0.00  0.00    +0.001 A 
ATOM      9  N   UNL     1      10.345  -1.638  22.507  0.00  0.00    -0.345 N 
ATOM     10  H   UNL     1      10.988  -1.954  21.795  0.00  0.00    +0.167 HD
ATOM     11  C   UNL     1       8.069   0.790  23.683  0.00  0.00    +0.022 A 
ATOM     12  C   UNL     1      10.116  -2.234  23.719  0.00  0.00    +0.096 A 
BRANCH   8  13
ATOM     13  C   UNL     1       7.057   2.836  22.647  0.00  0.00    -0.016 A 
ATOM     14  C   UNL     1       7.605   4.132  22.559  0.00  0.00    +0.010 A 
ATOM     15  C   UNL     1       6.803   5.274  22.641  0.00  0.00    +0.020 A 
ATOM     16  C   UNL     1       5.429   5.141  22.800  0.00  0.00    +0.041 A 
ATOM     17 CL   UNL     1       4.438   6.542  22.886  0.00  0.00    -0.084 Cl
ATOM     18  C   UNL     1       4.856   3.875  22.889  0.00  0.00    +0.020 A 
ATOM     19  C   UNL     1       5.665   2.734  22.818  0.00  0.00    +0.010 A 
ENDBRANCH   8  13
ENDBRANCH   1   3
BRANCH   1  25
ATOM     20  C   UNL     1       5.656  -4.510  25.301  0.00  0.00    +0.084 A 
ATOM     21  C   UNL     1       6.187  -5.607  25.974  0.00  0.00    +0.030 A 
ATOM     22  C   UNL     1       7.479  -5.528  26.503  0.00  0.00    +0.041 A 
ATOM     23  C   UNL     1       8.216  -4.349  26.378  0.00  0.00    +0.137 A 
ATOM     24  F   UNL     1       9.412  -4.299  26.979  0.00  0.00    -0.205 F 
ATOM     25  C   UNL     1       7.707  -3.245  25.687  0.00  0.00    +0.094 A 
ATOM     26  C   UNL     1       6.449  -3.372  25.088  0.00  0.00    +0.159 A 
ATOM     27  F   UNL     1       5.939  -2.379  24.341  0.00  0.00    -0.203 F 
BRANCH  20  28
ATOM     28  N   UNL     1       4.277  -4.543  24.874  0.00  0.00    -0.218 N 
ATOM     29  H   UNL     1       3.954  -3.597  24.649  0.00  0.00    +0.173 HD
BRANCH  28  30
ATOM     30  S   UNL     1       3.947  -5.497  23.499  0.00  0.00    +0.043 S 
ATOM     31  O   UNL     1       4.321  -6.847  23.857  0.00  0.00    -0.155 OA
ATOM     32  O   UNL     1       2.629  -5.166  23.007  0.00  0.00    -0.155 OA
BRANCH  30  33
ATOM     33  C   UNL     1       5.171  -4.852  22.351  0.00  0.00    +0.188 C 
BRANCH  33  35
ATOM     34  C   UNL     1       7.493  -5.871  22.384  0.00  0.00    +0.005 C 
ATOM     35  C   UNL     1       6.079  -5.960  21.822  0.00  0.00    +0.021 C 
ENDBRANCH  33  35
ENDBRANCH  30  33
ENDBRANCH  28  30
ENDBRANCH  20  28
ENDBRANCH   1  25
TORSDOF 7
ENDMDL
MODEL 3
REMARK VINA RESULT:      -7.2      2.921      3.353
REMARK  Name = 
REMARK  8 active torsions:
REMARK  status: ('A' for Active; 'I' for Inactive)
REMARK    1  A    between atoms: C_1  and  C_2
REMARK    2  A    between atoms: C_2  and  C_3
REMARK    3  A    between atoms: C_3  and  S_4
REMARK    4  A    between atoms: S_4  and  N_7
REMARK    5  A    between atoms: N_7  and  C_8
REMARK    6  A    between atoms: C_11  and  C_12
REMARK    7  A    between atoms: C_12  and  C_14
REMARK    8  A    between atoms: C_20  and  C_23
REMARK                            x       y       z     vdW  Elec       q    Type
REMARK                         _______ _______ _______ _____ _____    ______ ____
ROOT
ATOM      1  C   UNL     1       8.829  -3.887  24.304  0.00  0.00    +0.201 C 
ATOM      2  O   UNL     1       9.776  -4.648  24.484  0.00  0.00    -0.286 OA
ENDROOT
BRANCH   1   3
ATOM      3  C   UNL     1       7.644  -4.332  23.563  0.00  0.00    +0.049 A 
ATOM      4  C   UNL     1       6.428  -4.954  24.001  0.00  0.00    +0.030 A 
ATOM      5  C   UNL     1       5.738  -5.354  22.862  0.00  0.00    +0.139 A 
ATOM      6  N   UNL     1       4.622  -6.099  22.801  0.00  0.00    -0.237 NA
ATOM      7  C   UNL     1       4.157  -6.457  24.027  0.00  0.00    +0.121 A 
ATOM      8  C   UNL     1       4.678  -6.076  25.268  0.00  0.00    +0.001 A 
ATOM      9  N   UNL     1       6.386  -4.840  21.777  0.00  0.00    -0.345 N 
ATOM     10  H   UNL     1       6.065  -4.949  20.825  0.00  0.00    +0.167 HD
ATOM     11  C   UNL     1       5.834  -5.278  25.236  0.00  0.00    +0.022 A 
ATOM     12  C   UNL     1       7.522  -4.193  22.185  0.00  0.00    +0.096 A 
BRANCH   8  13
ATOM     13  C   UNL     1       4.074  -6.484  26.552  0.00  0.00    -0.016 A 
ATOM     14  C   UNL     1       2.700  -6.783  26.639  0.00  0.00    +0.010 A 
ATOM     15  C   UNL     1       2.105  -7.155  27.849  0.00  0.00    +0.020 A 
ATOM     16  C   UNL     1       2.881  -7.247  28.998  0.00  0.00    +0.041 A 
ATOM     17 CL   UNL     1       2.157  -7.717  30.484  0.00  0.00    -0.084 Cl
ATOM     18  C   UNL     1       4.242  -6.959  28.946  0.00  0.00    +0.020 A 
ATOM     19  C   UNL     1       4.831  -6.576  27.734  0.00  0.00    +0.010 A 
ENDBRANCH   8  13
ENDBRANCH   1   3
BRANCH   1  25
ATOM     20  C   UNL     1       9.652  -0.198  24.844  0.00  0.00    +0.084 A 
ATOM     21  C   UNL     1       9.134   0.006  26.120  0.00  0.00    +0.030 A 
ATOM     22  C   UNL     1       8.497  -1.050  26.779  0.00  0.00    +0.041 A 
ATOM     23  C   UNL     1       8.407  -2.302  26.170  0.00  0.00    +0.137 A 
ATOM     24  F   UNL     1       7.864  -3.300  26.882  0.00  0.00    -0.205 F 
ATOM     25  C   UNL     1       8.902  -2.520  24.880  0.00  0.00    +0.094 A 
ATOM     26  C   UNL     1       9.457  -1.430  24.201  0.00  0.00    +0.159 A 
ATOM     27  F   UNL     1       9.875  -1.552  22.931  0.00  0.00    -0.203 F 
BRANCH  20  28
ATOM     28  N   UNL     1      10.427   0.849  24.220  0.00  0.00    -0.218 N 
ATOM     29  H   UNL     1      11.208   0.444  23.693  0.00  0.00    +0.173 HD
BRANCH  28  30
ATOM     30  S   UNL     1       9.582   1.847  23.126  0.00  0.00    +0.043 S 
ATOM     31  O   UNL     1      10.225   1.661  21.845  0.00  0.00    -0.155 OA
ATOM     32  O   UNL     1       8.162   1.648  23.314  0.00  0.00    -0.155 OA
BRANCH  30  33
ATOM     33  C   UNL     1      10.025   3.473  23.754  0.00  0.00    +0.188 C 
BRANCH  33  35
ATOM     34  C   UNL     1      11.718   5.346  23.521  0.00  0.00    +0.005 C 
ATOM     35  C   UNL     1      11.450   3.854  23.362  0.00  0.00    +0.021 C 
ENDBRANCH  33  35
ENDBRANCH  30  33
ENDBRANCH  28  30
ENDBRANCH  20  28
ENDBRANCH   1  25
TORSDOF 7
ENDMDL
MODEL 4
REMARK VINA RESULT:      -6.9      3.605      5.531
REMARK  Name = 
REMARK  8 active torsions:
REMARK  status: ('A' for Active; 'I' for Inactive)
REMARK    1  A    between atoms: C_1  and  C_2
REMARK    2  A    between atoms: C_2  and  C_3
REMARK    3  A    between atoms: C_3  and  S_4
REMARK    4  A    between atoms: S_4  and  N_7
REMARK    5  A    between atoms: N_7  and  C_8
REMARK    6  A    between atoms: C_11  and  C_12
REMARK    7  A    between atoms: C_12  and  C_14
REMARK    8  A    between atoms: C_20  and  C_23
REMARK                            x       y       z     vdW  Elec       q    Type
REMARK                         _______ _______ _______ _____ _____    ______ ____
ROOT
ATOM      1  C   UNL     1      10.292   0.979  24.189  0.00  0.00    +0.201 C 
ATOM      2  O   UNL     1      11.318   0.731  24.816  0.00  0.00    -0.286 OA
ENDROOT
BRANCH   1   3
ATOM      3  C   UNL     1       9.700  -0.024  23.298  0.00  0.00    +0.049 A 
ATOM      4  C   UNL     1       8.909  -1.190  23.572  0.00  0.00    +0.030 A 
ATOM      5  C   UNL     1       8.794  -1.896  22.380  0.00  0.00    +0.139 A 
ATOM      6  N   UNL     1       8.261  -3.116  22.201  0.00  0.00    -0.237 NA
ATOM      7  C   UNL     1       7.784  -3.660  23.351  0.00  0.00    +0.121 A 
ATOM      8  C   UNL     1       7.746  -3.056  24.613  0.00  0.00    +0.001 A 
ATOM      9  N   UNL     1       9.312  -1.124  21.382  0.00  0.00    -0.345 N 
ATOM     10  H   UNL     1       9.313  -1.389  20.407  0.00  0.00    +0.167 HD
ATOM     11  C   UNL     1       8.306  -1.771  24.703  0.00  0.00    +0.022 A 
ATOM     12  C   UNL     1       9.835   0.024  21.915  0.00  0.00    +0.096 A 
BRANCH   8  13
ATOM     13  C   UNL     1       7.166  -3.715  25.801  0.00  0.00    -0.016 A 
ATOM     14  C   UNL     1       7.719  -4.910  26.305  0.00  0.00    +0.010 A 
ATOM     15  C   UNL     1       7.174  -5.558  27.417  0.00  0.00    +0.020 A 
ATOM     16  C   UNL     1       6.068  -5.015  28.058  0.00  0.00    +0.041 A 
ATOM     17 CL   UNL     1       5.404  -5.801  29.434  0.00  0.00    -0.084 Cl
ATOM     18  C   UNL     1       5.498  -3.835  27.586  0.00  0.00    +0.020 A 
ATOM     19  C   UNL     1       6.040  -3.195  26.465  0.00  0.00    +0.010 A 
ENDBRANCH   8  13
ENDBRANCH   1   3
BRANCH   1  25
ATOM     20  C   UNL     1       7.850   3.741  25.183  0.00  0.00    +0.084 A 
ATOM     21  C   UNL     1       8.424   4.843  24.553  0.00  0.00    +0.030 A 
ATOM     22  C   UNL     1       9.614   4.680  23.837  0.00  0.00    +0.041 A 
ATOM     23  C   UNL     1      10.203   3.419  23.735  0.00  0.00    +0.137 A 
ATOM     24  F   UNL     1      11.294   3.306  22.965  0.00  0.00    -0.205 F 
ATOM     25  C   UNL     1       9.653   2.307  24.379  0.00  0.00    +0.094 A 
ATOM     26  C   UNL     1       8.511   2.504  25.164  0.00  0.00    +0.159 A 
ATOM     27  F   UNL     1       7.982   1.495  25.874  0.00  0.00    -0.203 F 
BRANCH  20  28
ATOM     28  N   UNL     1       6.555   3.880  25.806  0.00  0.00    -0.218 N 
ATOM     29  H   UNL     1       6.520   4.743  26.358  0.00  0.00    +0.173 HD
BRANCH  28  30
ATOM     30  S   UNL     1       5.222   3.939  24.744  0.00  0.00    +0.043 S 
ATOM     31  O   UNL     1       4.065   3.603  25.543  0.00  0.00    -0.155 OA
ATOM     32  O   UNL     1       5.297   5.158  23.969  0.00  0.00    -0.155 OA
BRANCH  30  33
ATOM     33  C   UNL     1       5.596   2.548  23.669  0.00  0.00    +0.188 C 
BRANCH  33  35
ATOM     34  C   UNL     1       7.195   2.511  21.702  0.00  0.00    +0.005 C 
ATOM     35  C   UNL     1       5.855   3.003  22.235  0.00  0.00    +0.021 C 
ENDBRANCH  33  35
ENDBRANCH  30  33
ENDBRANCH  28  30
ENDBRANCH  20  28
ENDBRANCH   1  25
TORSDOF 7
ENDMDL
MODEL 5
REMARK VINA RESULT:      -6.9      3.478      5.058
REMARK  Name = 
REMARK  8 active torsions:
REMARK  status: ('A' for Active; 'I' for Inactive)
REMARK    1  A    between atoms: C_1  and  C_2
REMARK    2  A    between atoms: C_2  and  C_3
REMARK    3  A    between atoms: C_3  and  S_4
REMARK    4  A    between atoms: S_4  and  N_7
REMARK    5  A    between atoms: N_7  and  C_8
REMARK    6  A    between atoms: C_11  and  C_12
REMARK    7  A    between atoms: C_12  and  C_14
REMARK    8  A    between atoms: C_20  and  C_23
REMARK                            x       y       z     vdW  Elec       q    Type
REMARK                         _______ _______ _______ _____ _____    ______ ____
ROOT
ATOM      1  C   UNL     1       8.144   0.103  25.212  0.00  0.00    +0.201 C 
ATOM      2  O   UNL     1       7.896   0.236  26.407  0.00  0.00    -0.286 OA
ENDROOT
BRANCH   1   3
ATOM      3  C   UNL     1       8.583  -1.192  24.680  0.00  0.00    +0.049 A 
ATOM      4  C   UNL     1       7.895  -2.444  24.544  0.00  0.00    +0.030 A 
ATOM      5  C   UNL     1       8.842  -3.394  24.176  0.00  0.00    +0.139 A 
ATOM      6  N   UNL     1       8.672  -4.723  24.077  0.00  0.00    -0.237 NA
ATOM      7  C   UNL     1       7.404  -5.117  24.366  0.00  0.00    +0.121 A 
ATOM      8  C   UNL     1       6.316  -4.292  24.672  0.00  0.00    +0.001 A 
ATOM      9  N   UNL     1      10.010  -2.741  23.909  0.00  0.00    -0.345 N 
ATOM     10  H   UNL     1      10.848  -3.198  23.579  0.00  0.00    +0.167 HD
ATOM     11  C   UNL     1       6.581  -2.914  24.732  0.00  0.00    +0.022 A 
ATOM     12  C   UNL     1       9.861  -1.406  24.177  0.00  0.00    +0.096 A 
BRANCH   8  13
ATOM     13  C   UNL     1       4.960  -4.815  24.931  0.00  0.00    -0.016 A 
ATOM     14  C   UNL     1       3.826  -4.185  24.379  0.00  0.00    +0.010 A 
ATOM     15  C   UNL     1       2.533  -4.655  24.626  0.00  0.00    +0.020 A 
ATOM     16  C   UNL     1       2.348  -5.776  25.425  0.00  0.00    +0.041 A 
ATOM     17 CL   UNL     1       0.761  -6.365  25.720  0.00  0.00    -0.084 Cl
ATOM     18  C   UNL     1       3.447  -6.422  25.985  0.00  0.00    +0.020 A 
ATOM     19  C   UNL     1       4.740  -5.942  25.744  0.00  0.00    +0.010 A 
ENDBRANCH   8  13
ENDBRANCH   1   3
BRANCH   1  25
ATOM     20  C   UNL     1       8.768   3.305  23.228  0.00  0.00    +0.084 A 
ATOM     21  C   UNL     1       7.491   3.567  22.738  0.00  0.00    +0.030 A 
ATOM     22  C   UNL     1       6.448   2.684  23.034  0.00  0.00    +0.041 A 
ATOM     23  C   UNL     1       6.684   1.566  23.835  0.00  0.00    +0.137 A 
ATOM     24  F   UNL     1       5.631   0.802  24.158  0.00  0.00    -0.205 F 
ATOM     25  C   UNL     1       7.964   1.275  24.318  0.00  0.00    +0.094 A 
ATOM     26  C   UNL     1       9.012   2.121  23.939  0.00  0.00    +0.159 A 
ATOM     27  F   UNL     1      10.277   1.852  24.300  0.00  0.00    -0.203 F 
BRANCH  20  28
ATOM     28  N   UNL     1       9.812   4.285  23.038  0.00  0.00    -0.218 N 
ATOM     29  H   UNL     1       9.810   4.618  22.069  0.00  0.00    +0.173 HD
BRANCH  28  30
ATOM     30  S   UNL     1       9.714   5.675  24.020  0.00  0.00    +0.043 S 
ATOM     31  O   UNL     1       9.081   6.689  23.207  0.00  0.00    -0.155 OA
ATOM     32  O   UNL     1       9.199   5.295  25.317  0.00  0.00    -0.155 OA
BRANCH  30  33
ATOM     33  C   UNL     1      11.456   6.084  24.187  0.00  0.00    +0.188 C 
BRANCH  33  35
ATOM     34  C   UNL     1      13.156   5.634  22.360  0.00  0.00    +0.005 C 
ATOM     35  C   UNL     1      12.342   5.044  23.505  0.00  0.00    +0.021 C 
ENDBRANCH  33  35
ENDBRANCH  30  33
ENDBRANCH  28  30
ENDBRANCH  20  28
ENDBRANCH   1  25
TORSDOF 7
ENDMDL
MODEL 6
REMARK VINA RESULT:      -6.9      3.996      7.497
REMARK  Name = 
REMARK  8 active torsions:
REMARK  status: ('A' for Active; 'I' for Inactive)
REMARK    1  A    between atoms: C_1  and  C_2
REMARK    2  A    between atoms: C_2  and  C_3
REMARK    3  A    between atoms: C_3  and  S_4
REMARK    4  A    between atoms: S_4  and  N_7
REMARK    5  A    between atoms: N_7  and  C_8
REMARK    6  A    between atoms: C_11  and  C_12
REMARK    7  A    between atoms: C_12  and  C_14
REMARK    8  A    between atoms: C_20  and  C_23
REMARK                            x       y       z     vdW  Elec       q    Type
REMARK                         _______ _______ _______ _____ _____    ______ ____
ROOT
ATOM      1  C   UNL     1       6.309  -3.306  23.200  0.00  0.00    +0.201 C 
ATOM      2  O   UNL     1       5.680  -2.733  22.314  0.00  0.00    -0.286 OA
ENDROOT
BRANCH   1   3
ATOM      3  C   UNL     1       7.656  -2.859  23.570  0.00  0.00    +0.049 A 
ATOM      4  C   UNL     1       8.248  -1.552  23.596  0.00  0.00    +0.030 A 
ATOM      5  C   UNL     1       9.610  -1.724  23.819  0.00  0.00    +0.139 A 
ATOM      6  N   UNL     1      10.570  -0.785  23.780  0.00  0.00    -0.237 NA
ATOM      7  C   UNL     1      10.087   0.454  23.500  0.00  0.00    +0.121 A 
ATOM      8  C   UNL     1       8.746   0.815  23.330  0.00  0.00    +0.001 A 
ATOM      9  N   UNL     1       9.825  -3.040  24.110  0.00  0.00    -0.345 N 
ATOM     10  H   UNL     1      10.728  -3.422  24.355  0.00  0.00    +0.167 HD
ATOM     11  C   UNL     1       7.809  -0.228  23.409  0.00  0.00    +0.022 A 
ATOM     12  C   UNL     1       8.650  -3.733  23.995  0.00  0.00    +0.096 A 
BRANCH   8  13
ATOM     13  C   UNL     1       8.316   2.203  23.068  0.00  0.00    -0.016 A 
ATOM     14  C   UNL     1       7.218   2.471  22.226  0.00  0.00    +0.010 A 
ATOM     15  C   UNL     1       6.806   3.779  21.953  0.00  0.00    +0.020 A 
ATOM     16  C   UNL     1       7.479   4.849  22.529  0.00  0.00    +0.041 A 
ATOM     17 CL   UNL     1       6.966   6.457  22.207  0.00  0.00    -0.084 Cl
ATOM     18  C   UNL     1       8.567   4.618  23.367  0.00  0.00    +0.020 A 
ATOM     19  C   UNL     1       8.984   3.307  23.630  0.00  0.00    +0.010 A 
ENDBRANCH   8  13
ENDBRANCH   1   3
BRANCH   1  25
ATOM     20  C   UNL     1       4.755  -5.514  25.900  0.00  0.00    +0.084 A 
ATOM     21  C   UNL     1       4.579  -6.706  25.201  0.00  0.00    +0.030 A 
ATOM     22  C   UNL     1       4.941  -6.769  23.851  0.00  0.00    +0.041 A 
ATOM     23  C   UNL     1       5.497  -5.654  23.223  0.00  0.00    +0.137 A 
ATOM     24  F   UNL     1       5.905  -5.797  21.954  0.00  0.00    -0.205 F 
ATOM     25  C   UNL     1       5.661  -4.443  23.903  0.00  0.00    +0.094 A 
ATOM     26  C   UNL     1       5.212  -4.372  25.227  0.00  0.00    +0.159 A 
ATOM     27  F   UNL     1       5.264  -3.216  25.909  0.00  0.00    -0.203 F 
BRANCH  20  28
ATOM     28  N   UNL     1       4.510  -5.488  27.323  0.00  0.00    -0.218 N 
ATOM     29  H   UNL     1       3.719  -6.097  27.555  0.00  0.00    +0.173 HD
BRANCH  28  30
ATOM     30  S   UNL     1       5.806  -5.995  28.309  0.00  0.00    +0.043 S 
ATOM     31  O   UNL     1       5.692  -7.433  28.401  0.00  0.00    -0.155 OA
ATOM     32  O   UNL     1       7.016  -5.344  27.861  0.00  0.00    -0.155 OA
BRANCH  30  33
ATOM     33  C   UNL     1       5.317  -5.283  29.886  0.00  0.00    +0.188 C 
BRANCH  33  35
ATOM     34  C   UNL     1       3.817  -3.248  30.095  0.00  0.00    +0.005 C 
ATOM     35  C   UNL     1       3.887  -4.750  29.839  0.00  0.00    +0.021 C 
ENDBRANCH  33  35
ENDBRANCH  30  33
ENDBRANCH  28  30
ENDBRANCH  20  28
ENDBRANCH   1  25
TORSDOF 7
ENDMDL
MODEL 7
REMARK VINA RESULT:      -6.9      3.741      6.746
REMARK  Name = 
REMARK  8 active torsions:
REMARK  status: ('A' for Active; 'I' for Inactive)
REMARK    1  A    between atoms: C_1  and  C_2
REMARK    2  A    between atoms: C_2  and  C_3
REMARK    3  A    between atoms: C_3  and  S_4
REMARK    4  A    between atoms: S_4  and  N_7
REMARK    5  A    between atoms: N_7  and  C_8
REMARK    6  A    between atoms: C_11  and  C_12
REMARK    7  A    between atoms: C_12  and  C_14
REMARK    8  A    between atoms: C_20  and  C_23
REMARK                            x       y       z     vdW  Elec       q    Type
REMARK                         _______ _______ _______ _____ _____    ______ ____
ROOT
ATOM      1  C   UNL     1      10.214   0.148  24.385  0.00  0.00    +0.201 C 
ATOM      2  O   UNL     1      11.353   0.386  24.781  0.00  0.00    -0.286 OA
ENDROOT
BRANCH   1   3
ATOM      3  C   UNL     1       9.588   0.992  23.363  0.00  0.00    +0.049 A 
ATOM      4  C   UNL     1       8.702   2.116  23.471  0.00  0.00    +0.030 A 
ATOM      5  C   UNL     1       8.247   2.405  22.190  0.00  0.00    +0.139 A 
ATOM      6  N   UNL     1       7.295   3.286  21.839  0.00  0.00    -0.237 NA
ATOM      7  C   UNL     1       6.770   3.948  22.903  0.00  0.00    +0.121 A 
ATOM      8  C   UNL     1       7.166   3.840  24.240  0.00  0.00    +0.001 A 
ATOM      9  N   UNL     1       8.953   1.637  21.310  0.00  0.00    -0.345 N 
ATOM     10  H   UNL     1       8.844   1.685  20.307  0.00  0.00    +0.167 HD
ATOM     11  C   UNL     1       8.183   2.910  24.512  0.00  0.00    +0.022 A 
ATOM     12  C   UNL     1       9.789   0.801  22.001  0.00  0.00    +0.096 A 
BRANCH   8  13
ATOM     13  C   UNL     1       6.559   4.638  25.325  0.00  0.00    -0.016 A 
ATOM     14  C   UNL     1       5.166   4.848  25.371  0.00  0.00    +0.010 A 
ATOM     15  C   UNL     1       4.573   5.614  26.380  0.00  0.00    +0.020 A 
ATOM     16  C   UNL     1       5.366   6.178  27.373  0.00  0.00    +0.041 A 
ATOM     17 CL   UNL     1       4.640   7.108  28.622  0.00  0.00    -0.084 Cl
ATOM     18  C   UNL     1       6.745   5.988  27.356  0.00  0.00    +0.020 A 
ATOM     19  C   UNL     1       7.335   5.229  26.338  0.00  0.00    +0.010 A 
ENDBRANCH   8  13
ENDBRANCH   1   3
BRANCH   1  25
ATOM     20  C   UNL     1       8.791  -3.361  24.873  0.00  0.00    +0.084 A 
ATOM     21  C   UNL     1       7.990  -3.169  25.996  0.00  0.00    +0.030 A 
ATOM     22  C   UNL     1       7.945  -1.909  26.600  0.00  0.00    +0.041 A 
ATOM     23  C   UNL     1       8.677  -0.849  26.062  0.00  0.00    +0.137 A 
ATOM     24  F   UNL     1       8.528   0.356  26.629  0.00  0.00    -0.205 F 
ATOM     25  C   UNL     1       9.503  -1.028  24.948  0.00  0.00    +0.094 A 
ATOM     26  C   UNL     1       9.604  -2.316  24.410  0.00  0.00    +0.159 A 
ATOM     27  F   UNL     1      10.442  -2.573  23.393  0.00  0.00    -0.203 F 
BRANCH  20  28
ATOM     28  N   UNL     1       8.732  -4.622  24.171  0.00  0.00    -0.218 N 
ATOM     29  H   UNL     1       8.793  -5.399  24.837  0.00  0.00    +0.173 HD
BRANCH  28  30
ATOM     30  S   UNL     1       7.323  -4.894  23.250  0.00  0.00    +0.043 S 
ATOM     31  O   UNL     1       7.655  -5.957  22.327  0.00  0.00    -0.155 OA
ATOM     32  O   UNL     1       6.189  -4.974  24.144  0.00  0.00    -0.155 OA
BRANCH  30  33
ATOM     33  C   UNL     1       7.228  -3.352  22.331  0.00  0.00    +0.188 C 
BRANCH  33  35
ATOM     34  C   UNL     1       6.463  -1.050  23.074  0.00  0.00    +0.005 C 
ATOM     35  C   UNL     1       6.056  -2.494  22.802  0.00  0.00    +0.021 C 
ENDBRANCH  33  35
ENDBRANCH  30  33
ENDBRANCH  28  30
ENDBRANCH  20  28
ENDBRANCH   1  25
TORSDOF 7
ENDMDL
MODEL 8
REMARK VINA RESULT:      -6.8      2.876      3.703
REMARK  Name = 
REMARK  8 active torsions:
REMARK  status: ('A' for Active; 'I' for Inactive)
REMARK    1  A    between atoms: C_1  and  C_2
REMARK    2  A    between atoms: C_2  and  C_3
REMARK    3  A    between atoms: C_3  and  S_4
REMARK    4  A    between atoms: S_4  and  N_7
REMARK    5  A    between atoms: N_7  and  C_8
REMARK    6  A    between atoms: C_11  and  C_12
REMARK    7  A    between atoms: C_12  and  C_14
REMARK    8  A    between atoms: C_20  and  C_23
REMARK                            x       y       z     vdW  Elec       q    Type
REMARK                         _______ _______ _______ _____ _____    ______ ____
ROOT
ATOM      1  C   UNL     1       8.712  -3.929  24.224  0.00  0.00    +0.201 C 
ATOM      2  O   UNL     1       9.487  -4.853  24.456  0.00  0.00    -0.286 OA
ENDROOT
BRANCH   1   3
ATOM      3  C   UNL     1       7.452  -4.170  23.512  0.00  0.00    +0.049 A 
ATOM      4  C   UNL     1       6.202  -4.720  23.954  0.00  0.00    +0.030 A 
ATOM      5  C   UNL     1       5.419  -4.919  22.823  0.00  0.00    +0.139 A 
ATOM      6  N   UNL     1       4.231  -5.542  22.750  0.00  0.00    -0.237 NA
ATOM      7  C   UNL     1       3.795  -5.992  23.955  0.00  0.00    +0.121 A 
ATOM      8  C   UNL     1       4.414  -5.807  25.196  0.00  0.00    +0.001 A 
ATOM      9  N   UNL     1       6.061  -4.349  21.762  0.00  0.00    -0.345 N 
ATOM     10  H   UNL     1       5.682  -4.316  20.826  0.00  0.00    +0.167 HD
ATOM     11  C   UNL     1       5.642  -5.125  25.180  0.00  0.00    +0.022 A 
ATOM     12  C   UNL     1       7.276  -3.864  22.168  0.00  0.00    +0.096 A 
BRANCH   8  13
ATOM     13  C   UNL     1       3.837  -6.300  26.463  0.00  0.00    -0.016 A 
ATOM     14  C   UNL     1       2.484  -6.688  26.536  0.00  0.00    +0.010 A 
ATOM     15  C   UNL     1       1.915  -7.142  27.730  0.00  0.00    +0.020 A 
ATOM     16  C   UNL     1       2.695  -7.227  28.876  0.00  0.00    +0.041 A 
ATOM     17 CL   UNL     1       2.002  -7.798  30.342  0.00  0.00    -0.084 Cl
ATOM     18  C   UNL     1       4.035  -6.853  28.838  0.00  0.00    +0.020 A 
ATOM     19  C   UNL     1       4.599  -6.389  27.642  0.00  0.00    +0.010 A 
ENDBRANCH   8  13
ENDBRANCH   1   3
BRANCH   1  25
ATOM     20  C   UNL     1       8.842  -0.697  26.252  0.00  0.00    +0.084 A 
ATOM     21  C   UNL     1       9.683   0.081  25.459  0.00  0.00    +0.030 A 
ATOM     22  C   UNL     1      10.221  -0.464  24.290  0.00  0.00    +0.041 A 
ATOM     23  C   UNL     1       9.895  -1.767  23.910  0.00  0.00    +0.137 A 
ATOM     24  F   UNL     1      10.369  -2.208  22.737  0.00  0.00    -0.205 F 
ATOM     25  C   UNL     1       9.070  -2.570  24.705  0.00  0.00    +0.094 A 
ATOM     26  C   UNL     1       8.612  -2.039  25.916  0.00  0.00    +0.159 A 
ATOM     27  F   UNL     1       7.885  -2.785  26.763  0.00  0.00    -0.203 F 
BRANCH  20  28
ATOM     28  N   UNL     1       8.180  -0.091  27.384  0.00  0.00    -0.218 N 
ATOM     29  H   UNL     1       8.790   0.610  27.816  0.00  0.00    +0.173 HD
BRANCH  28  30
ATOM     30  S   UNL     1       6.709   0.702  27.047  0.00  0.00    +0.043 S 
ATOM     31  O   UNL     1       6.611   1.778  28.007  0.00  0.00    -0.155 OA
ATOM     32  O   UNL     1       6.617   0.929  25.621  0.00  0.00    -0.155 OA
BRANCH  30  33
ATOM     33  C   UNL     1       5.533  -0.579  27.504  0.00  0.00    +0.188 C 
BRANCH  33  35
ATOM     34  C   UNL     1       3.881  -2.293  26.630  0.00  0.00    +0.005 C 
ATOM     35  C   UNL     1       4.954  -1.271  26.273  0.00  0.00    +0.021 C 
ENDBRANCH  33  35
ENDBRANCH  30  33
ENDBRANCH  28  30
ENDBRANCH  20  28
ENDBRANCH   1  25
TORSDOF 7
ENDMDL
MODEL 9
REMARK VINA RESULT:      -6.8      2.884      5.694
REMARK  Name = 
REMARK  8 active torsions:
REMARK  status: ('A' for Active; 'I' for Inactive)
REMARK    1  A    between atoms: C_1  and  C_2
REMARK    2  A    between atoms: C_2  and  C_3
REMARK    3  A    between atoms: C_3  and  S_4
REMARK    4  A    between atoms: S_4  and  N_7
REMARK    5  A    between atoms: N_7  and  C_8
REMARK    6  A    between atoms: C_11  and  C_12
REMARK    7  A    between atoms: C_12  and  C_14
REMARK    8  A    between atoms: C_20  and  C_23
REMARK                            x       y       z     vdW  Elec       q    Type
REMARK                         _______ _______ _______ _____ _____    ______ ____
ROOT
ATOM      1  C   UNL     1      10.049   0.160  24.436  0.00  0.00    +0.201 C 
ATOM      2  O   UNL     1      11.177   0.359  24.880  0.00  0.00    -0.286 OA
ENDROOT
BRANCH   1   3
ATOM      3  C   UNL     1       9.459   1.080  23.458  0.00  0.00    +0.049 A 
ATOM      4  C   UNL     1       8.177   1.724  23.413  0.00  0.00    +0.030 A 
ATOM      5  C   UNL     1       8.061   2.318  22.161  0.00  0.00    +0.139 A 
ATOM      6  N   UNL     1       6.974   2.906  21.633  0.00  0.00    -0.237 NA
ATOM      7  C   UNL     1       5.908   2.901  22.475  0.00  0.00    +0.121 A 
ATOM      8  C   UNL     1       5.876   2.423  23.789  0.00  0.00    +0.001 A 
ATOM      9  N   UNL     1       9.269   2.219  21.535  0.00  0.00    -0.345 N 
ATOM     10  H   UNL     1       9.465   2.610  20.624  0.00  0.00    +0.167 HD
ATOM     11  C   UNL     1       7.064   1.844  24.266  0.00  0.00    +0.022 A 
ATOM     12  C   UNL     1      10.133   1.502  22.318  0.00  0.00    +0.096 A 
BRANCH   8  13
ATOM     13  C   UNL     1       4.674   2.500  24.643  0.00  0.00    -0.016 A 
ATOM     14  C   UNL     1       4.647   1.879  25.908  0.00  0.00    +0.010 A 
ATOM     15  C   UNL     1       3.513   1.926  26.724  0.00  0.00    +0.020 A 
ATOM     16  C   UNL     1       2.382   2.609  26.293  0.00  0.00    +0.041 A 
ATOM     17 CL   UNL     1       0.991   2.682  27.300  0.00  0.00    -0.084 Cl
ATOM     18  C   UNL     1       2.376   3.235  25.049  0.00  0.00    +0.020 A 
ATOM     19  C   UNL     1       3.511   3.176  24.231  0.00  0.00    +0.010 A 
ENDBRANCH   8  13
ENDBRANCH   1   3
BRANCH   1  25
ATOM     20  C   UNL     1       8.509  -3.330  24.594  0.00  0.00    +0.084 A 
ATOM     21  C   UNL     1       7.754  -3.236  25.761  0.00  0.00    +0.030 A 
ATOM     22  C   UNL     1       7.778  -2.048  26.498  0.00  0.00    +0.041 A 
ATOM     23  C   UNL     1       8.531  -0.961  26.051  0.00  0.00    +0.137 A 
ATOM     24  F   UNL     1       8.447   0.180  26.750  0.00  0.00    -0.205 F 
ATOM     25  C   UNL     1       9.312  -1.046  24.894  0.00  0.00    +0.094 A 
ATOM     26  C   UNL     1       9.347  -2.270  24.217  0.00  0.00    +0.159 A 
ATOM     27  F   UNL     1      10.140  -2.442  23.148  0.00  0.00    -0.203 F 
BRANCH  20  28
ATOM     28  N   UNL     1       8.380  -4.504  23.763  0.00  0.00    -0.218 N 
ATOM     29  H   UNL     1       8.208  -5.330  24.344  0.00  0.00    +0.173 HD
BRANCH  28  30
ATOM     30  S   UNL     1       7.123  -4.463  22.610  0.00  0.00    +0.043 S 
ATOM     31  O   UNL     1       6.930  -3.068  22.287  0.00  0.00    -0.155 OA
ATOM     32  O   UNL     1       7.387  -5.461  21.597  0.00  0.00    -0.155 OA
BRANCH  30  33
ATOM     33  C   UNL     1       5.738  -5.013  23.615  0.00  0.00    +0.188 C 
BRANCH  33  35
ATOM     34  C   UNL     1       4.172  -3.354  24.723  0.00  0.00    +0.005 C 
ATOM     35  C   UNL     1       4.526  -4.101  23.442  0.00  0.00    +0.021 C 
ENDBRANCH  33  35
ENDBRANCH  30  33
ENDBRANCH  28  30
ENDBRANCH  20  28
ENDBRANCH   1  25
TORSDOF 7
ENDMDL
