MODEL 1
REMARK VINA RESULT:      -5.6      0.000      0.000
REMARK  Name = 
REMARK  9 active torsions:
REMARK  status: ('A' for Active; 'I' for Inactive)
REMARK    1  A    between atoms: C_1  and  C_2
REMARK    2  A    between atoms: C_2  and  C_3
REMARK    3  A    between atoms: C_2  and  C_4
REMARK    4  A    between atoms: C_2  and  N_5
REMARK    5  A    between atoms: N_5  and  C_6
REMARK    6  A    between atoms: C_6  and  C_7
REMARK    7  A    between atoms: C_7  and  O_8
REMARK    8  A    between atoms: C_7  and  C_9
REMARK    9  A    between atoms: C_13  and  N_14
REMARK                            x       y       z     vdW  Elec       q    Type
REMARK                         _______ _______ _______ _____ _____    ______ ____
ROOT
ATOM      1  C   UNL     1       8.564  -4.320  24.245  0.00  0.00    -0.015 A 
ATOM      2  C   UNL     1       7.926  -5.252  23.414  0.00  0.00    +0.028 A 
ATOM      3  C   UNL     1       6.980  -4.838  22.468  0.00  0.00    +0.063 A 
ATOM      4 CL   UNL     1       6.204  -6.054  21.510  0.00  0.00    -0.082 Cl
ATOM      5  C   UNL     1       6.663  -3.480  22.295  0.00  0.00    +0.062 A 
ATOM      6  C   UNL     1       7.288  -2.556  23.153  0.00  0.00    +0.063 A 
ATOM      7 CL   UNL     1       6.903  -0.870  23.064  0.00  0.00    -0.082 Cl
ATOM      8  C   UNL     1       8.235  -2.965  24.100  0.00  0.00    +0.028 A 
ENDROOT
BRANCH   5   9
ATOM      9  N   UNL     1       5.589  -3.085  21.463  0.00  0.00    -0.356 N 
ATOM     10  H   UNL     1       5.894  -2.716  20.567  0.00  0.00    +0.142 HD
ATOM     11  H   UNL     1       4.911  -2.494  21.941  0.00  0.00    +0.142 HD
ENDBRANCH   5   9
BRANCH   1  12
ATOM     12  C   UNL     1       9.499  -4.752  25.361  0.00  0.00    +0.158 C 
BRANCH  12  13
ATOM     13  O   UNL     1       9.857  -6.125  25.181  0.00  0.00    -0.386 OA
ATOM     14  H   UNL     1       9.037  -6.636  25.104  0.00  0.00    +0.210 HD
ENDBRANCH  12  13
BRANCH  12  15
ATOM     15  C   UNL     1       8.817  -4.516  26.735  0.00  0.00    +0.117 C 
BRANCH  15  16
ATOM     16  N   UNL     1       7.981  -5.645  27.167  0.00  0.00    -0.309 NA
ATOM     17  H   UNL     1       8.153  -6.455  26.571  0.00  0.00    +0.123 HD
BRANCH  16  19
ATOM     18  C   UNL     1       5.733  -6.089  26.160  0.00  0.00    +0.027 C 
ATOM     19  C   UNL     1       6.533  -5.365  27.257  0.00  0.00    +0.011 C 
ATOM     20  C   UNL     1       6.052  -5.885  28.625  0.00  0.00    +0.027 C 
ATOM     21  C   UNL     1       6.251  -3.852  27.198  0.00  0.00    +0.027 C 
ENDBRANCH  16  19
ENDBRANCH  15  16
ENDBRANCH  12  15
ENDBRANCH   1  12
TORSDOF 6
ENDMDL
MODEL 2
REMARK VINA RESULT:      -5.4      2.558      4.241
REMARK  Name = 
REMARK  9 active torsions:
REMARK  status: ('A' for Active; 'I' for Inactive)
REMARK    1  A    between atoms: C_1  and  C_2
REMARK    2  A    between atoms: C_2  and  C_3
REMARK    3  A    between atoms: C_2  and  C_4
REMARK    4  A    between atoms: C_2  and  N_5
REMARK    5  A    between atoms: N_5  and  C_6
REMARK    6  A    between atoms: C_6  and  C_7
REMARK    7  A    between atoms: C_7  and  O_8
REMARK    8  A    between atoms: C_7  and  C_9
REMARK    9  A    between atoms: C_13  and  N_14
REMARK                            x       y       z     vdW  Elec       q    Type
REMARK                         _______ _______ _______ _____ _____    ______ ____
ROOT
ATOM      1  C   UNL     1       7.674  -5.164  24.342  0.00  0.00    -0.015 A 
ATOM      2  C   UNL     1       7.493  -5.310  22.959  0.00  0.00    +0.028 A 
ATOM      3  C   UNL     1       6.241  -5.648  22.433  0.00  0.00    +0.063 A 
ATOM      4 CL   UNL     1       6.110  -5.852  20.718  0.00  0.00    -0.082 Cl
ATOM      5  C   UNL     1       5.119  -5.818  23.262  0.00  0.00    +0.062 A 
ATOM      6  C   UNL     1       5.318  -5.698  24.650  0.00  0.00    +0.063 A 
ATOM      7 CL   UNL     1       4.010  -5.965  25.753  0.00  0.00    -0.082 Cl
ATOM      8  C   UNL     1       6.568  -5.359  25.182  0.00  0.00    +0.028 A 
ENDROOT
BRANCH   5   9
ATOM      9  N   UNL     1       3.904  -6.325  22.744  0.00  0.00    -0.356 N 
ATOM     10  H   UNL     1       3.659  -7.235  23.123  0.00  0.00    +0.142 HD
ATOM     11  H   UNL     1       3.852  -6.277  21.728  0.00  0.00    +0.142 HD
ENDBRANCH   5   9
BRANCH   1  12
ATOM     12  C   UNL     1       9.044  -4.921  24.949  0.00  0.00    +0.158 C 
BRANCH  12  13
ATOM     13  O   UNL     1       9.119  -5.552  26.230  0.00  0.00    -0.386 OA
ATOM     14  H   UNL     1       8.660  -6.404  26.166  0.00  0.00    +0.210 HD
ENDBRANCH  12  13
BRANCH  12  15
ATOM     15  C   UNL     1       9.311  -3.396  25.048  0.00  0.00    +0.117 C 
BRANCH  15  16
ATOM     16  N   UNL     1      10.012  -2.853  23.876  0.00  0.00    -0.309 NA
ATOM     17  H   UNL     1      11.019  -2.855  24.041  0.00  0.00    +0.123 HD
BRANCH  16  19
ATOM     18  C   UNL     1       9.926  -1.247  21.959  0.00  0.00    +0.027 C 
ATOM     19  C   UNL     1       9.562  -1.519  23.429  0.00  0.00    +0.011 C 
ATOM     20  C   UNL     1       8.027  -1.490  23.556  0.00  0.00    +0.027 C 
ATOM     21  C   UNL     1      10.134  -0.405  24.325  0.00  0.00    +0.027 C 
ENDBRANCH  16  19
ENDBRANCH  15  16
ENDBRANCH  12  15
ENDBRANCH   1  12
TORSDOF 6
ENDMDL
MODEL 3
REMARK VINA RESULT:      -5.3      3.815      5.877
REMARK  Name = 
REMARK  9 active torsions:
REMARK  status: ('A' for Active; 'I' for Inactive)
REMARK    1  A    between atoms: C_1  and  C_2
REMARK    2  A    between atoms: C_2  and  C_3
REMARK    3  A    between atoms: C_2  and  C_4
REMARK    4  A    between atoms: C_2  and  N_5
REMARK    5  A    between atoms: N_5  and  C_6
REMARK    6  A    between atoms: C_6  and  C_7
REMARK    7  A    between atoms: C_7  and  O_8
REMARK    8  A    between atoms: C_7  and  C_9
REMARK    9  A    between atoms: C_13  and  N_14
REMARK                            x       y       z     vdW  Elec       q    Type
REMARK                         _______ _______ _______ _____ _____    ______ ____
ROOT
ATOM      1  C   UNL     1       8.435  -2.310  22.759  0.00  0.00    -0.015 A 
ATOM      2  C   UNL     1       7.055  -2.553  22.698  0.00  0.00    +0.028 A 
ATOM      3  C   UNL     1       6.456  -3.496  23.542  0.00  0.00    +0.063 A 
ATOM      4 CL   UNL     1       4.754  -3.770  23.374  0.00  0.00    -0.082 Cl
ATOM      5  C   UNL     1       7.205  -4.203  24.498  0.00  0.00    +0.062 A 
ATOM      6  C   UNL     1       8.592  -3.973  24.532  0.00  0.00    +0.063 A 
ATOM      7 CL   UNL     1       9.606  -4.854  25.626  0.00  0.00    -0.082 Cl
ATOM      8  C   UNL     1       9.197  -3.031  23.690  0.00  0.00    +0.028 A 
ENDROOT
BRANCH   5   9
ATOM      9  N   UNL     1       6.629  -5.272  25.226  0.00  0.00    -0.356 N 
ATOM     10  H   UNL     1       6.496  -5.057  26.210  0.00  0.00    +0.142 HD
ATOM     11  H   UNL     1       7.092  -6.163  25.060  0.00  0.00    +0.142 HD
ENDBRANCH   5   9
BRANCH   1  12
ATOM     12  C   UNL     1       9.129  -1.388  21.773  0.00  0.00    +0.158 C 
BRANCH  12  13
ATOM     13  O   UNL     1      10.541  -1.612  21.820  0.00  0.00    -0.386 OA
ATOM     14  H   UNL     1      10.810  -1.606  22.752  0.00  0.00    +0.210 HD
ENDBRANCH  12  13
BRANCH  12  15
ATOM     15  C   UNL     1       8.776   0.088  22.099  0.00  0.00    +0.117 C 
BRANCH  15  16
ATOM     16  N   UNL     1       9.959   0.951  22.231  0.00  0.00    -0.309 NA
ATOM     17  H   UNL     1      10.797   0.436  21.960  0.00  0.00    +0.123 HD
BRANCH  16  19
ATOM     18  C   UNL     1      10.747   2.990  23.449  0.00  0.00    +0.027 C 
ATOM     19  C   UNL     1      10.141   1.580  23.555  0.00  0.00    +0.011 C 
ATOM     20  C   UNL     1       8.745   1.705  24.196  0.00  0.00    +0.027 C 
ATOM     21  C   UNL     1      11.010   0.705  24.477  0.00  0.00    +0.027 C 
ENDBRANCH  16  19
ENDBRANCH  15  16
ENDBRANCH  12  15
ENDBRANCH   1  12
TORSDOF 6
ENDMDL
MODEL 4
REMARK VINA RESULT:      -5.3      3.029      4.477
REMARK  Name = 
REMARK  9 active torsions:
REMARK  status: ('A' for Active; 'I' for Inactive)
REMARK    1  A    between atoms: C_1  and  C_2
REMARK    2  A    between atoms: C_2  and  C_3
REMARK    3  A    between atoms: C_2  and  C_4
REMARK    4  A    between atoms: C_2  and  N_5
REMARK    5  A    between atoms: N_5  and  C_6
REMARK    6  A    between atoms: C_6  and  C_7
REMARK    7  A    between atoms: C_7  and  O_8
REMARK    8  A    between atoms: C_7  and  C_9
REMARK    9  A    between atoms: C_13  and  N_14
REMARK                            x       y       z     vdW  Elec       q    Type
REMARK                         _______ _______ _______ _____ _____    ______ ____
ROOT
ATOM      1  C   UNL     1       8.926  -3.209  25.024  0.00  0.00    -0.015 A 
ATOM      2  C   UNL     1       8.445  -2.470  26.115  0.00  0.00    +0.028 A 
ATOM      3  C   UNL     1       8.582  -1.078  26.152  0.00  0.00    +0.063 A 
ATOM      4 CL   UNL     1       8.001  -0.242  27.554  0.00  0.00    -0.082 Cl
ATOM      5  C   UNL     1       9.172  -0.370  25.091  0.00  0.00    +0.062 A 
ATOM      6  C   UNL     1       9.678  -1.124  24.015  0.00  0.00    +0.063 A 
ATOM      7 CL   UNL     1      10.488  -0.345  22.698  0.00  0.00    -0.082 Cl
ATOM      8  C   UNL     1       9.542  -2.517  23.972  0.00  0.00    +0.028 A 
ENDROOT
BRANCH   5   9
ATOM      9  N   UNL     1       9.462   1.010  25.209  0.00  0.00    -0.356 N 
ATOM     10  H   UNL     1       8.728   1.604  24.835  0.00  0.00    +0.142 HD
ATOM     11  H   UNL     1      10.394   1.252  24.878  0.00  0.00    +0.142 HD
ENDBRANCH   5   9
BRANCH   1  12
ATOM     12  C   UNL     1       8.903  -4.727  25.014  0.00  0.00    +0.158 C 
BRANCH  12  13
ATOM     13  O   UNL     1      10.243  -5.226  24.993  0.00  0.00    -0.386 OA
ATOM     14  H   UNL     1      10.231  -6.117  25.376  0.00  0.00    +0.210 HD
ENDBRANCH  12  13
BRANCH  12  15
ATOM     15  C   UNL     1       8.089  -5.230  23.792  0.00  0.00    +0.117 C 
BRANCH  15  16
ATOM     16  N   UNL     1       6.638  -5.061  23.954  0.00  0.00    -0.309 NA
ATOM     17  H   UNL     1       6.261  -5.816  24.527  0.00  0.00    +0.123 HD
BRANCH  16  19
ATOM     18  C   UNL     1       6.526  -5.694  21.535  0.00  0.00    +0.027 C 
ATOM     19  C   UNL     1       5.870  -4.929  22.699  0.00  0.00    +0.011 C 
ATOM     20  C   UNL     1       4.478  -5.539  22.950  0.00  0.00    +0.027 C 
ATOM     21  C   UNL     1       5.679  -3.451  22.312  0.00  0.00    +0.027 C 
ENDBRANCH  16  19
ENDBRANCH  15  16
ENDBRANCH  12  15
ENDBRANCH   1  12
TORSDOF 6
ENDMDL
MODEL 5
REMARK VINA RESULT:      -5.3      3.699      5.823
REMARK  Name = 
REMARK  9 active torsions:
REMARK  status: ('A' for Active; 'I' for Inactive)
REMARK    1  A    between atoms: C_1  and  C_2
REMARK    2  A    between atoms: C_2  and  C_3
REMARK    3  A    between atoms: C_2  and  C_4
REMARK    4  A    between atoms: C_2  and  N_5
REMARK    5  A    between atoms: N_5  and  C_6
REMARK    6  A    between atoms: C_6  and  C_7
REMARK    7  A    between atoms: C_7  and  O_8
REMARK    8  A    between atoms: C_7  and  C_9
REMARK    9  A    between atoms: C_13  and  N_14
REMARK                            x       y       z     vdW  Elec       q    Type
REMARK                         _______ _______ _______ _____ _____    ______ ____
ROOT
ATOM      1  C   UNL     1       8.509  -2.599  22.733  0.00  0.00    -0.015 A 
ATOM      2  C   UNL     1       9.038  -2.966  23.979  0.00  0.00    +0.028 A 
ATOM      3  C   UNL     1       8.380  -3.899  24.788  0.00  0.00    +0.063 A 
ATOM      4 CL   UNL     1       9.075  -4.268  26.331  0.00  0.00    -0.082 Cl
ATOM      5  C   UNL     1       7.192  -4.523  24.371  0.00  0.00    +0.062 A 
ATOM      6  C   UNL     1       6.654  -4.126  23.133  0.00  0.00    +0.063 A 
ATOM      7 CL   UNL     1       5.154  -4.785  22.571  0.00  0.00    -0.082 Cl
ATOM      8  C   UNL     1       7.308  -3.194  22.318  0.00  0.00    +0.028 A 
ENDROOT
BRANCH   5   9
ATOM      9  N   UNL     1       6.445  -5.332  25.260  0.00  0.00    -0.356 N 
ATOM     10  H   UNL     1       6.799  -5.307  26.212  0.00  0.00    +0.142 HD
ATOM     11  H   UNL     1       6.286  -6.273  24.906  0.00  0.00    +0.142 HD
ENDBRANCH   5   9
BRANCH   1  12
ATOM     12  C   UNL     1       9.133  -1.500  21.891  0.00  0.00    +0.158 C 
BRANCH  12  13
ATOM     13  O   UNL     1      10.554  -1.662  21.869  0.00  0.00    -0.386 OA
ATOM     14  H   UNL     1      10.935  -0.864  21.471  0.00  0.00    +0.210 HD
ENDBRANCH  12  13
BRANCH  12  15
ATOM     15  C   UNL     1       8.726  -0.113  22.456  0.00  0.00    +0.117 C 
BRANCH  15  16
ATOM     16  N   UNL     1       9.826   0.862  22.444  0.00  0.00    -0.309 NA
ATOM     17  H   UNL     1      10.679   0.421  22.098  0.00  0.00    +0.123 HD
BRANCH  16  19
ATOM     18  C   UNL     1       8.786   1.775  24.529  0.00  0.00    +0.027 C 
ATOM     19  C   UNL     1      10.080   1.549  23.727  0.00  0.00    +0.011 C 
ATOM     20  C   UNL     1      11.005   0.637  24.556  0.00  0.00    +0.027 C 
ATOM     21  C   UNL     1      10.804   2.891  23.511  0.00  0.00    +0.027 C 
ENDBRANCH  16  19
ENDBRANCH  15  16
ENDBRANCH  12  15
ENDBRANCH   1  12
TORSDOF 6
ENDMDL
MODEL 6
REMARK VINA RESULT:      -5.2      3.024      4.346
REMARK  Name = 
REMARK  9 active torsions:
REMARK  status: ('A' for Active; 'I' for Inactive)
REMARK    1  A    between atoms: C_1  and  C_2
REMARK    2  A    between atoms: C_2  and  C_3
REMARK    3  A    between atoms: C_2  and  C_4
REMARK    4  A    between atoms: C_2  and  N_5
REMARK    5  A    between atoms: N_5  and  C_6
REMARK    6  A    between atoms: C_6  and  C_7
REMARK    7  A    between atoms: C_7  and  O_8
REMARK    8  A    between atoms: C_7  and  C_9
REMARK    9  A    between atoms: C_13  and  N_14
REMARK                            x       y       z     vdW  Elec       q    Type
REMARK                         _______ _______ _______ _____ _____    ______ ____
ROOT
ATOM      1  C   UNL     1       9.042  -3.235  25.043  0.00  0.00    -0.015 A 
ATOM      2  C   UNL     1       9.649  -2.520  24.000  0.00  0.00    +0.028 A 
ATOM      3  C   UNL     1       9.737  -1.124  24.047  0.00  0.00    +0.063 A 
ATOM      4 CL   UNL     1      10.462  -0.312  22.700  0.00  0.00    -0.082 Cl
ATOM      5  C   UNL     1       9.256  -0.396  25.148  0.00  0.00    +0.062 A 
ATOM      6  C   UNL     1       8.623  -1.120  26.175  0.00  0.00    +0.063 A 
ATOM      7 CL   UNL     1       7.933  -0.301  27.536  0.00  0.00    -0.082 Cl
ATOM      8  C   UNL     1       8.533  -2.517  26.134  0.00  0.00    +0.028 A 
ENDROOT
BRANCH   5   9
ATOM      9  N   UNL     1       9.193   1.018  25.113  0.00  0.00    -0.356 N 
ATOM     10  H   UNL     1       9.497   1.451  25.980  0.00  0.00    +0.142 HD
ATOM     11  H   UNL     1       8.301   1.369  24.769  0.00  0.00    +0.142 HD
ENDBRANCH   5   9
BRANCH   1  12
ATOM     12  C   UNL     1       8.821  -4.735  24.962  0.00  0.00    +0.158 C 
BRANCH  12  13
ATOM     13  O   UNL     1      10.085  -5.405  24.932  0.00  0.00    -0.386 OA
ATOM     14  H   UNL     1      10.778  -4.730  24.999  0.00  0.00    +0.210 HD
ENDBRANCH  12  13
BRANCH  12  15
ATOM     15  C   UNL     1       7.968  -5.072  23.709  0.00  0.00    +0.117 C 
BRANCH  15  16
ATOM     16  N   UNL     1       6.522  -4.973  23.951  0.00  0.00    -0.309 NA
ATOM     17  H   UNL     1       6.189  -5.815  24.423  0.00  0.00    +0.123 HD
BRANCH  16  19
ATOM     18  C   UNL     1       6.088  -5.565  21.558  0.00  0.00    +0.027 C 
ATOM     19  C   UNL     1       5.698  -4.685  22.759  0.00  0.00    +0.011 C 
ATOM     20  C   UNL     1       4.236  -5.001  23.129  0.00  0.00    +0.027 C 
ATOM     21  C   UNL     1       5.779  -3.199  22.368  0.00  0.00    +0.027 C 
ENDBRANCH  16  19
ENDBRANCH  15  16
ENDBRANCH  12  15
ENDBRANCH   1  12
TORSDOF 6
ENDMDL
MODEL 7
REMARK VINA RESULT:      -5.1      2.502      4.371
REMARK  Name = 
REMARK  9 active torsions:
REMARK  status: ('A' for Active; 'I' for Inactive)
REMARK    1  A    between atoms: C_1  and  C_2
REMARK    2  A    between atoms: C_2  and  C_3
REMARK    3  A    between atoms: C_2  and  C_4
REMARK    4  A    between atoms: C_2  and  N_5
REMARK    5  A    between atoms: N_5  and  C_6
REMARK    6  A    between atoms: C_6  and  C_7
REMARK    7  A    between atoms: C_7  and  O_8
REMARK    8  A    between atoms: C_7  and  C_9
REMARK    9  A    between atoms: C_13  and  N_14
REMARK                            x       y       z     vdW  Elec       q    Type
REMARK                         _______ _______ _______ _____ _____    ______ ____
ROOT
ATOM      1  C   UNL     1       7.748  -5.132  24.508  0.00  0.00    -0.015 A 
ATOM      2  C   UNL     1       6.641  -5.399  25.327  0.00  0.00    +0.028 A 
ATOM      3  C   UNL     1       5.419  -5.793  24.771  0.00  0.00    +0.063 A 
ATOM      4 CL   UNL     1       4.088  -6.064  25.846  0.00  0.00    -0.082 Cl
ATOM      5  C   UNL     1       5.266  -5.967  23.384  0.00  0.00    +0.062 A 
ATOM      6  C   UNL     1       6.374  -5.667  22.570  0.00  0.00    +0.063 A 
ATOM      7 CL   UNL     1       6.256  -5.780  20.846  0.00  0.00    -0.082 Cl
ATOM      8  C   UNL     1       7.599  -5.274  23.121  0.00  0.00    +0.028 A 
ENDROOT
BRANCH   5   9
ATOM      9  N   UNL     1       3.990  -6.197  22.817  0.00  0.00    -0.356 N 
ATOM     10  H   UNL     1       3.803  -5.611  22.008  0.00  0.00    +0.142 HD
ATOM     11  H   UNL     1       3.240  -6.194  23.507  0.00  0.00    +0.142 HD
ENDBRANCH   5   9
BRANCH   1  12
ATOM     12  C   UNL     1       9.046  -4.583  25.073  0.00  0.00    +0.158 C 
BRANCH  12  13
ATOM     13  O   UNL     1       9.265  -5.121  26.381  0.00  0.00    -0.386 OA
ATOM     14  H   UNL     1       9.619  -6.017  26.275  0.00  0.00    +0.210 HD
ENDBRANCH  12  13
BRANCH  12  15
ATOM     15  C   UNL     1       8.994  -3.032  25.095  0.00  0.00    +0.117 C 
BRANCH  15  16
ATOM     16  N   UNL     1       9.743  -2.412  23.993  0.00  0.00    -0.309 NA
ATOM     17  H   UNL     1      10.641  -2.067  24.332  0.00  0.00    +0.123 HD
BRANCH  16  19
ATOM     18  C   UNL     1       7.497  -1.548  23.303  0.00  0.00    +0.027 C 
ATOM     19  C   UNL     1       9.024  -1.354  23.254  0.00  0.00    +0.011 C 
ATOM     20  C   UNL     1       9.359  -0.014  23.937  0.00  0.00    +0.027 C 
ATOM     21  C   UNL     1       9.494  -1.273  21.791  0.00  0.00    +0.027 C 
ENDBRANCH  16  19
ENDBRANCH  15  16
ENDBRANCH  12  15
ENDBRANCH   1  12
TORSDOF 6
ENDMDL
MODEL 8
REMARK VINA RESULT:      -5.0      3.222      5.729
REMARK  Name = 
REMARK  9 active torsions:
REMARK  status: ('A' for Active; 'I' for Inactive)
REMARK    1  A    between atoms: C_1  and  C_2
REMARK    2  A    between atoms: C_2  and  C_3
REMARK    3  A    between atoms: C_2  and  C_4
REMARK    4  A    between atoms: C_2  and  N_5
REMARK    5  A    between atoms: N_5  and  C_6
REMARK    6  A    between atoms: C_6  and  C_7
REMARK    7  A    between atoms: C_7  and  O_8
REMARK    8  A    between atoms: C_7  and  C_9
REMARK    9  A    between atoms: C_13  and  N_14
REMARK                            x       y       z     vdW  Elec       q    Type
REMARK                         _______ _______ _______ _____ _____    ______ ____
ROOT
ATOM      1  C   UNL     1       6.650  -3.681  23.934  0.00  0.00    -0.015 A 
ATOM      2  C   UNL     1       7.988  -4.011  24.192  0.00  0.00    +0.028 A 
ATOM      3  C   UNL     1       8.327  -4.820  25.282  0.00  0.00    +0.063 A 
ATOM      4 CL   UNL     1      10.005  -5.147  25.559  0.00  0.00    -0.082 Cl
ATOM      5  C   UNL     1       7.344  -5.356  26.131  0.00  0.00    +0.062 A 
ATOM      6  C   UNL     1       6.007  -4.994  25.881  0.00  0.00    +0.063 A 
ATOM      7 CL   UNL     1       4.736  -5.546  26.919  0.00  0.00    -0.082 Cl
ATOM      8  C   UNL     1       5.662  -4.186  24.791  0.00  0.00    +0.028 A 
ENDROOT
BRANCH   5   9
ATOM      9  N   UNL     1       7.702  -6.028  27.324  0.00  0.00    -0.356 N 
ATOM     10  H   UNL     1       8.614  -6.472  27.272  0.00  0.00    +0.142 HD
ATOM     11  H   UNL     1       6.967  -6.640  27.674  0.00  0.00    +0.142 HD
ENDBRANCH   5   9
BRANCH   1  12
ATOM     12  C   UNL     1       6.264  -2.705  22.835  0.00  0.00    +0.158 C 
BRANCH  12  13
ATOM     13  O   UNL     1       5.486  -3.383  21.844  0.00  0.00    -0.386 OA
ATOM     14  H   UNL     1       5.105  -4.173  22.259  0.00  0.00    +0.210 HD
ENDBRANCH  12  13
BRANCH  12  15
ATOM     15  C   UNL     1       7.542  -2.074  22.222  0.00  0.00    +0.117 C 
BRANCH  15  16
ATOM     16  N   UNL     1       7.833  -0.732  22.745  0.00  0.00    -0.309 NA
ATOM     17  H   UNL     1       7.256  -0.039  22.267  0.00  0.00    +0.123 HD
BRANCH  16  19
ATOM     18  C   UNL     1       9.523   0.783  21.690  0.00  0.00    +0.027 C 
ATOM     19  C   UNL     1       9.255  -0.333  22.715  0.00  0.00    +0.011 C 
ATOM     20  C   UNL     1       9.606   0.207  24.115  0.00  0.00    +0.027 C 
ATOM     21  C   UNL     1      10.169  -1.538  22.427  0.00  0.00    +0.027 C 
ENDBRANCH  16  19
ENDBRANCH  15  16
ENDBRANCH  12  15
ENDBRANCH   1  12
TORSDOF 6
ENDMDL
MODEL 9
REMARK VINA RESULT:      -5.0      3.048      5.107
REMARK  Name = 
REMARK  9 active torsions:
REMARK  status: ('A' for Active; 'I' for Inactive)
REMARK    1  A    between atoms: C_1  and  C_2
REMARK    2  A    between atoms: C_2  and  C_3
REMARK    3  A    between atoms: C_2  and  C_4
REMARK    4  A    between atoms: C_2  and  N_5
REMARK    5  A    between atoms: N_5  and  C_6
REMARK    6  A    between atoms: C_6  and  C_7
REMARK    7  A    between atoms: C_7  and  O_8
REMARK    8  A    between atoms: C_7  and  C_9
REMARK    9  A    between atoms: C_13  and  N_14
REMARK                            x       y       z     vdW  Elec       q    Type
REMARK                         _______ _______ _______ _____ _____    ______ ____
ROOT
ATOM      1  C   UNL     1       7.844  -4.269  24.082  0.00  0.00    -0.015 A 
ATOM      2  C   UNL     1       7.004  -4.748  25.097  0.00  0.00    +0.028 A 
ATOM      3  C   UNL     1       5.895  -5.545  24.791  0.00  0.00    +0.063 A 
ATOM      4 CL   UNL     1       4.881  -6.062  26.097  0.00  0.00    -0.082 Cl
ATOM      5  C   UNL     1       5.604  -5.920  23.468  0.00  0.00    +0.062 A 
ATOM      6  C   UNL     1       6.436  -5.410  22.455  0.00  0.00    +0.063 A 
ATOM      7 CL   UNL     1       6.111  -5.757  20.790  0.00  0.00    -0.082 Cl
ATOM      8  C   UNL     1       7.548  -4.613  22.755  0.00  0.00    +0.028 A 
ENDROOT
BRANCH   5   9
ATOM      9  N   UNL     1       4.393  -6.579  23.149  0.00  0.00    -0.356 N 
ATOM     10  H   UNL     1       4.450  -7.588  23.248  0.00  0.00    +0.142 HD
ATOM     11  H   UNL     1       3.996  -6.276  22.261  0.00  0.00    +0.142 HD
ENDBRANCH   5   9
BRANCH   1  12
ATOM     12  C   UNL     1       8.978  -3.302  24.372  0.00  0.00    +0.158 C 
BRANCH  12  13
ATOM     13  O   UNL     1       8.804  -2.736  25.674  0.00  0.00    -0.386 OA
ATOM     14  H   UNL     1       9.177  -1.840  25.658  0.00  0.00    +0.210 HD
ENDBRANCH  12  13
BRANCH  12  15
ATOM     15  C   UNL     1       9.026  -2.206  23.275  0.00  0.00    +0.117 C 
BRANCH  15  16
ATOM     16  N   UNL     1      10.150  -1.273  23.437  0.00  0.00    -0.309 NA
ATOM     17  H   UNL     1      10.687  -1.516  24.270  0.00  0.00    +0.123 HD
BRANCH  16  19
ATOM     18  C   UNL     1      10.755   0.993  24.311  0.00  0.00    +0.027 C 
ATOM     19  C   UNL     1       9.788   0.160  23.451  0.00  0.00    +0.011 C 
ATOM     20  C   UNL     1       9.879   0.666  21.999  0.00  0.00    +0.027 C 
ATOM     21  C   UNL     1       8.343   0.368  23.938  0.00  0.00    +0.027 C 
ENDBRANCH  16  19
ENDBRANCH  15  16
ENDBRANCH  12  15
ENDBRANCH   1  12
TORSDOF 6
ENDMDL
