MODEL 1
REMARK VINA RESULT:      -7.2      0.000      0.000
REMARK  Name = 
REMARK  5 active torsions:
REMARK  status: ('A' for Active; 'I' for Inactive)
REMARK    1  A    between atoms: O_1  and  C_2
REMARK    2  A    between atoms: C_2  and  C_3
REMARK    3  A    between atoms: C_8  and  C_11
REMARK    4  A    between atoms: C_14  and  C_22
REMARK    5  A    between atoms: C_15  and  C_16
REMARK                            x       y       z     vdW  Elec       q    Type
REMARK                         _______ _______ _______ _____ _____    ______ ____
ROOT
ATOM      1  C   UNL     1       8.771  -2.031  24.385  0.00  0.00    +0.076 A 
ATOM      2  C   UNL     1       7.807  -3.102  24.369  0.00  0.00    +0.049 A 
ATOM      3  C   UNL     1       7.524  -3.343  25.719  0.00  0.00    +0.075 A 
ATOM      4  N   UNL     1       8.312  -2.449  26.399  0.00  0.00    -0.276 N 
ATOM      5  H   UNL     1       8.361  -2.314  27.402  0.00  0.00    +0.189 HD
ATOM      6  N   UNL     1       9.068  -1.665  25.634  0.00  0.00    -0.177 NA
ENDROOT
BRANCH   1  11
ATOM      7  C   UNL     1       8.882   2.918  23.121  0.00  0.00    +0.241 C 
ATOM      8  N   UNL     1       8.971   1.578  23.468  0.00  0.00    -0.300 N 
ATOM      9  C   UNL     1      10.052   0.978  24.255  0.00  0.00    +0.108 C 
ATOM     10  C   UNL     1      10.549  -0.329  23.631  0.00  0.00    +0.029 C 
ATOM     11  C   UNL     1       9.417  -1.295  23.227  0.00  0.00    +0.043 C 
ATOM     12  C   UNL     1       8.378  -0.525  22.392  0.00  0.00    +0.029 C 
ATOM     13  C   UNL     1       7.866   0.697  23.132  0.00  0.00    +0.108 C 
ATOM     14  O   UNL     1       8.002   3.350  22.372  0.00  0.00    -0.273 OA
BRANCH   7  15
ATOM     15  C   UNL     1       9.902   3.878  23.735  0.00  0.00    +0.251 C 
BRANCH  15  16
ATOM     16  O   UNL     1      11.096   4.009  22.985  0.00  0.00    -0.386 OA
ATOM     17  H   UNL     1      11.093   4.908  22.612  0.00  0.00    +0.210 HD
ENDBRANCH  15  16
ENDBRANCH   7  15
ENDBRANCH   1  11
BRANCH   3  18
ATOM     18  C   UNL     1       6.614  -4.235  26.458  0.00  0.00    +0.001 A 
ATOM     19  C   UNL     1       7.126  -5.203  27.347  0.00  0.00    +0.011 A 
ATOM     20  C   UNL     1       6.272  -6.021  28.098  0.00  0.00    +0.020 A 
ATOM     21  C   UNL     1       4.895  -5.893  27.955  0.00  0.00    +0.041 A 
ATOM     22 CL   UNL     1       3.848  -6.907  28.863  0.00  0.00    -0.084 Cl
ATOM     23  C   UNL     1       4.369  -4.945  27.078  0.00  0.00    +0.020 A 
ATOM     24  C   UNL     1       5.225  -4.110  26.352  0.00  0.00    +0.011 A 
ENDBRANCH   3  18
BRANCH   2  25
ATOM     25  C   UNL     1       7.249  -3.818  23.227  0.00  0.00    +0.078 A 
ATOM     26  C   UNL     1       7.610  -5.118  22.931  0.00  0.00    +0.048 A 
ATOM     27  C   UNL     1       6.972  -5.718  21.869  0.00  0.00    +0.114 A 
ATOM     28  N   UNL     1       6.068  -5.090  21.110  0.00  0.00    -0.244 NA
ATOM     29  C   UNL     1       5.795  -3.827  21.462  0.00  0.00    +0.221 A 
ATOM     30  N   UNL     1       6.328  -3.158  22.496  0.00  0.00    -0.235 NA
ENDBRANCH   2  25
TORSDOF 5
ENDMDL
MODEL 2
REMARK VINA RESULT:      -7.2      4.455      7.807
REMARK  Name = 
REMARK  5 active torsions:
REMARK  status: ('A' for Active; 'I' for Inactive)
REMARK    1  A    between atoms: O_1  and  C_2
REMARK    2  A    between atoms: C_2  and  C_3
REMARK    3  A    between atoms: C_8  and  C_11
REMARK    4  A    between atoms: C_14  and  C_22
REMARK    5  A    between atoms: C_15  and  C_16
REMARK                            x       y       z     vdW  Elec       q    Type
REMARK                         _______ _______ _______ _____ _____    ______ ____
ROOT
ATOM      1  C   UNL     1       8.701  -1.772  24.945  0.00  0.00    +0.076 A 
ATOM      2  C   UNL     1       8.346  -0.409  25.253  0.00  0.00    +0.049 A 
ATOM      3  C   UNL     1       9.289   0.365  24.567  0.00  0.00    +0.075 A 
ATOM      4  N   UNL     1      10.099  -0.552  23.945  0.00  0.00    -0.276 N 
ATOM      5  H   UNL     1      10.887  -0.363  23.337  0.00  0.00    +0.189 HD
ATOM      6  N   UNL     1       9.779  -1.826  24.159  0.00  0.00    -0.177 NA
ENDROOT
BRANCH   1  11
ATOM      7  C   UNL     1       5.479  -4.859  22.458  0.00  0.00    +0.241 C 
ATOM      8  N   UNL     1       6.427  -4.115  23.143  0.00  0.00    -0.300 N 
ATOM      9  C   UNL     1       7.870  -4.372  23.139  0.00  0.00    +0.108 C 
ATOM     10  C   UNL     1       8.461  -4.304  24.551  0.00  0.00    +0.029 C 
ATOM     11  C   UNL     1       8.018  -3.063  25.352  0.00  0.00    +0.043 C 
ATOM     12  C   UNL     1       6.485  -2.944  25.279  0.00  0.00    +0.029 C 
ATOM     13  C   UNL     1       5.998  -2.915  23.841  0.00  0.00    +0.108 C 
ATOM     14  O   UNL     1       4.268  -4.659  22.577  0.00  0.00    -0.273 OA
BRANCH   7  15
ATOM     15  C   UNL     1       5.984  -5.936  21.496  0.00  0.00    +0.251 C 
BRANCH  15  16
ATOM     16  O   UNL     1       5.974  -5.545  20.135  0.00  0.00    -0.386 OA
ATOM     17  H   UNL     1       6.499  -4.728  20.076  0.00  0.00    +0.210 HD
ENDBRANCH  15  16
ENDBRANCH   7  15
ENDBRANCH   1  11
BRANCH   3  18
ATOM     18  C   UNL     1       9.521   1.807  24.370  0.00  0.00    +0.001 A 
ATOM     19  C   UNL     1      10.650   2.259  23.656  0.00  0.00    +0.011 A 
ATOM     20  C   UNL     1      10.856   3.623  23.414  0.00  0.00    +0.020 A 
ATOM     21  C   UNL     1       9.944   4.553  23.899  0.00  0.00    +0.041 A 
ATOM     22 CL   UNL     1      10.204   6.227  23.616  0.00  0.00    -0.084 Cl
ATOM     23  C   UNL     1       8.823   4.127  24.610  0.00  0.00    +0.020 A 
ATOM     24  C   UNL     1       8.606   2.761  24.825  0.00  0.00    +0.011 A 
ENDBRANCH   3  18
BRANCH   2  25
ATOM     25  C   UNL     1       7.272   0.090  26.104  0.00  0.00    +0.078 A 
ATOM     26  C   UNL     1       7.423   0.223  27.470  0.00  0.00    +0.048 A 
ATOM     27  C   UNL     1       6.366   0.765  28.167  0.00  0.00    +0.114 A 
ATOM     28  N   UNL     1       5.216   1.122  27.588  0.00  0.00    -0.244 NA
ATOM     29  C   UNL     1       5.155   0.940  26.262  0.00  0.00    +0.221 A 
ATOM     30  N   UNL     1       6.133   0.455  25.482  0.00  0.00    -0.235 NA
ENDBRANCH   2  25
TORSDOF 5
ENDMDL
MODEL 3
REMARK VINA RESULT:      -6.7      2.799      4.566
REMARK  Name = 
REMARK  5 active torsions:
REMARK  status: ('A' for Active; 'I' for Inactive)
REMARK    1  A    between atoms: O_1  and  C_2
REMARK    2  A    between atoms: C_2  and  C_3
REMARK    3  A    between atoms: C_8  and  C_11
REMARK    4  A    between atoms: C_14  and  C_22
REMARK    5  A    between atoms: C_15  and  C_16
REMARK                            x       y       z     vdW  Elec       q    Type
REMARK                         _______ _______ _______ _____ _____    ______ ____
ROOT
ATOM      1  C   UNL     1       7.557  -4.109  24.595  0.00  0.00    +0.076 A 
ATOM      2  C   UNL     1       6.456  -4.770  25.250  0.00  0.00    +0.049 A 
ATOM      3  C   UNL     1       5.658  -5.249  24.203  0.00  0.00    +0.075 A 
ATOM      4  N   UNL     1       6.308  -4.845  23.064  0.00  0.00    -0.276 N 
ATOM      5  H   UNL     1       6.038  -5.027  22.105  0.00  0.00    +0.189 HD
ATOM      6  N   UNL     1       7.432  -4.159  23.267  0.00  0.00    -0.177 NA
ENDROOT
BRANCH   1  11
ATOM      7  C   UNL     1       9.608   0.517  23.894  0.00  0.00    +0.241 C 
ATOM      8  N   UNL     1       9.040  -0.711  24.200  0.00  0.00    -0.300 N 
ATOM      9  C   UNL     1       8.098  -0.958  25.295  0.00  0.00    +0.108 C 
ATOM     10  C   UNL     1       8.466  -2.218  26.085  0.00  0.00    +0.029 C 
ATOM     11  C   UNL     1       8.777  -3.440  25.198  0.00  0.00    +0.043 C 
ATOM     12  C   UNL     1       9.791  -3.027  24.117  0.00  0.00    +0.029 C 
ATOM     13  C   UNL     1       9.296  -1.835  23.316  0.00  0.00    +0.108 C 
ATOM     14  O   UNL     1      10.472   0.648  23.023  0.00  0.00    -0.273 OA
BRANCH   7  15
ATOM     15  C   UNL     1       9.097   1.743  24.653  0.00  0.00    +0.251 C 
BRANCH  15  16
ATOM     16  O   UNL     1       7.992   2.382  24.040  0.00  0.00    -0.386 OA
ATOM     17  H   UNL     1       7.231   2.251  24.631  0.00  0.00    +0.210 HD
ENDBRANCH  15  16
ENDBRANCH   7  15
ENDBRANCH   1  11
BRANCH   3  18
ATOM     18  C   UNL     1       4.426  -6.050  24.103  0.00  0.00    +0.001 A 
ATOM     19  C   UNL     1       3.457  -5.753  23.123  0.00  0.00    +0.011 A 
ATOM     20  C   UNL     1       2.305  -6.539  22.980  0.00  0.00    +0.020 A 
ATOM     21  C   UNL     1       2.102  -7.620  23.828  0.00  0.00    +0.041 A 
ATOM     22 CL   UNL     1       0.683  -8.575  23.664  0.00  0.00    -0.084 Cl
ATOM     23  C   UNL     1       3.047  -7.929  24.806  0.00  0.00    +0.020 A 
ATOM     24  C   UNL     1       4.208  -7.159  24.927  0.00  0.00    +0.011 A 
ENDBRANCH   3  18
BRANCH   2  25
ATOM     25  C   UNL     1       6.183  -4.908  26.676  0.00  0.00    +0.078 A 
ATOM     26  C   UNL     1       5.344  -4.041  27.347  0.00  0.00    +0.048 A 
ATOM     27  C   UNL     1       5.108  -4.302  28.678  0.00  0.00    +0.114 A 
ATOM     28  N   UNL     1       5.678  -5.317  29.336  0.00  0.00    -0.244 NA
ATOM     29  C   UNL     1       6.491  -6.094  28.607  0.00  0.00    +0.221 A 
ATOM     30  N   UNL     1       6.763  -5.952  27.300  0.00  0.00    -0.235 NA
ENDBRANCH   2  25
TORSDOF 5
ENDMDL
MODEL 4
REMARK VINA RESULT:      -6.6      4.714      7.755
REMARK  Name = 
REMARK  5 active torsions:
REMARK  status: ('A' for Active; 'I' for Inactive)
REMARK    1  A    between atoms: O_1  and  C_2
REMARK    2  A    between atoms: C_2  and  C_3
REMARK    3  A    between atoms: C_8  and  C_11
REMARK    4  A    between atoms: C_14  and  C_22
REMARK    5  A    between atoms: C_15  and  C_16
REMARK                            x       y       z     vdW  Elec       q    Type
REMARK                         _______ _______ _______ _____ _____    ______ ____
ROOT
ATOM      1  C   UNL     1       5.891  -1.523  24.702  0.00  0.00    +0.076 A 
ATOM      2  C   UNL     1       6.977  -0.630  24.381  0.00  0.00    +0.049 A 
ATOM      3  C   UNL     1       6.589   0.604  24.915  0.00  0.00    +0.075 A 
ATOM      4  N   UNL     1       5.358   0.365  25.474  0.00  0.00    -0.276 N 
ATOM      5  H   UNL     1       4.772   1.023  25.974  0.00  0.00    +0.189 HD
ATOM      6  N   UNL     1       4.916  -0.885  25.354  0.00  0.00    -0.177 NA
ENDROOT
BRANCH   1  11
ATOM      7  C   UNL     1       6.482  -5.601  27.722  0.00  0.00    +0.241 C 
ATOM      8  N   UNL     1       6.209  -4.530  26.884  0.00  0.00    -0.300 N 
ATOM      9  C   UNL     1       4.888  -3.930  26.680  0.00  0.00    +0.108 C 
ATOM     10  C   UNL     1       4.597  -3.692  25.195  0.00  0.00    +0.029 C 
ATOM     11  C   UNL     1       5.752  -3.009  24.436  0.00  0.00    +0.043 C 
ATOM     12  C   UNL     1       7.060  -3.765  24.733  0.00  0.00    +0.029 C 
ATOM     13  C   UNL     1       7.319  -3.862  26.226  0.00  0.00    +0.108 C 
ATOM     14  O   UNL     1       7.594  -6.130  27.779  0.00  0.00    -0.273 OA
BRANCH   7  15
ATOM     15  C   UNL     1       5.352  -6.097  28.627  0.00  0.00    +0.251 C 
BRANCH  15  16
ATOM     16  O   UNL     1       5.198  -7.504  28.639  0.00  0.00    -0.386 OA
ATOM     17  H   UNL     1       4.244  -7.680  28.564  0.00  0.00    +0.210 HD
ENDBRANCH  15  16
ENDBRANCH   7  15
ENDBRANCH   1  11
BRANCH   3  18
ATOM     18  C   UNL     1       7.199   1.941  25.021  0.00  0.00    +0.001 A 
ATOM     19  C   UNL     1       6.986   2.736  26.166  0.00  0.00    +0.011 A 
ATOM     20  C   UNL     1       7.603   3.987  26.306  0.00  0.00    +0.020 A 
ATOM     21  C   UNL     1       8.425   4.464  25.293  0.00  0.00    +0.041 A 
ATOM     22 CL   UNL     1       9.169   6.003  25.456  0.00  0.00    -0.084 Cl
ATOM     23  C   UNL     1       8.646   3.695  24.151  0.00  0.00    +0.020 A 
ATOM     24  C   UNL     1       8.051   2.435  24.029  0.00  0.00    +0.011 A 
ENDBRANCH   3  18
BRANCH   2  25
ATOM     25  C   UNL     1       8.206  -0.906  23.645  0.00  0.00    +0.078 A 
ATOM     26  C   UNL     1       9.428  -1.016  24.278  0.00  0.00    +0.048 A 
ATOM     27  C   UNL     1      10.511  -1.342  23.493  0.00  0.00    +0.114 A 
ATOM     28  N   UNL     1      10.431  -1.512  22.170  0.00  0.00    -0.244 NA
ATOM     29  C   UNL     1       9.207  -1.367  21.642  0.00  0.00    +0.221 A 
ATOM     30  N   UNL     1       8.080  -1.087  22.315  0.00  0.00    -0.235 NA
ENDBRANCH   2  25
TORSDOF 5
ENDMDL
MODEL 5
REMARK VINA RESULT:      -6.6      4.520      7.646
REMARK  Name = 
REMARK  5 active torsions:
REMARK  status: ('A' for Active; 'I' for Inactive)
REMARK    1  A    between atoms: O_1  and  C_2
REMARK    2  A    between atoms: C_2  and  C_3
REMARK    3  A    between atoms: C_8  and  C_11
REMARK    4  A    between atoms: C_14  and  C_22
REMARK    5  A    between atoms: C_15  and  C_16
REMARK                            x       y       z     vdW  Elec       q    Type
REMARK                         _______ _______ _______ _____ _____    ______ ____
ROOT
ATOM      1  C   UNL     1       6.181  -1.194  25.089  0.00  0.00    +0.076 A 
ATOM      2  C   UNL     1       7.098  -0.377  24.336  0.00  0.00    +0.049 A 
ATOM      3  C   UNL     1       6.537   0.906  24.367  0.00  0.00    +0.075 A 
ATOM      4  N   UNL     1       5.380   0.756  25.090  0.00  0.00    -0.276 N 
ATOM      5  H   UNL     1       4.715   1.478  25.340  0.00  0.00    +0.189 HD
ATOM      6  N   UNL     1       5.139  -0.480  25.523  0.00  0.00    -0.177 NA
ENDROOT
BRANCH   1  11
ATOM      7  C   UNL     1       5.047  -5.435  22.477  0.00  0.00    +0.241 C 
ATOM      8  N   UNL     1       5.466  -4.325  23.195  0.00  0.00    -0.300 N 
ATOM      9  C   UNL     1       6.831  -3.792  23.208  0.00  0.00    +0.108 C 
ATOM     10  C   UNL     1       7.299  -3.466  24.630  0.00  0.00    +0.029 C 
ATOM     11  C   UNL     1       6.272  -2.663  25.454  0.00  0.00    +0.043 C 
ATOM     12  C   UNL     1       4.903  -3.359  25.359  0.00  0.00    +0.029 C 
ATOM     13  C   UNL     1       4.473  -3.547  23.915  0.00  0.00    +0.108 C 
ATOM     14  O   UNL     1       3.909  -5.900  22.581  0.00  0.00    -0.273 OA
BRANCH   7  15
ATOM     15  C   UNL     1       6.040  -6.061  21.496  0.00  0.00    +0.251 C 
BRANCH  15  16
ATOM     16  O   UNL     1       5.954  -5.547  20.180  0.00  0.00    -0.386 OA
ATOM     17  H   UNL     1       6.859  -5.309  19.914  0.00  0.00    +0.210 HD
ENDBRANCH  15  16
ENDBRANCH   7  15
ENDBRANCH   1  11
BRANCH   3  18
ATOM     18  C   UNL     1       6.929   2.236  23.871  0.00  0.00    +0.001 A 
ATOM     19  C   UNL     1       6.315   2.782  22.724  0.00  0.00    +0.011 A 
ATOM     20  C   UNL     1       6.638   4.069  22.272  0.00  0.00    +0.020 A 
ATOM     21  C   UNL     1       7.592   4.817  22.951  0.00  0.00    +0.041 A 
ATOM     22 CL   UNL     1       7.999   6.387  22.388  0.00  0.00    -0.084 Cl
ATOM     23  C   UNL     1       8.213   4.294  24.085  0.00  0.00    +0.020 A 
ATOM     24  C   UNL     1       7.867   3.020  24.550  0.00  0.00    +0.011 A 
ENDBRANCH   3  18
BRANCH   2  25
ATOM     25  C   UNL     1       8.329  -0.765  23.656  0.00  0.00    +0.078 A 
ATOM     26  C   UNL     1       9.488  -1.053  24.349  0.00  0.00    +0.048 A 
ATOM     27  C   UNL     1      10.572  -1.471  23.610  0.00  0.00    +0.114 A 
ATOM     28  N   UNL     1      10.554  -1.567  22.277  0.00  0.00    -0.244 NA
ATOM     29  C   UNL     1       9.392  -1.249  21.690  0.00  0.00    +0.221 A 
ATOM     30  N   UNL     1       8.267  -0.866  22.313  0.00  0.00    -0.235 NA
ENDBRANCH   2  25
TORSDOF 5
ENDMDL
MODEL 6
REMARK VINA RESULT:      -6.5      2.333      3.755
REMARK  Name = 
REMARK  5 active torsions:
REMARK  status: ('A' for Active; 'I' for Inactive)
REMARK    1  A    between atoms: O_1  and  C_2
REMARK    2  A    between atoms: C_2  and  C_3
REMARK    3  A    between atoms: C_8  and  C_11
REMARK    4  A    between atoms: C_14  and  C_22
REMARK    5  A    between atoms: C_15  and  C_16
REMARK                            x       y       z     vdW  Elec       q    Type
REMARK                         _______ _______ _______ _____ _____    ______ ____
ROOT
ATOM      1  C   UNL     1       7.510  -2.402  23.701  0.00  0.00    +0.076 A 
ATOM      2  C   UNL     1       6.681  -3.363  24.385  0.00  0.00    +0.049 A 
ATOM      3  C   UNL     1       5.501  -3.411  23.632  0.00  0.00    +0.075 A 
ATOM      4  N   UNL     1       5.705  -2.510  22.617  0.00  0.00    -0.276 N 
ATOM      5  H   UNL     1       5.073  -2.287  21.858  0.00  0.00    +0.189 HD
ATOM      6  N   UNL     1       6.884  -1.891  22.639  0.00  0.00    -0.177 NA
ENDROOT
BRANCH   1  11
ATOM      7  C   UNL     1       9.951   2.017  22.918  0.00  0.00    +0.241 C 
ATOM      8  N   UNL     1       9.312   0.831  23.247  0.00  0.00    -0.300 N 
ATOM      9  C   UNL     1       8.663   0.547  24.530  0.00  0.00    +0.108 C 
ATOM     10  C   UNL     1       9.039  -0.841  25.060  0.00  0.00    +0.029 C 
ATOM     11  C   UNL     1       8.928  -1.961  24.006  0.00  0.00    +0.043 C 
ATOM     12  C   UNL     1       9.674  -1.523  22.733  0.00  0.00    +0.029 C 
ATOM     13  C   UNL     1       9.164  -0.187  22.221  0.00  0.00    +0.108 C 
ATOM     14  O   UNL     1      10.568   2.165  21.860  0.00  0.00    -0.273 OA
BRANCH   7  15
ATOM     15  C   UNL     1       9.838   3.180  23.906  0.00  0.00    +0.251 C 
BRANCH  15  16
ATOM     16  O   UNL     1       9.030   4.249  23.448  0.00  0.00    -0.386 OA
ATOM     17  H   UNL     1       9.325   4.453  22.544  0.00  0.00    +0.210 HD
ENDBRANCH  15  16
ENDBRANCH   7  15
ENDBRANCH   1  11
BRANCH   3  18
ATOM     18  C   UNL     1       4.250  -4.187  23.689  0.00  0.00    +0.001 A 
ATOM     19  C   UNL     1       4.130  -5.403  22.985  0.00  0.00    +0.011 A 
ATOM     20  C   UNL     1       2.966  -6.179  23.072  0.00  0.00    +0.020 A 
ATOM     21  C   UNL     1       1.903  -5.738  23.851  0.00  0.00    +0.041 A 
ATOM     22 CL   UNL     1       0.470  -6.680  23.946  0.00  0.00    -0.084 Cl
ATOM     23  C   UNL     1       2.000  -4.536  24.551  0.00  0.00    +0.020 A 
ATOM     24  C   UNL     1       3.175  -3.779  24.484  0.00  0.00    +0.011 A 
ENDBRANCH   3  18
BRANCH   2  25
ATOM     25  C   UNL     1       6.961  -4.117  25.602  0.00  0.00    +0.078 A 
ATOM     26  C   UNL     1       6.118  -4.080  26.695  0.00  0.00    +0.048 A 
ATOM     27  C   UNL     1       6.446  -4.880  27.766  0.00  0.00    +0.114 A 
ATOM     28  N   UNL     1       7.544  -5.641  27.800  0.00  0.00    -0.244 NA
ATOM     29  C   UNL     1       8.311  -5.598  26.702  0.00  0.00    +0.221 A 
ATOM     30  N   UNL     1       8.069  -4.885  25.591  0.00  0.00    -0.235 NA
ENDBRANCH   2  25
TORSDOF 5
ENDMDL
MODEL 7
REMARK VINA RESULT:      -6.5      2.859      4.406
REMARK  Name = 
REMARK  5 active torsions:
REMARK  status: ('A' for Active; 'I' for Inactive)
REMARK    1  A    between atoms: O_1  and  C_2
REMARK    2  A    between atoms: C_2  and  C_3
REMARK    3  A    between atoms: C_8  and  C_11
REMARK    4  A    between atoms: C_14  and  C_22
REMARK    5  A    between atoms: C_15  and  C_16
REMARK                            x       y       z     vdW  Elec       q    Type
REMARK                         _______ _______ _______ _____ _____    ______ ____
ROOT
ATOM      1  C   UNL     1       7.288  -3.891  24.263  0.00  0.00    +0.076 A 
ATOM      2  C   UNL     1       5.982  -4.198  24.791  0.00  0.00    +0.049 A 
ATOM      3  C   UNL     1       5.527  -5.266  24.008  0.00  0.00    +0.075 A 
ATOM      4  N   UNL     1       6.541  -5.491  23.112  0.00  0.00    -0.276 N 
ATOM      5  H   UNL     1       6.580  -6.206  22.395  0.00  0.00    +0.189 HD
ATOM      6  N   UNL     1       7.594  -4.685  23.234  0.00  0.00    -0.177 NA
ENDROOT
BRANCH   1  11
ATOM      7  C   UNL     1       8.845   0.536  22.244  0.00  0.00    +0.241 C 
ATOM      8  N   UNL     1       8.389  -0.604  22.888  0.00  0.00    -0.300 N 
ATOM      9  C   UNL     1       7.317  -0.640  23.888  0.00  0.00    +0.108 C 
ATOM     10  C   UNL     1       7.702  -1.493  25.101  0.00  0.00    +0.029 C 
ATOM     11  C   UNL     1       8.301  -2.865  24.731  0.00  0.00    +0.043 C 
ATOM     12  C   UNL     1       9.421  -2.658  23.696  0.00  0.00    +0.029 C 
ATOM     13  C   UNL     1       8.922  -1.893  22.483  0.00  0.00    +0.108 C 
ATOM     14  O   UNL     1       9.818   0.523  21.485  0.00  0.00    -0.273 OA
BRANCH   7  15
ATOM     15  C   UNL     1       8.070   1.835  22.470  0.00  0.00    +0.251 C 
BRANCH  15  16
ATOM     16  O   UNL     1       8.746   2.996  22.021  0.00  0.00    -0.386 OA
ATOM     17  H   UNL     1       8.191   3.389  21.325  0.00  0.00    +0.210 HD
ENDBRANCH  15  16
ENDBRANCH   7  15
ENDBRANCH   1  11
BRANCH   3  18
ATOM     18  C   UNL     1       4.328  -6.123  23.995  0.00  0.00    +0.001 A 
ATOM     19  C   UNL     1       3.354  -5.976  22.986  0.00  0.00    +0.011 A 
ATOM     20  C   UNL     1       2.236  -6.819  22.929  0.00  0.00    +0.020 A 
ATOM     21  C   UNL     1       2.072  -7.808  23.891  0.00  0.00    +0.041 A 
ATOM     22 CL   UNL     1       0.694  -8.832  23.831  0.00  0.00    -0.084 Cl
ATOM     23  C   UNL     1       3.022  -7.967  24.899  0.00  0.00    +0.020 A 
ATOM     24  C   UNL     1       4.151  -7.142  24.936  0.00  0.00    +0.011 A 
ENDBRANCH   3  18
BRANCH   2  25
ATOM     25  C   UNL     1       5.253  -3.550  25.876  0.00  0.00    +0.078 A 
ATOM     26  C   UNL     1       4.236  -2.647  25.637  0.00  0.00    +0.048 A 
ATOM     27  C   UNL     1       3.574  -2.145  26.735  0.00  0.00    +0.114 A 
ATOM     28  N   UNL     1       3.899  -2.462  27.992  0.00  0.00    -0.244 NA
ATOM     29  C   UNL     1       4.910  -3.331  28.126  0.00  0.00    +0.221 A 
ATOM     30  N   UNL     1       5.599  -3.908  27.129  0.00  0.00    -0.235 NA
ENDBRANCH   2  25
TORSDOF 5
ENDMDL
MODEL 8
REMARK VINA RESULT:      -6.4      4.605      8.228
REMARK  Name = 
REMARK  5 active torsions:
REMARK  status: ('A' for Active; 'I' for Inactive)
REMARK    1  A    between atoms: O_1  and  C_2
REMARK    2  A    between atoms: C_2  and  C_3
REMARK    3  A    between atoms: C_8  and  C_11
REMARK    4  A    between atoms: C_14  and  C_22
REMARK    5  A    between atoms: C_15  and  C_16
REMARK                            x       y       z     vdW  Elec       q    Type
REMARK                         _______ _______ _______ _____ _____    ______ ____
ROOT
ATOM      1  C   UNL     1       7.819  -0.623  22.900  0.00  0.00    +0.076 A 
ATOM      2  C   UNL     1       7.840   0.611  23.645  0.00  0.00    +0.049 A 
ATOM      3  C   UNL     1       8.945   1.308  23.143  0.00  0.00    +0.075 A 
ATOM      4  N   UNL     1       9.477   0.471  22.194  0.00  0.00    -0.276 N 
ATOM      5  H   UNL     1      10.279   0.647  21.601  0.00  0.00    +0.189 HD
ATOM      6  N   UNL     1       8.835  -0.684  22.035  0.00  0.00    -0.177 NA
ENDROOT
BRANCH   1  11
ATOM      7  C   UNL     1       7.713  -4.928  25.647  0.00  0.00    +0.241 C 
ATOM      8  N   UNL     1       7.637  -3.731  24.951  0.00  0.00    -0.300 N 
ATOM      9  C   UNL     1       6.937  -2.529  25.410  0.00  0.00    +0.108 C 
ATOM     10  C   UNL     1       6.084  -1.910  24.298  0.00  0.00    +0.029 C 
ATOM     11  C   UNL     1       6.824  -1.766  22.953  0.00  0.00    +0.043 C 
ATOM     12  C   UNL     1       7.484  -3.111  22.600  0.00  0.00    +0.029 C 
ATOM     13  C   UNL     1       8.391  -3.595  23.717  0.00  0.00    +0.108 C 
ATOM     14  O   UNL     1       8.230  -5.941  25.169  0.00  0.00    -0.273 OA
BRANCH   7  15
ATOM     15  C   UNL     1       7.162  -4.954  27.074  0.00  0.00    +0.251 C 
BRANCH  15  16
ATOM     16  O   UNL     1       7.610  -6.053  27.846  0.00  0.00    -0.386 OA
ATOM     17  H   UNL     1       6.851  -6.348  28.378  0.00  0.00    +0.210 HD
ENDBRANCH  15  16
ENDBRANCH   7  15
ENDBRANCH   1  11
BRANCH   3  18
ATOM     18  C   UNL     1       9.547   2.632  23.378  0.00  0.00    +0.001 A 
ATOM     19  C   UNL     1       8.750   3.717  23.798  0.00  0.00    +0.011 A 
ATOM     20  C   UNL     1       9.316   4.968  24.078  0.00  0.00    +0.020 A 
ATOM     21  C   UNL     1      10.685   5.152  23.923  0.00  0.00    +0.041 A 
ATOM     22 CL   UNL     1      11.378   6.689  24.250  0.00  0.00    -0.084 Cl
ATOM     23  C   UNL     1      11.490   4.094  23.505  0.00  0.00    +0.020 A 
ATOM     24  C   UNL     1      10.925   2.839  23.255  0.00  0.00    +0.011 A 
ENDBRANCH   3  18
BRANCH   2  25
ATOM     25  C   UNL     1       6.946   1.058  24.708  0.00  0.00    +0.078 A 
ATOM     26  C   UNL     1       5.668   1.509  24.447  0.00  0.00    +0.048 A 
ATOM     27  C   UNL     1       4.889   1.844  25.532  0.00  0.00    +0.114 A 
ATOM     28  N   UNL     1       5.329   1.788  26.793  0.00  0.00    -0.244 NA
ATOM     29  C   UNL     1       6.588   1.356  26.947  0.00  0.00    +0.221 A 
ATOM     30  N   UNL     1       7.421   0.970  25.967  0.00  0.00    -0.235 NA
ENDBRANCH   2  25
TORSDOF 5
ENDMDL
MODEL 9
REMARK VINA RESULT:      -6.3      4.546      8.013
REMARK  Name = 
REMARK  5 active torsions:
REMARK  status: ('A' for Active; 'I' for Inactive)
REMARK    1  A    between atoms: O_1  and  C_2
REMARK    2  A    between atoms: C_2  and  C_3
REMARK    3  A    between atoms: C_8  and  C_11
REMARK    4  A    between atoms: C_14  and  C_22
REMARK    5  A    between atoms: C_15  and  C_16
REMARK                            x       y       z     vdW  Elec       q    Type
REMARK                         _______ _______ _______ _____ _____    ______ ____
ROOT
ATOM      1  C   UNL     1       7.780  -0.949  24.967  0.00  0.00    +0.076 A 
ATOM      2  C   UNL     1       7.526   0.464  24.839  0.00  0.00    +0.049 A 
ATOM      3  C   UNL     1       8.792   1.037  24.665  0.00  0.00    +0.075 A 
ATOM      4  N   UNL     1       9.659  -0.025  24.714  0.00  0.00    -0.276 N 
ATOM      5  H   UNL     1      10.666  -0.002  24.605  0.00  0.00    +0.189 HD
ATOM      6  N   UNL     1       9.088  -1.214  24.901  0.00  0.00    -0.177 NA
ENDROOT
BRANCH   1  11
ATOM      7  C   UNL     1       6.482  -4.772  21.838  0.00  0.00    +0.241 C 
ATOM      8  N   UNL     1       6.868  -3.817  22.766  0.00  0.00    -0.300 N 
ATOM      9  C   UNL     1       7.908  -3.997  23.783  0.00  0.00    +0.108 C 
ATOM     10  C   UNL     1       7.451  -3.494  25.156  0.00  0.00    +0.029 C 
ATOM     11  C   UNL     1       6.801  -2.096  25.122  0.00  0.00    +0.043 C 
ATOM     12  C   UNL     1       5.722  -2.074  24.025  0.00  0.00    +0.029 C 
ATOM     13  C   UNL     1       6.289  -2.488  22.679  0.00  0.00    +0.108 C 
ATOM     14  O   UNL     1       5.532  -4.603  21.070  0.00  0.00    -0.273 OA
BRANCH   7  15
ATOM     15  C   UNL     1       7.308  -6.058  21.759  0.00  0.00    +0.251 C 
BRANCH  15  16
ATOM     16  O   UNL     1       6.628  -7.210  22.222  0.00  0.00    -0.386 OA
ATOM     17  H   UNL     1       6.126  -6.938  23.010  0.00  0.00    +0.210 HD
ENDBRANCH  15  16
ENDBRANCH   7  15
ENDBRANCH   1  11
BRANCH   3  18
ATOM     18  C   UNL     1       9.305   2.396  24.421  0.00  0.00    +0.001 A 
ATOM     19  C   UNL     1       8.614   3.522  24.914  0.00  0.00    +0.011 A 
ATOM     20  C   UNL     1       9.118   4.818  24.738  0.00  0.00    +0.020 A 
ATOM     21  C   UNL     1      10.311   5.003  24.049  0.00  0.00    +0.041 A 
ATOM     22 CL   UNL     1      10.921   6.591  23.819  0.00  0.00    -0.084 Cl
ATOM     23  C   UNL     1      11.008   3.903  23.551  0.00  0.00    +0.020 A 
ATOM     24  C   UNL     1      10.516   2.610  23.755  0.00  0.00    +0.011 A 
ENDBRANCH   3  18
BRANCH   2  25
ATOM     25  C   UNL     1       6.255   1.178  24.897  0.00  0.00    +0.078 A 
ATOM     26  C   UNL     1       5.774   1.904  23.826  0.00  0.00    +0.048 A 
ATOM     27  C   UNL     1       4.533   2.484  23.970  0.00  0.00    +0.114 A 
ATOM     28  N   UNL     1       3.816   2.405  25.095  0.00  0.00    -0.244 NA
ATOM     29  C   UNL     1       4.371   1.695  26.086  0.00  0.00    +0.221 A 
ATOM     30  N   UNL     1       5.553   1.060  26.042  0.00  0.00    -0.235 NA
ENDBRANCH   2  25
TORSDOF 5
ENDMDL
