MODEL 1
REMARK VINA RESULT:      -6.6      0.000      0.000
REMARK  Name = 
REMARK  14 active torsions:
REMARK  status: ('A' for Active; 'I' for Inactive)
REMARK    1  A    between atoms: C_1  and  C_2
REMARK    2  A    between atoms: C_2  and  N_3
REMARK    3  A    between atoms: N_3  and  C_4
REMARK    4  A    between atoms: N_3  and  C_6
REMARK    5  A    between atoms: C_4  and  C_5
REMARK    6  A    between atoms: C_6  and  C_7
REMARK    7  A    between atoms: C_7  and  S_8
REMARK    8  A    between atoms: S_8  and  C_11
REMARK    9  A    between atoms: C_27  and  O_29
REMARK   10  A    between atoms: C_31  and  C_32
REMARK   11  A    between atoms: C_41  and  C_43
REMARK   12  A    between atoms: C_44  and  C_46
REMARK   13  A    between atoms: C_46  and  C_47
REMARK   14  A    between atoms: C_46  and  C_48
REMARK                            x       y       z     vdW  Elec       q    Type
REMARK                         _______ _______ _______ _____ _____    ______ ____
ROOT
ATOM      1  C   UNL     1       7.291  -3.175  23.471  0.00  0.00    +0.163 C 
ATOM      2  C   UNL     1       6.773  -1.759  24.554  0.00  0.00    +0.209 C 
ATOM      3  N   UNL     1       6.396  -3.356  25.758  0.00  0.00    -0.281 N 
ATOM      4  C   UNL     1       5.099  -4.396  26.294  0.00  0.00    +0.269 C 
ATOM      5  C   UNL     1       5.298  -5.572  27.626  0.00  0.00    +0.164 A 
ATOM      6  N   UNL     1       5.495  -5.081  28.935  0.00  0.00    -0.208 NA
ATOM      7  C   UNL     1       4.419  -5.502  29.568  0.00  0.00    +0.203 A 
ATOM      8  C   UNL     1       3.422  -4.538  30.111  0.00  0.00    +0.170 C 
ATOM      9  C   UNL     1       3.426  -3.505  29.015  0.00  0.00    +0.145 C 
ATOM     10  C   UNL     1       3.833  -2.120  29.343  0.00  0.00    +0.110 C 
ATOM     11  C   UNL     1       4.557  -1.536  28.156  0.00  0.00    +0.145 C 
ATOM     12  C   UNL     1       4.480  -0.059  28.272  0.00  0.00    +0.007 C 
ATOM     13  C   UNL     1       4.943   0.740  27.315  0.00  0.00    -0.052 C 
ATOM     14  C   UNL     1       4.825   2.140  27.436  0.00  0.00    +0.000 C 
ATOM     15  C   UNL     1       5.259   2.999  26.519  0.00  0.00    -0.008 C 
ATOM     16  C   UNL     1       4.952   4.397  26.791  0.00  0.00    +0.132 C 
ATOM     17  N   UNL     1       4.769   5.075  25.569  0.00  0.00    -0.308 N 
ATOM     18  H   UNL     1       5.306   4.679  24.809  0.00  0.00    +0.149 HD
ATOM     19  C   UNL     1       4.972   6.431  25.763  0.00  0.00    +0.237 C 
ATOM     20  C   UNL     1       6.224   6.725  25.067  0.00  0.00    +0.063 C 
ATOM     21  C   UNL     1       6.086   6.545  23.741  0.00  0.00    -0.015 C 
ATOM     22  C   UNL     1       6.782   5.412  22.679  0.00  0.00    +0.050 C 
ATOM     23  C   UNL     1       7.808   3.981  23.627  0.00  0.00    +0.186 C 
ATOM     24  O   UNL     1       7.517   2.006  24.122  0.00  0.00    -0.459 OA
ATOM     25  C   UNL     1       6.786   6.728  21.485  0.00  0.00    +0.015 C 
ATOM     26  O   UNL     1       4.530   7.108  26.670  0.00  0.00    -0.271 OA
ATOM     27  C   UNL     1       5.561   0.217  26.089  0.00  0.00    +0.043 C 
ATOM     28  O   UNL     1       3.068  -3.789  27.872  0.00  0.00    -0.297 OA
ATOM     29  O   UNL     1       3.978  -6.718  29.105  0.00  0.00    -0.447 OA
ATOM     30  C   UNL     1       4.647  -6.830  27.907  0.00  0.00    +0.230 A 
ATOM     31  O   UNL     1       4.158  -4.606  25.590  0.00  0.00    -0.268 OA
ATOM     32  C   UNL     1       7.109  -4.697  25.401  0.00  0.00    +0.111 C 
ATOM     33  C   UNL     1       7.113   0.296  23.781  0.00  0.00    +0.330 C 
ATOM     34  O   UNL     1       6.873   0.149  22.603  0.00  0.00    -0.249 OA
ATOM     35  C   UNL     1       7.964  -4.545  24.224  0.00  0.00    +0.047 C 
ENDROOT
BRANCH   1  36
ATOM     36  S   UNL     1       5.901  -4.641  22.588  0.00  0.00    -0.025 S 
ATOM     37  O   UNL     1       4.637  -3.902  22.495  0.00  0.00    -0.174 OA
ATOM     38  O   UNL     1       6.319  -5.159  21.297  0.00  0.00    -0.174 OA
BRANCH  36  39
ATOM     39  C   UNL     1       5.349  -6.195  23.244  0.00  0.00    +0.181 C 
BRANCH  39  40
ATOM     40  C   UNL     1       4.016  -6.463  22.670  0.00  0.00    +0.107 C 
BRANCH  40  41
ATOM     41  N   UNL     1       2.912  -6.604  23.613  0.00  0.00    -0.301 NA
BRANCH  41  43
ATOM     42  C   UNL     1       0.820  -5.393  22.986  0.00  0.00    +0.020 C 
ATOM     43  C   UNL     1       1.732  -6.563  22.741  0.00  0.00    +0.081 C 
ENDBRANCH  41  43
BRANCH  41  44
ATOM     44  C   UNL     1       2.981  -7.796  24.489  0.00  0.00    +0.081 C 
ATOM     45  C   UNL     1       1.684  -8.566  24.743  0.00  0.00    +0.020 C 
ENDBRANCH  41  44
ENDBRANCH  40  41
ENDBRANCH  39  40
ENDBRANCH  36  39
ENDBRANCH   1  36
BRANCH  23  46
ATOM     46  C   UNL     1       8.987   5.581  24.232  0.00  0.00    +0.024 C 
ATOM     47  C   UNL     1       9.229   6.117  25.985  0.00  0.00    +0.011 C 
ATOM     48  C   UNL     1      10.667   6.357  24.064  0.00  0.00    +0.011 C 
ENDBRANCH  23  46
BRANCH  11  49
ATOM     49  O   UNL     1       5.927  -1.920  28.107  0.00  0.00    -0.387 OA
ATOM     50  H   UNL     1       6.088  -2.522  27.368  0.00  0.00    +0.210 HD
ENDBRANCH  11  49
TORSDOF 8
ENDMDL
MODEL 2
REMARK VINA RESULT:      -6.6      1.588      2.078
REMARK  Name = 
REMARK  14 active torsions:
REMARK  status: ('A' for Active; 'I' for Inactive)
REMARK    1  A    between atoms: C_1  and  C_2
REMARK    2  A    between atoms: C_2  and  N_3
REMARK    3  A    between atoms: N_3  and  C_4
REMARK    4  A    between atoms: N_3  and  C_6
REMARK    5  A    between atoms: C_4  and  C_5
REMARK    6  A    between atoms: C_6  and  C_7
REMARK    7  A    between atoms: C_7  and  S_8
REMARK    8  A    between atoms: S_8  and  C_11
REMARK    9  A    between atoms: C_27  and  O_29
REMARK   10  A    between atoms: C_31  and  C_32
REMARK   11  A    between atoms: C_41  and  C_43
REMARK   12  A    between atoms: C_44  and  C_46
REMARK   13  A    between atoms: C_46  and  C_47
REMARK   14  A    between atoms: C_46  and  C_48
REMARK                            x       y       z     vdW  Elec       q    Type
REMARK                         _______ _______ _______ _____ _____    ______ ____
ROOT
ATOM      1  C   UNL     1       8.678  -3.116  25.227  0.00  0.00    +0.163 C 
ATOM      2  C   UNL     1       7.463  -1.804  25.725  0.00  0.00    +0.209 C 
ATOM      3  N   UNL     1       6.843  -3.384  26.848  0.00  0.00    -0.281 N 
ATOM      4  C   UNL     1       5.655  -4.665  26.881  0.00  0.00    +0.269 C 
ATOM      5  C   UNL     1       5.396  -5.698  28.317  0.00  0.00    +0.164 A 
ATOM      6  N   UNL     1       4.850  -5.111  29.479  0.00  0.00    -0.208 NA
ATOM      7  C   UNL     1       3.696  -5.735  29.605  0.00  0.00    +0.203 A 
ATOM      8  C   UNL     1       2.408  -4.998  29.479  0.00  0.00    +0.170 C 
ATOM      9  C   UNL     1       2.755  -4.046  28.364  0.00  0.00    +0.145 C 
ATOM     10  C   UNL     1       2.703  -2.590  28.629  0.00  0.00    +0.110 C 
ATOM     11  C   UNL     1       3.791  -1.915  27.833  0.00  0.00    +0.145 C 
ATOM     12  C   UNL     1       3.408  -0.490  27.676  0.00  0.00    +0.007 C 
ATOM     13  C   UNL     1       4.124   0.346  26.929  0.00  0.00    -0.052 C 
ATOM     14  C   UNL     1       3.716   1.686  26.769  0.00  0.00    +0.000 C 
ATOM     15  C   UNL     1       4.377   2.576  26.035  0.00  0.00    -0.008 C 
ATOM     16  C   UNL     1       3.736   3.878  25.921  0.00  0.00    +0.132 C 
ATOM     17  N   UNL     1       4.044   4.437  24.665  0.00  0.00    -0.308 N 
ATOM     18  H   UNL     1       4.941   4.137  24.305  0.00  0.00    +0.149 HD
ATOM     19  C   UNL     1       3.886   5.811  24.723  0.00  0.00    +0.237 C 
ATOM     20  C   UNL     1       5.244   6.348  24.642  0.00  0.00    +0.063 C 
ATOM     21  C   UNL     1       5.794   6.077  23.445  0.00  0.00    -0.015 C 
ATOM     22  C   UNL     1       7.102   5.082  23.004  0.00  0.00    +0.050 C 
ATOM     23  C   UNL     1       7.781   3.969  24.521  0.00  0.00    +0.186 C 
ATOM     24  O   UNL     1       7.643   2.007  25.119  0.00  0.00    -0.459 OA
ATOM     25  C   UNL     1       7.444   6.304  21.761  0.00  0.00    +0.015 C 
ATOM     26  O   UNL     1       2.952   6.413  25.214  0.00  0.00    -0.271 OA
ATOM     27  C   UNL     1       5.335  -0.082  26.216  0.00  0.00    +0.043 C 
ATOM     28  O   UNL     1       3.046  -4.458  27.242  0.00  0.00    -0.297 OA
ATOM     29  O   UNL     1       3.754  -7.040  29.181  0.00  0.00    -0.447 OA
ATOM     30  C   UNL     1       4.924  -7.056  28.455  0.00  0.00    +0.230 A 
ATOM     31  O   UNL     1       5.222  -5.117  25.865  0.00  0.00    -0.268 OA
ATOM     32  C   UNL     1       7.865  -4.544  27.064  0.00  0.00    +0.111 C 
ATOM     33  C   UNL     1       7.762   0.235  24.893  0.00  0.00    +0.330 C 
ATOM     34  O   UNL     1       8.147  -0.020  23.774  0.00  0.00    -0.249 OA
ATOM     35  C   UNL     1       9.137  -4.259  26.401  0.00  0.00    +0.047 C 
ENDROOT
BRANCH   1  36
ATOM     36  S   UNL     1       8.166  -4.900  24.038  0.00  0.00    -0.025 S 
ATOM     37  O   UNL     1       8.272  -4.432  22.652  0.00  0.00    -0.174 OA
ATOM     38  O   UNL     1       9.019  -6.049  24.286  0.00  0.00    -0.174 OA
BRANCH  36  39
ATOM     39  C   UNL     1       6.641  -5.808  23.982  0.00  0.00    +0.181 C 
BRANCH  39  40
ATOM     40  C   UNL     1       6.173  -5.792  22.583  0.00  0.00    +0.107 C 
BRANCH  40  41
ATOM     41  N   UNL     1       4.911  -5.109  22.322  0.00  0.00    -0.301 NA
BRANCH  41  43
ATOM     42  C   UNL     1       2.718  -5.404  23.479  0.00  0.00    +0.020 C 
ATOM     43  C   UNL     1       3.915  -6.053  22.842  0.00  0.00    +0.081 C 
ENDBRANCH  41  43
BRANCH  41  44
ATOM     44  C   UNL     1       4.807  -3.742  22.883  0.00  0.00    +0.081 C 
ATOM     45  C   UNL     1       5.706  -2.659  22.285  0.00  0.00    +0.020 C 
ENDBRANCH  41  44
ENDBRANCH  40  41
ENDBRANCH  39  40
ENDBRANCH  36  39
ENDBRANCH   1  36
BRANCH  23  46
ATOM     46  C   UNL     1       8.222   5.822  25.349  0.00  0.00    +0.024 C 
ATOM     47  C   UNL     1       7.911   6.299  27.108  0.00  0.00    +0.011 C 
ATOM     48  C   UNL     1       9.552   7.107  25.535  0.00  0.00    +0.011 C 
ENDBRANCH  23  46
BRANCH  11  49
ATOM     49  O   UNL     1       5.059  -1.980  28.475  0.00  0.00    -0.387 OA
ATOM     50  H   UNL     1       5.204  -2.853  28.863  0.00  0.00    +0.210 HD
ENDBRANCH  11  49
TORSDOF 8
ENDMDL
MODEL 3
REMARK VINA RESULT:      -6.3      2.994     10.497
REMARK  Name = 
REMARK  14 active torsions:
REMARK  status: ('A' for Active; 'I' for Inactive)
REMARK    1  A    between atoms: C_1  and  C_2
REMARK    2  A    between atoms: C_2  and  N_3
REMARK    3  A    between atoms: N_3  and  C_4
REMARK    4  A    between atoms: N_3  and  C_6
REMARK    5  A    between atoms: C_4  and  C_5
REMARK    6  A    between atoms: C_6  and  C_7
REMARK    7  A    between atoms: C_7  and  S_8
REMARK    8  A    between atoms: S_8  and  C_11
REMARK    9  A    between atoms: C_27  and  O_29
REMARK   10  A    between atoms: C_31  and  C_32
REMARK   11  A    between atoms: C_41  and  C_43
REMARK   12  A    between atoms: C_44  and  C_46
REMARK   13  A    between atoms: C_46  and  C_47
REMARK   14  A    between atoms: C_46  and  C_48
REMARK                            x       y       z     vdW  Elec       q    Type
REMARK                         _______ _______ _______ _____ _____    ______ ____
ROOT
ATOM      1  C   UNL     1       4.028   3.105  27.706  0.00  0.00    +0.163 C 
ATOM      2  C   UNL     1       4.975   1.800  26.786  0.00  0.00    +0.209 C 
ATOM      3  N   UNL     1       6.213   3.405  26.609  0.00  0.00    -0.281 N 
ATOM      4  C   UNL     1       6.660   4.680  25.502  0.00  0.00    +0.269 C 
ATOM      5  C   UNL     1       8.065   5.749  25.784  0.00  0.00    +0.164 A 
ATOM      6  N   UNL     1       9.360   5.190  25.723  0.00  0.00    -0.208 NA
ATOM      7  C   UNL     1       9.896   5.811  24.690  0.00  0.00    +0.203 A 
ATOM      8  C   UNL     1      10.278   5.064  23.461  0.00  0.00    +0.170 C 
ATOM      9  C   UNL     1       9.137   4.084  23.378  0.00  0.00    +0.145 C 
ATOM     10  C   UNL     1       9.433   2.636  23.451  0.00  0.00    +0.110 C 
ATOM     11  C   UNL     1       8.303   1.946  24.171  0.00  0.00    +0.145 C 
ATOM     12  C   UNL     1       8.333   0.515  23.778  0.00  0.00    +0.007 C 
ATOM     13  C   UNL     1       7.391  -0.336  24.174  0.00  0.00    -0.052 C 
ATOM     14  C   UNL     1       7.425  -1.682  23.757  0.00  0.00    +0.000 C 
ATOM     15  C   UNL     1       6.517  -2.587  24.107  0.00  0.00    -0.008 C 
ATOM     16  C   UNL     1       6.681  -3.896  23.490  0.00  0.00    +0.132 C 
ATOM     17  N   UNL     1       5.414  -4.485  23.313  0.00  0.00    -0.308 N 
ATOM     18  H   UNL     1       4.737  -4.190  24.004  0.00  0.00    +0.149 HD
ATOM     19  C   UNL     1       5.557  -5.858  23.208  0.00  0.00    +0.237 C 
ATOM     20  C   UNL     1       4.985  -6.390  24.445  0.00  0.00    +0.063 C 
ATOM     21  C   UNL     1       3.663  -6.147  24.501  0.00  0.00    -0.015 C 
ATOM     22  C   UNL     1       2.741  -5.157  25.534  0.00  0.00    +0.050 C 
ATOM     23  C   UNL     1       3.868  -4.001  26.716  0.00  0.00    +0.186 C 
ATOM     24  O   UNL     1       4.430  -2.024  26.782  0.00  0.00    -0.459 OA
ATOM     25  C   UNL     1       1.489  -6.409  25.404  0.00  0.00    +0.015 C 
ATOM     26  O   UNL     1       6.376  -6.452  22.535  0.00  0.00    -0.271 OA
ATOM     27  C   UNL     1       6.267   0.080  25.024  0.00  0.00    +0.043 C 
ATOM     28  O   UNL     1       7.978   4.469  23.221  0.00  0.00    -0.297 OA
ATOM     29  O   UNL     1       9.452   7.104  24.566  0.00  0.00    -0.447 OA
ATOM     30  C   UNL     1       8.340   7.108  25.378  0.00  0.00    +0.230 A 
ATOM     31  O   UNL     1       5.871   5.103  24.712  0.00  0.00    -0.268 OA
ATOM     32  C   UNL     1       6.004   4.576  27.620  0.00  0.00    +0.111 C 
ATOM     33  C   UNL     1       4.137  -0.258  26.782  0.00  0.00    +0.330 C 
ATOM     34  O   UNL     1       2.950  -0.030  26.715  0.00  0.00    -0.249 OA
ATOM     35  C   UNL     1       4.919   4.280  28.555  0.00  0.00    +0.047 C 
ENDROOT
BRANCH   1  36
ATOM     36  S   UNL     1       3.079   4.855  26.759  0.00  0.00    -0.025 S 
ATOM     37  O   UNL     1       1.764   4.924  27.406  0.00  0.00    -0.174 OA
ATOM     38  O   UNL     1       3.821   6.094  26.914  0.00  0.00    -0.174 OA
BRANCH  36  39
ATOM     39  C   UNL     1       2.644   5.108  25.057  0.00  0.00    +0.181 C 
BRANCH  39  40
ATOM     40  C   UNL     1       1.773   3.986  24.657  0.00  0.00    +0.107 C 
BRANCH  40  41
ATOM     41  N   UNL     1       2.228   3.169  23.537  0.00  0.00    -0.301 NA
BRANCH  41  43
ATOM     42  C   UNL     1       1.234   2.488  21.350  0.00  0.00    +0.020 C 
ATOM     43  C   UNL     1       1.003   2.980  22.752  0.00  0.00    +0.081 C 
ENDBRANCH  41  43
BRANCH  41  44
ATOM     44  C   UNL     1       3.364   3.730  22.770  0.00  0.00    +0.081 C 
ATOM     45  C   UNL     1       4.655   2.911  22.712  0.00  0.00    +0.020 C 
ENDBRANCH  41  44
ENDBRANCH  40  41
ENDBRANCH  39  40
ENDBRANCH  36  39
ENDBRANCH   1  36
BRANCH  23  46
ATOM     46  C   UNL     1       4.511  -5.829  27.462  0.00  0.00    +0.024 C 
ATOM     47  C   UNL     1       6.263  -6.248  27.879  0.00  0.00    +0.011 C 
ATOM     48  C   UNL     1       4.195  -7.115  28.767  0.00  0.00    +0.011 C 
ENDBRANCH  23  46
BRANCH  11  49
ATOM     49  O   UNL     1       8.420   2.035  25.586  0.00  0.00    -0.387 OA
ATOM     50  H   UNL     1       8.378   2.955  25.878  0.00  0.00    +0.210 HD
ENDBRANCH  11  49
TORSDOF 8
ENDMDL
MODEL 4
REMARK VINA RESULT:      -5.4      3.212     10.569
REMARK  Name = 
REMARK  14 active torsions:
REMARK  status: ('A' for Active; 'I' for Inactive)
REMARK    1  A    between atoms: C_1  and  C_2
REMARK    2  A    between atoms: C_2  and  N_3
REMARK    3  A    between atoms: N_3  and  C_4
REMARK    4  A    between atoms: N_3  and  C_6
REMARK    5  A    between atoms: C_4  and  C_5
REMARK    6  A    between atoms: C_6  and  C_7
REMARK    7  A    between atoms: C_7  and  S_8
REMARK    8  A    between atoms: S_8  and  C_11
REMARK    9  A    between atoms: C_27  and  O_29
REMARK   10  A    between atoms: C_31  and  C_32
REMARK   11  A    between atoms: C_41  and  C_43
REMARK   12  A    between atoms: C_44  and  C_46
REMARK   13  A    between atoms: C_46  and  C_47
REMARK   14  A    between atoms: C_46  and  C_48
REMARK                            x       y       z     vdW  Elec       q    Type
REMARK                         _______ _______ _______ _____ _____    ______ ____
ROOT
ATOM      1  C   UNL     1       4.772   3.238  26.866  0.00  0.00    +0.163 C 
ATOM      2  C   UNL     1       5.425   1.605  26.272  0.00  0.00    +0.209 C 
ATOM      3  N   UNL     1       6.928   2.868  25.733  0.00  0.00    -0.281 N 
ATOM      4  C   UNL     1       7.554   3.752  24.363  0.00  0.00    +0.269 C 
ATOM      5  C   UNL     1       9.142   4.574  24.395  0.00  0.00    +0.164 A 
ATOM      6  N   UNL     1      10.308   3.784  24.466  0.00  0.00    -0.208 NA
ATOM      7  C   UNL     1      10.906   4.043  23.320  0.00  0.00    +0.203 A 
ATOM      8  C   UNL     1      11.094   2.979  22.295  0.00  0.00    +0.170 C 
ATOM      9  C   UNL     1       9.790   2.238  22.438  0.00  0.00    +0.145 C 
ATOM     10  C   UNL     1       9.820   0.814  22.842  0.00  0.00    +0.110 C 
ATOM     11  C   UNL     1       8.613   0.530  23.700  0.00  0.00    +0.145 C 
ATOM     12  C   UNL     1       8.365  -0.932  23.646  0.00  0.00    +0.007 C 
ATOM     13  C   UNL     1       7.300  -1.480  24.225  0.00  0.00    -0.052 C 
ATOM     14  C   UNL     1       7.071  -2.868  24.129  0.00  0.00    +0.000 C 
ATOM     15  C   UNL     1       6.028  -3.483  24.676  0.00  0.00    -0.008 C 
ATOM     16  C   UNL     1       5.924  -4.904  24.377  0.00  0.00    +0.132 C 
ATOM     17  N   UNL     1       4.564  -5.270  24.337  0.00  0.00    -0.308 N 
ATOM     18  H   UNL     1       3.982  -4.705  24.941  0.00  0.00    +0.149 HD
ATOM     19  C   UNL     1       4.450  -6.633  24.552  0.00  0.00    +0.237 C 
ATOM     20  C   UNL     1       3.841  -6.754  25.876  0.00  0.00    +0.063 C 
ATOM     21  C   UNL     1       2.589  -6.262  25.873  0.00  0.00    -0.015 C 
ATOM     22  C   UNL     1       1.908  -4.909  26.648  0.00  0.00    +0.050 C 
ATOM     23  C   UNL     1       3.274  -3.748  27.535  0.00  0.00    +0.186 C 
ATOM     24  O   UNL     1       4.191  -1.949  27.147  0.00  0.00    -0.459 OA
ATOM     25  C   UNL     1       0.443  -5.901  26.808  0.00  0.00    +0.015 C 
ATOM     26  O   UNL     1       5.117  -7.507  24.035  0.00  0.00    -0.271 OA
ATOM     27  C   UNL     1       6.307  -0.679  24.955  0.00  0.00    +0.043 C 
ATOM     28  O   UNL     1       8.716   2.788  22.195  0.00  0.00    -0.297 OA
ATOM     29  O   UNL     1      10.701   5.335  22.900  0.00  0.00    -0.447 OA
ATOM     30  C   UNL     1       9.643   5.730  23.687  0.00  0.00    +0.230 A 
ATOM     31  O   UNL     1       6.824   4.126  23.496  0.00  0.00    -0.268 OA
ATOM     32  C   UNL     1       6.978   4.255  26.448  0.00  0.00    +0.111 C 
ATOM     33  C   UNL     1       4.226  -0.206  26.740  0.00  0.00    +0.330 C 
ATOM     34  O   UNL     1       3.098   0.219  26.620  0.00  0.00    -0.249 OA
ATOM     35  C   UNL     1       5.897   4.387  27.424  0.00  0.00    +0.047 C 
ENDROOT
BRANCH   1  36
ATOM     36  S   UNL     1       4.120   4.875  25.540  0.00  0.00    -0.025 S 
ATOM     37  O   UNL     1       2.804   5.245  26.073  0.00  0.00    -0.174 OA
ATOM     38  O   UNL     1       5.025   6.010  25.503  0.00  0.00    -0.174 OA
BRANCH  36  39
ATOM     39  C   UNL     1       3.792   4.839  23.796  0.00  0.00    +0.181 C 
BRANCH  39  40
ATOM     40  C   UNL     1       2.726   3.844  23.572  0.00  0.00    +0.107 C 
BRANCH  40  41
ATOM     41  N   UNL     1       2.308   3.630  22.191  0.00  0.00    -0.301 NA
BRANCH  41  43
ATOM     42  C   UNL     1       0.497   2.927  23.760  0.00  0.00    +0.020 C 
ATOM     43  C   UNL     1       0.991   3.002  22.342  0.00  0.00    +0.081 C 
ENDBRANCH  41  43
BRANCH  41  44
ATOM     44  C   UNL     1       2.312   4.841  21.337  0.00  0.00    +0.081 C 
ATOM     45  C   UNL     1       1.040   5.690  21.304  0.00  0.00    +0.020 C 
ENDBRANCH  41  44
ENDBRANCH  40  41
ENDBRANCH  39  40
ENDBRANCH  36  39
ENDBRANCH   1  36
BRANCH  23  46
ATOM     46  C   UNL     1       3.603  -5.448  28.683  0.00  0.00    +0.024 C 
ATOM     47  C   UNL     1       5.137  -5.790  29.656  0.00  0.00    +0.011 C 
ATOM     48  C   UNL     1       2.869  -6.538  29.998  0.00  0.00    +0.011 C 
ENDBRANCH  23  46
BRANCH  11  49
ATOM     49  O   UNL     1       8.803   0.913  25.057  0.00  0.00    -0.387 OA
ATOM     50  H   UNL     1       7.962   1.151  25.468  0.00  0.00    +0.210 HD
ENDBRANCH  11  49
TORSDOF 8
ENDMDL
MODEL 5
REMARK VINA RESULT:      -5.3      2.237      2.948
REMARK  Name = 
REMARK  14 active torsions:
REMARK  status: ('A' for Active; 'I' for Inactive)
REMARK    1  A    between atoms: C_1  and  C_2
REMARK    2  A    between atoms: C_2  and  N_3
REMARK    3  A    between atoms: N_3  and  C_4
REMARK    4  A    between atoms: N_3  and  C_6
REMARK    5  A    between atoms: C_4  and  C_5
REMARK    6  A    between atoms: C_6  and  C_7
REMARK    7  A    between atoms: C_7  and  S_8
REMARK    8  A    between atoms: S_8  and  C_11
REMARK    9  A    between atoms: C_27  and  O_29
REMARK   10  A    between atoms: C_31  and  C_32
REMARK   11  A    between atoms: C_41  and  C_43
REMARK   12  A    between atoms: C_44  and  C_46
REMARK   13  A    between atoms: C_46  and  C_47
REMARK   14  A    between atoms: C_46  and  C_48
REMARK                            x       y       z     vdW  Elec       q    Type
REMARK                         _______ _______ _______ _____ _____    ______ ____
ROOT
ATOM      1  C   UNL     1       7.159  -3.389  26.156  0.00  0.00    +0.163 C 
ATOM      2  C   UNL     1       6.104  -1.904  26.507  0.00  0.00    +0.209 C 
ATOM      3  N   UNL     1       5.210  -3.323  27.660  0.00  0.00    -0.281 N 
ATOM      4  C   UNL     1       3.862  -4.433  27.674  0.00  0.00    +0.269 C 
ATOM      5  C   UNL     1       3.379  -5.341  29.137  0.00  0.00    +0.164 A 
ATOM      6  N   UNL     1       2.848  -4.623  30.230  0.00  0.00    -0.208 NA
ATOM      7  C   UNL     1       1.614  -5.082  30.307  0.00  0.00    +0.203 A 
ATOM      8  C   UNL     1       0.448  -4.191  30.059  0.00  0.00    +0.170 C 
ATOM      9  C   UNL     1       0.986  -3.357  28.926  0.00  0.00    +0.145 C 
ATOM     10  C   UNL     1       1.114  -1.894  29.116  0.00  0.00    +0.110 C 
ATOM     11  C   UNL     1       2.329  -1.413  28.364  0.00  0.00    +0.145 C 
ATOM     12  C   UNL     1       2.151   0.038  28.114  0.00  0.00    +0.007 C 
ATOM     13  C   UNL     1       3.017   0.729  27.378  0.00  0.00    -0.052 C 
ATOM     14  C   UNL     1       2.804   2.100  27.127  0.00  0.00    +0.000 C 
ATOM     15  C   UNL     1       3.621   2.853  26.398  0.00  0.00    -0.008 C 
ATOM     16  C   UNL     1       3.169   4.220  26.179  0.00  0.00    +0.132 C 
ATOM     17  N   UNL     1       3.625   4.661  24.921  0.00  0.00    -0.308 N 
ATOM     18  H   UNL     1       4.494   4.226  24.637  0.00  0.00    +0.149 HD
ATOM     19  C   UNL     1       3.650   6.045  24.902  0.00  0.00    +0.237 C 
ATOM     20  C   UNL     1       5.070   6.394  24.888  0.00  0.00    +0.063 C 
ATOM     21  C   UNL     1       5.650   5.986  23.744  0.00  0.00    -0.015 C 
ATOM     22  C   UNL     1       6.837   4.805  23.441  0.00  0.00    +0.050 C 
ATOM     23  C   UNL     1       7.268   3.701  25.052  0.00  0.00    +0.186 C 
ATOM     24  O   UNL     1       6.831   1.810  25.733  0.00  0.00    -0.459 OA
ATOM     25  C   UNL     1       7.415   5.900  22.168  0.00  0.00    +0.015 C 
ATOM     26  O   UNL     1       2.777   6.792  25.299  0.00  0.00    -0.271 OA
ATOM     27  C   UNL     1       4.201   0.107  26.770  0.00  0.00    +0.043 C 
ATOM     28  O   UNL     1       1.287  -3.867  27.847  0.00  0.00    -0.297 OA
ATOM     29  O   UNL     1       1.523  -6.405  29.951  0.00  0.00    -0.447 OA
ATOM     30  C   UNL     1       2.721  -6.615  29.307  0.00  0.00    +0.230 A 
ATOM     31  O   UNL     1       3.434  -4.881  26.653  0.00  0.00    -0.268 OA
ATOM     32  C   UNL     1       6.052  -4.593  28.000  0.00  0.00    +0.111 C 
ATOM     33  C   UNL     1       6.724   0.028  25.601  0.00  0.00    +0.330 C 
ATOM     34  O   UNL     1       7.138  -0.338  24.523  0.00  0.00    -0.249 OA
ATOM     35  C   UNL     1       7.389  -4.514  27.412  0.00  0.00    +0.047 C 
ENDROOT
BRANCH   1  36
ATOM     36  S   UNL     1       6.486  -5.156  25.022  0.00  0.00    -0.025 S 
ATOM     37  O   UNL     1       7.648  -5.498  24.196  0.00  0.00    -0.174 OA
ATOM     38  O   UNL     1       6.066  -6.273  25.849  0.00  0.00    -0.174 OA
BRANCH  36  39
ATOM     39  C   UNL     1       5.168  -5.291  23.841  0.00  0.00    +0.181 C 
BRANCH  39  40
ATOM     40  C   UNL     1       5.009  -3.968  23.209  0.00  0.00    +0.107 C 
BRANCH  40  41
ATOM     41  N   UNL     1       5.696  -3.760  21.939  0.00  0.00    -0.301 NA
BRANCH  41  43
ATOM     42  C   UNL     1       7.858  -2.556  22.275  0.00  0.00    +0.020 C 
ATOM     43  C   UNL     1       6.363  -2.468  22.136  0.00  0.00    +0.081 C 
ENDBRANCH  41  43
BRANCH  41  44
ATOM     44  C   UNL     1       6.601  -4.857  21.527  0.00  0.00    +0.081 C 
ATOM     45  C   UNL     1       6.023  -5.958  20.635  0.00  0.00    +0.020 C 
ENDBRANCH  41  44
ENDBRANCH  40  41
ENDBRANCH  39  40
ENDBRANCH  36  39
ENDBRANCH   1  36
BRANCH  23  46
ATOM     46  C   UNL     1       7.902   5.524  25.818  0.00  0.00    +0.024 C 
ATOM     47  C   UNL     1       7.618   6.103  27.552  0.00  0.00    +0.011 C 
ATOM     48  C   UNL     1       9.366   6.657  25.984  0.00  0.00    +0.011 C 
ENDBRANCH  23  46
BRANCH  11  49
ATOM     49  O   UNL     1       3.536  -1.608  29.093  0.00  0.00    -0.387 OA
ATOM     50  H   UNL     1       4.166  -2.131  28.581  0.00  0.00    +0.210 HD
ENDBRANCH  11  49
TORSDOF 8
ENDMDL
MODEL 6
REMARK VINA RESULT:      -5.0      2.621      9.680
REMARK  Name = 
REMARK  14 active torsions:
REMARK  status: ('A' for Active; 'I' for Inactive)
REMARK    1  A    between atoms: C_1  and  C_2
REMARK    2  A    between atoms: C_2  and  N_3
REMARK    3  A    between atoms: N_3  and  C_4
REMARK    4  A    between atoms: N_3  and  C_6
REMARK    5  A    between atoms: C_4  and  C_5
REMARK    6  A    between atoms: C_6  and  C_7
REMARK    7  A    between atoms: C_7  and  S_8
REMARK    8  A    between atoms: S_8  and  C_11
REMARK    9  A    between atoms: C_27  and  O_29
REMARK   10  A    between atoms: C_31  and  C_32
REMARK   11  A    between atoms: C_41  and  C_43
REMARK   12  A    between atoms: C_44  and  C_46
REMARK   13  A    between atoms: C_46  and  C_47
REMARK   14  A    between atoms: C_46  and  C_48
REMARK                            x       y       z     vdW  Elec       q    Type
REMARK                         _______ _______ _______ _____ _____    ______ ____
ROOT
ATOM      1  C   UNL     1       7.162   1.397  22.862  0.00  0.00    +0.163 C 
ATOM      2  C   UNL     1       6.166   0.735  24.281  0.00  0.00    +0.209 C 
ATOM      3  N   UNL     1       6.374   2.690  24.805  0.00  0.00    -0.281 N 
ATOM      4  C   UNL     1       7.330   3.748  25.814  0.00  0.00    +0.269 C 
ATOM      5  C   UNL     1       6.902   5.463  26.085  0.00  0.00    +0.164 A 
ATOM      6  N   UNL     1       5.733   5.757  26.819  0.00  0.00    -0.208 NA
ATOM      7  C   UNL     1       6.207   6.362  27.890  0.00  0.00    +0.203 A 
ATOM      8  C   UNL     1       6.058   5.756  29.242  0.00  0.00    +0.170 C 
ATOM      9  C   UNL     1       6.275   4.303  28.908  0.00  0.00    +0.145 C 
ATOM     10  C   UNL     1       5.182   3.340  29.175  0.00  0.00    +0.110 C 
ATOM     11  C   UNL     1       5.203   2.277  28.106  0.00  0.00    +0.145 C 
ATOM     12  C   UNL     1       4.508   1.085  28.652  0.00  0.00    +0.007 C 
ATOM     13  C   UNL     1       4.453  -0.059  27.977  0.00  0.00    -0.052 C 
ATOM     14  C   UNL     1       3.816  -1.187  28.535  0.00  0.00    +0.000 C 
ATOM     15  C   UNL     1       3.727  -2.362  27.922  0.00  0.00    -0.008 C 
ATOM     16  C   UNL     1       3.115  -3.423  28.711  0.00  0.00    +0.132 C 
ATOM     17  N   UNL     1       3.690  -4.658  28.349  0.00  0.00    -0.308 N 
ATOM     18  H   UNL     1       4.007  -4.683  27.389  0.00  0.00    +0.149 HD
ATOM     19  C   UNL     1       2.824  -5.683  28.688  0.00  0.00    +0.237 C 
ATOM     20  C   UNL     1       2.335  -6.200  27.410  0.00  0.00    +0.063 C 
ATOM     21  C   UNL     1       3.337  -6.761  26.709  0.00  0.00    -0.015 C 
ATOM     22  C   UNL     1       4.078  -6.312  25.245  0.00  0.00    +0.050 C 
ATOM     23  C   UNL     1       3.485  -4.519  24.588  0.00  0.00    +0.186 C 
ATOM     24  O   UNL     1       4.256  -2.613  24.533  0.00  0.00    -0.459 OA
ATOM     25  C   UNL     1       4.227  -8.055  24.936  0.00  0.00    +0.015 C 
ATOM     26  O   UNL     1       2.225  -5.809  29.738  0.00  0.00    -0.271 OA
ATOM     27  C   UNL     1       5.070  -0.218  26.653  0.00  0.00    +0.043 C 
ATOM     28  O   UNL     1       7.347   3.908  28.451  0.00  0.00    -0.297 OA
ATOM     29  O   UNL     1       7.329   7.107  27.620  0.00  0.00    -0.447 OA
ATOM     30  C   UNL     1       7.709   6.622  26.390  0.00  0.00    +0.230 A 
ATOM     31  O   UNL     1       8.462   3.476  26.078  0.00  0.00    -0.268 OA
ATOM     32  C   UNL     1       6.757   3.691  23.669  0.00  0.00    +0.111 C 
ATOM     33  C   UNL     1       5.502  -1.382  24.163  0.00  0.00    +0.330 C 
ATOM     34  O   UNL     1       6.460  -1.902  23.635  0.00  0.00    -0.249 OA
ATOM     35  C   UNL     1       6.886   3.007  22.383  0.00  0.00    +0.047 C 
ENDROOT
BRANCH   1  36
ATOM     36  S   UNL     1       9.260   2.055  23.013  0.00  0.00    -0.025 S 
ATOM     37  O   UNL     1       9.884   1.493  21.810  0.00  0.00    -0.174 OA
ATOM     38  O   UNL     1       9.432   3.495  23.086  0.00  0.00    -0.174 OA
BRANCH  36  39
ATOM     39  C   UNL     1      10.471   1.659  24.249  0.00  0.00    +0.181 C 
BRANCH  39  40
ATOM     40  C   UNL     1      10.973   0.304  23.952  0.00  0.00    +0.107 C 
BRANCH  40  41
ATOM     41  N   UNL     1      10.391  -0.794  24.716  0.00  0.00    -0.301 NA
BRANCH  41  43
ATOM     42  C   UNL     1       8.748  -0.954  26.589  0.00  0.00    +0.020 C 
ATOM     43  C   UNL     1       9.310  -0.138  25.459  0.00  0.00    +0.081 C 
ENDBRANCH  41  43
BRANCH  41  44
ATOM     44  C   UNL     1       9.958  -1.960  23.912  0.00  0.00    +0.081 C 
ATOM     45  C   UNL     1       9.722  -1.742  22.416  0.00  0.00    +0.020 C 
ENDBRANCH  41  44
ENDBRANCH  40  41
ENDBRANCH  39  40
ENDBRANCH  36  39
ENDBRANCH   1  36
BRANCH  23  46
ATOM     46  C   UNL     1       1.633  -5.454  24.479  0.00  0.00    +0.024 C 
ATOM     47  C   UNL     1       0.443  -5.290  23.073  0.00  0.00    +0.011 C 
ATOM     48  C   UNL     1       0.762  -7.086  24.651  0.00  0.00    +0.011 C 
ENDBRANCH  23  46
BRANCH  11  49
ATOM     49  O   UNL     1       4.544   2.686  26.914  0.00  0.00    -0.387 OA
ATOM     50  H   UNL     1       4.175   1.924  26.446  0.00  0.00    +0.210 HD
ENDBRANCH  11  49
TORSDOF 8
ENDMDL
MODEL 7
REMARK VINA RESULT:      -4.9      2.670     10.641
REMARK  Name = 
REMARK  14 active torsions:
REMARK  status: ('A' for Active; 'I' for Inactive)
REMARK    1  A    between atoms: C_1  and  C_2
REMARK    2  A    between atoms: C_2  and  N_3
REMARK    3  A    between atoms: N_3  and  C_4
REMARK    4  A    between atoms: N_3  and  C_6
REMARK    5  A    between atoms: C_4  and  C_5
REMARK    6  A    between atoms: C_6  and  C_7
REMARK    7  A    between atoms: C_7  and  S_8
REMARK    8  A    between atoms: S_8  and  C_11
REMARK    9  A    between atoms: C_27  and  O_29
REMARK   10  A    between atoms: C_31  and  C_32
REMARK   11  A    between atoms: C_41  and  C_43
REMARK   12  A    between atoms: C_44  and  C_46
REMARK   13  A    between atoms: C_46  and  C_47
REMARK   14  A    between atoms: C_46  and  C_48
REMARK                            x       y       z     vdW  Elec       q    Type
REMARK                         _______ _______ _______ _____ _____    ______ ____
ROOT
ATOM      1  C   UNL     1       7.141   1.415  23.091  0.00  0.00    +0.163 C 
ATOM      2  C   UNL     1       6.102   0.748  24.477  0.00  0.00    +0.209 C 
ATOM      3  N   UNL     1       6.295   2.702  25.014  0.00  0.00    -0.281 N 
ATOM      4  C   UNL     1       7.221   3.756  26.055  0.00  0.00    +0.269 C 
ATOM      5  C   UNL     1       6.785   5.469  26.320  0.00  0.00    +0.164 A 
ATOM      6  N   UNL     1       5.595   5.761  27.020  0.00  0.00    -0.208 NA
ATOM      7  C   UNL     1       6.037   6.362  28.107  0.00  0.00    +0.203 A 
ATOM      8  C   UNL     1       5.847   5.751  29.451  0.00  0.00    +0.170 C 
ATOM      9  C   UNL     1       6.073   4.300  29.118  0.00  0.00    +0.145 C 
ATOM     10  C   UNL     1       4.973   3.336  29.348  0.00  0.00    +0.110 C 
ATOM     11  C   UNL     1       5.026   2.276  28.277  0.00  0.00    +0.145 C 
ATOM     12  C   UNL     1       4.314   1.083  28.797  0.00  0.00    +0.007 C 
ATOM     13  C   UNL     1       4.279  -0.059  28.116  0.00  0.00    -0.052 C 
ATOM     14  C   UNL     1       3.625  -1.188  28.651  0.00  0.00    +0.000 C 
ATOM     15  C   UNL     1       3.554  -2.362  28.032  0.00  0.00    -0.008 C 
ATOM     16  C   UNL     1       2.919  -3.425  28.798  0.00  0.00    +0.132 C 
ATOM     17  N   UNL     1       3.504  -4.658  28.448  0.00  0.00    -0.308 N 
ATOM     18  H   UNL     1       3.850  -4.680  27.498  0.00  0.00    +0.149 HD
ATOM     19  C   UNL     1       2.628  -5.685  28.758  0.00  0.00    +0.237 C 
ATOM     20  C   UNL     1       2.178  -6.197  27.464  0.00  0.00    +0.063 C 
ATOM     21  C   UNL     1       3.200  -6.756  26.791  0.00  0.00    -0.015 C 
ATOM     22  C   UNL     1       3.985  -6.302  25.351  0.00  0.00    +0.050 C 
ATOM     23  C   UNL     1       3.412  -4.506  24.684  0.00  0.00    +0.186 C 
ATOM     24  O   UNL     1       4.185  -2.600  24.659  0.00  0.00    -0.459 OA
ATOM     25  C   UNL     1       4.143  -8.043  25.041  0.00  0.00    +0.015 C 
ATOM     26  O   UNL     1       1.998  -5.815  29.789  0.00  0.00    -0.271 OA
ATOM     27  C   UNL     1       4.936  -0.213  26.811  0.00  0.00    +0.043 C 
ATOM     28  O   UNL     1       7.158   3.905  28.692  0.00  0.00    -0.297 OA
ATOM     29  O   UNL     1       7.166   7.108  27.873  0.00  0.00    -0.447 OA
ATOM     30  C   UNL     1       7.583   6.627  26.653  0.00  0.00    +0.230 A 
ATOM     31  O   UNL     1       8.344   3.482  26.352  0.00  0.00    -0.268 OA
ATOM     32  C   UNL     1       6.713   3.706  23.894  0.00  0.00    +0.111 C 
ATOM     33  C   UNL     1       5.442  -1.368  24.332  0.00  0.00    +0.330 C 
ATOM     34  O   UNL     1       6.415  -1.886  23.830  0.00  0.00    -0.249 OA
ATOM     35  C   UNL     1       6.880   3.027  22.610  0.00  0.00    +0.047 C 
ENDROOT
BRANCH   1  36
ATOM     36  S   UNL     1       9.234   2.072  23.307  0.00  0.00    -0.025 S 
ATOM     37  O   UNL     1       9.662   1.446  24.563  0.00  0.00    -0.174 OA
ATOM     38  O   UNL     1      10.095   1.699  22.199  0.00  0.00    -0.174 OA
BRANCH  36  39
ATOM     39  C   UNL     1       9.877   3.715  23.500  0.00  0.00    +0.181 C 
BRANCH  39  40
ATOM     40  C   UNL     1      11.344   3.629  23.365  0.00  0.00    +0.107 C 
BRANCH  40  41
ATOM     41  N   UNL     1      12.101   4.842  23.653  0.00  0.00    -0.301 NA
BRANCH  41  43
ATOM     42  C   UNL     1      13.513   6.261  22.159  0.00  0.00    +0.020 C 
ATOM     43  C   UNL     1      13.086   4.878  22.566  0.00  0.00    +0.081 C 
ENDBRANCH  41  43
BRANCH  41  44
ATOM     44  C   UNL     1      11.290   6.075  23.781  0.00  0.00    +0.081 C 
ATOM     45  C   UNL     1      11.237   6.750  25.152  0.00  0.00    +0.020 C 
ENDBRANCH  41  44
ENDBRANCH  40  41
ENDBRANCH  39  40
ENDBRANCH  36  39
ENDBRANCH   1  36
BRANCH  23  46
ATOM     46  C   UNL     1       1.564  -5.439  24.516  0.00  0.00    +0.024 C 
ATOM     47  C   UNL     1       0.443  -5.316  23.050  0.00  0.00    +0.011 C 
ATOM     48  C   UNL     1       0.680  -7.064  24.696  0.00  0.00    +0.011 C 
ENDBRANCH  23  46
BRANCH  11  49
ATOM     49  O   UNL     1       4.402   2.690  27.067  0.00  0.00    -0.387 OA
ATOM     50  H   UNL     1       4.629   3.606  26.859  0.00  0.00    +0.210 HD
ENDBRANCH  11  49
TORSDOF 8
ENDMDL
MODEL 8
REMARK VINA RESULT:      -3.7      1.936      2.392
REMARK  Name = 
REMARK  14 active torsions:
REMARK  status: ('A' for Active; 'I' for Inactive)
REMARK    1  A    between atoms: C_1  and  C_2
REMARK    2  A    between atoms: C_2  and  N_3
REMARK    3  A    between atoms: N_3  and  C_4
REMARK    4  A    between atoms: N_3  and  C_6
REMARK    5  A    between atoms: C_4  and  C_5
REMARK    6  A    between atoms: C_6  and  C_7
REMARK    7  A    between atoms: C_7  and  S_8
REMARK    8  A    between atoms: S_8  and  C_11
REMARK    9  A    between atoms: C_27  and  O_29
REMARK   10  A    between atoms: C_31  and  C_32
REMARK   11  A    between atoms: C_41  and  C_43
REMARK   12  A    between atoms: C_44  and  C_46
REMARK   13  A    between atoms: C_46  and  C_47
REMARK   14  A    between atoms: C_46  and  C_48
REMARK                            x       y       z     vdW  Elec       q    Type
REMARK                         _______ _______ _______ _____ _____    ______ ____
ROOT
ATOM      1  C   UNL     1       6.969  -3.609  26.260  0.00  0.00    +0.163 C 
ATOM      2  C   UNL     1       5.914  -2.176  26.786  0.00  0.00    +0.209 C 
ATOM      3  N   UNL     1       5.088  -3.703  27.848  0.00  0.00    -0.281 N 
ATOM      4  C   UNL     1       3.754  -4.830  27.823  0.00  0.00    +0.269 C 
ATOM      5  C   UNL     1       3.347  -5.869  29.221  0.00  0.00    +0.164 A 
ATOM      6  N   UNL     1       2.858  -5.257  30.395  0.00  0.00    -0.208 NA
ATOM      7  C   UNL     1       1.634  -5.740  30.485  0.00  0.00    +0.203 A 
ATOM      8  C   UNL     1       0.448  -4.848  30.367  0.00  0.00    +0.170 C 
ATOM      9  C   UNL     1       0.925  -3.910  29.289  0.00  0.00    +0.145 C 
ATOM     10  C   UNL     1       1.046  -2.468  29.601  0.00  0.00    +0.110 C 
ATOM     11  C   UNL     1       2.221  -1.905  28.842  0.00  0.00    +0.145 C 
ATOM     12  C   UNL     1       2.016  -0.440  28.728  0.00  0.00    +0.007 C 
ATOM     13  C   UNL     1       2.840   0.325  28.018  0.00  0.00    -0.052 C 
ATOM     14  C   UNL     1       2.601   1.710  27.898  0.00  0.00    +0.000 C 
ATOM     15  C   UNL     1       3.377   2.535  27.202  0.00  0.00    -0.008 C 
ATOM     16  C   UNL     1       2.901   3.909  27.124  0.00  0.00    +0.132 C 
ATOM     17  N   UNL     1       3.295   4.464  25.891  0.00  0.00    -0.308 N 
ATOM     18  H   UNL     1       4.154   4.069  25.532  0.00  0.00    +0.149 HD
ATOM     19  C   UNL     1       3.304   5.845  25.992  0.00  0.00    +0.237 C 
ATOM     20  C   UNL     1       4.718   6.215  25.947  0.00  0.00    +0.063 C 
ATOM     21  C   UNL     1       5.251   5.917  24.748  0.00  0.00    -0.015 C 
ATOM     22  C   UNL     1       6.435   4.785  24.291  0.00  0.00    +0.050 C 
ATOM     23  C   UNL     1       6.950   3.551  25.778  0.00  0.00    +0.186 C 
ATOM     24  O   UNL     1       6.564   1.602  26.309  0.00  0.00    -0.459 OA
ATOM     25  C   UNL     1       6.944   5.995  23.094  0.00  0.00    +0.015 C 
ATOM     26  O   UNL     1       2.441   6.541  26.491  0.00  0.00    -0.271 OA
ATOM     27  C   UNL     1       4.003  -0.225  27.307  0.00  0.00    +0.043 C 
ATOM     28  O   UNL     1       1.183  -4.320  28.157  0.00  0.00    -0.297 OA
ATOM     29  O   UNL     1       1.541  -7.028  30.018  0.00  0.00    -0.447 OA
ATOM     30  C   UNL     1       2.712  -7.163  29.307  0.00  0.00    +0.230 A 
ATOM     31  O   UNL     1       3.286  -5.194  26.787  0.00  0.00    -0.268 OA
ATOM     32  C   UNL     1       5.959  -4.985  28.038  0.00  0.00    +0.111 C 
ATOM     33  C   UNL     1       6.472  -0.164  26.027  0.00  0.00    +0.330 C 
ATOM     34  O   UNL     1       6.842  -0.428  24.904  0.00  0.00    -0.249 OA
ATOM     35  C   UNL     1       7.267  -4.836  27.402  0.00  0.00    +0.047 C 
ENDROOT
BRANCH   1  36
ATOM     36  S   UNL     1       6.264  -5.280  25.006  0.00  0.00    -0.025 S 
ATOM     37  O   UNL     1       7.425  -5.592  24.165  0.00  0.00    -0.174 OA
ATOM     38  O   UNL     1       5.815  -6.441  25.755  0.00  0.00    -0.174 OA
BRANCH  36  39
ATOM     39  C   UNL     1       4.952  -5.307  23.812  0.00  0.00    +0.181 C 
BRANCH  39  40
ATOM     40  C   UNL     1       4.221  -6.576  23.993  0.00  0.00    +0.107 C 
BRANCH  40  41
ATOM     41  N   UNL     1       2.780  -6.479  24.199  0.00  0.00    -0.301 NA
BRANCH  41  43
ATOM     42  C   UNL     1       0.953  -5.236  23.034  0.00  0.00    +0.020 C 
ATOM     43  C   UNL     1       2.311  -5.875  22.946  0.00  0.00    +0.081 C 
ENDBRANCH  41  43
BRANCH  41  44
ATOM     44  C   UNL     1       2.107  -7.750  24.551  0.00  0.00    +0.081 C 
ATOM     45  C   UNL     1       2.497  -8.417  25.872  0.00  0.00    +0.020 C 
ENDBRANCH  41  44
ENDBRANCH  40  41
ENDBRANCH  39  40
ENDBRANCH  36  39
ENDBRANCH   1  36
BRANCH  23  46
ATOM     46  C   UNL     1       7.598   5.310  26.673  0.00  0.00    +0.024 C 
ATOM     47  C   UNL     1       7.686   5.602  28.497  0.00  0.00    +0.011 C 
ATOM     48  C   UNL     1       8.963   6.570  26.694  0.00  0.00    +0.011 C 
ENDBRANCH  23  46
BRANCH  11  49
ATOM     49  O   UNL     1       3.461  -2.145  29.497  0.00  0.00    -0.387 OA
ATOM     50  H   UNL     1       3.586  -1.529  30.232  0.00  0.00    +0.210 HD
ENDBRANCH  11  49
TORSDOF 8
ENDMDL
