MODEL 1
REMARK VINA RESULT:      -6.3      0.000      0.000
REMARK  Name = 
REMARK  7 active torsions:
REMARK  status: ('A' for Active; 'I' for Inactive)
REMARK    1  A    between atoms: C_1  and  S_2
REMARK    2  A    between atoms: S_2  and  C_3
REMARK    3  A    between atoms: N_11  and  C1*_12
REMARK    4  A    between atoms: C4*_15  and  C5*_17
REMARK    5  A    between atoms: C5*_17  and  O5*_18
REMARK    6  A    between atoms: C3*_19  and  O3*_21
REMARK    7  A    between atoms: C2*_22  and  O2*_24
REMARK                            x       y       z     vdW  Elec       q    Type
REMARK                         _______ _______ _______ _____ _____    ______ ____
ROOT
ATOM      1  C1* UNL     1       9.113  -4.003  24.565  0.00  0.00    +0.253 C 
ATOM      2  C2* UNL     1       9.220  -4.849  25.844  0.00  0.00    +0.195 C 
ATOM      3  C3* UNL     1       7.775  -5.225  26.196  0.00  0.00    +0.178 C 
ATOM      4  C4* UNL     1       6.949  -4.629  25.064  0.00  0.00    +0.177 C 
ATOM      5  O4* UNL     1       7.860  -4.414  23.963  0.00  0.00    -0.346 OA
ENDROOT
BRANCH   1  10
ATOM      6  C   UNL     1       9.412   0.721  23.575  0.00  0.00    +0.127 A 
ATOM      7  C   UNL     1       9.203  -0.401  24.383  0.00  0.00    +0.140 A 
ATOM      8  N   UNL     1       8.875  -0.569  25.711  0.00  0.00    -0.231 NA
ATOM      9  C   UNL     1       8.797  -1.870  25.882  0.00  0.00    +0.203 A 
ATOM     10  N   UNL     1       9.113  -2.562  24.742  0.00  0.00    -0.286 N 
ATOM     11  C   UNL     1       9.330  -1.634  23.757  0.00  0.00    +0.167 A 
ATOM     12  N   UNL     1       9.610  -1.865  22.465  0.00  0.00    -0.216 NA
ATOM     13  C   UNL     1       9.784  -0.711  21.791  0.00  0.00    +0.224 A 
ATOM     14  N   UNL     1       9.706   0.551  22.261  0.00  0.00    -0.227 NA
BRANCH   6  16
ATOM     15  C   UNL     1      10.652   3.172  23.458  0.00  0.00    +0.091 C 
ATOM     16  S   UNL     1       9.280   2.335  24.286  0.00  0.00    -0.107 S 
ENDBRANCH   6  16
ENDBRANCH   1  10
BRANCH   2  17
ATOM     17  O2* UNL     1       9.959  -6.061  25.581  0.00  0.00    -0.385 OA
ATOM     18  H2* UNL     1      10.782  -6.046  26.101  0.00  0.00    +0.210 HD
ENDBRANCH   2  17
BRANCH   3  19
ATOM     19  O3* UNL     1       7.403  -4.652  27.447  0.00  0.00    -0.386 OA
ATOM     20  H3* UNL     1       6.987  -5.344  27.991  0.00  0.00    +0.210 HD
ENDBRANCH   3  19
BRANCH   4  21
ATOM     21  C5* UNL     1       5.803  -5.510  24.585  0.00  0.00    +0.190 C 
BRANCH  21  22
ATOM     22  O5* UNL     1       5.370  -6.348  25.654  0.00  0.00    -0.392 OA
ATOM     23  H5* UNL     1       4.417  -6.506  25.512  0.00  0.00    +0.210 HD
ENDBRANCH  21  22
ENDBRANCH   4  21
TORSDOF 6
ENDMDL
MODEL 2
REMARK VINA RESULT:      -6.1      1.733      2.499
REMARK  Name = 
REMARK  7 active torsions:
REMARK  status: ('A' for Active; 'I' for Inactive)
REMARK    1  A    between atoms: C_1  and  S_2
REMARK    2  A    between atoms: S_2  and  C_3
REMARK    3  A    between atoms: N_11  and  C1*_12
REMARK    4  A    between atoms: C4*_15  and  C5*_17
REMARK    5  A    between atoms: C5*_17  and  O5*_18
REMARK    6  A    between atoms: C3*_19  and  O3*_21
REMARK    7  A    between atoms: C2*_22  and  O2*_24
REMARK                            x       y       z     vdW  Elec       q    Type
REMARK                         _______ _______ _______ _____ _____    ______ ____
ROOT
ATOM      1  C1* UNL     1       7.441  -3.317  23.784  0.00  0.00    +0.253 C 
ATOM      2  C2* UNL     1       8.097  -4.680  23.507  0.00  0.00    +0.195 C 
ATOM      3  C3* UNL     1       8.446  -5.243  24.890  0.00  0.00    +0.178 C 
ATOM      4  C4* UNL     1       7.909  -4.201  25.863  0.00  0.00    +0.177 C 
ATOM      5  O4* UNL     1       6.928  -3.430  25.135  0.00  0.00    -0.346 OA
ENDROOT
BRANCH   1  10
ATOM      6  C   UNL     1       8.905   1.292  23.677  0.00  0.00    +0.127 A 
ATOM      7  C   UNL     1       9.066  -0.098  23.659  0.00  0.00    +0.140 A 
ATOM      8  N   UNL     1      10.163  -0.927  23.573  0.00  0.00    -0.231 NA
ATOM      9  C   UNL     1       9.675  -2.146  23.630  0.00  0.00    +0.203 A 
ATOM     10  N   UNL     1       8.306  -2.154  23.693  0.00  0.00    -0.286 N 
ATOM     11  C   UNL     1       7.901  -0.847  23.760  0.00  0.00    +0.167 A 
ATOM     12  N   UNL     1       6.647  -0.386  23.892  0.00  0.00    -0.216 NA
ATOM     13  C   UNL     1       6.621   0.961  23.900  0.00  0.00    +0.224 A 
ATOM     14  N   UNL     1       7.659   1.817  23.799  0.00  0.00    -0.227 NA
BRANCH   6  16
ATOM     15  C   UNL     1       9.587   3.951  23.835  0.00  0.00    +0.091 C 
ATOM     16  S   UNL     1      10.330   2.329  23.545  0.00  0.00    -0.107 S 
ENDBRANCH   6  16
ENDBRANCH   1  10
BRANCH   2  17
ATOM     17  O2* UNL     1       7.151  -5.568  22.874  0.00  0.00    -0.385 OA
ATOM     18  H2* UNL     1       7.290  -6.470  23.215  0.00  0.00    +0.210 HD
ENDBRANCH   2  17
BRANCH   3  19
ATOM     19  O3* UNL     1       9.857  -5.382  25.029  0.00  0.00    -0.386 OA
ATOM     20  H3* UNL     1      10.288  -4.671  24.522  0.00  0.00    +0.210 HD
ENDBRANCH   3  19
BRANCH   4  21
ATOM     21  C5* UNL     1       7.250  -4.778  27.108  0.00  0.00    +0.190 C 
BRANCH  21  22
ATOM     22  O5* UNL     1       7.945  -5.957  27.510  0.00  0.00    -0.392 OA
ATOM     23  H5* UNL     1       7.369  -6.710  27.275  0.00  0.00    +0.210 HD
ENDBRANCH  21  22
ENDBRANCH   4  21
TORSDOF 6
ENDMDL
MODEL 3
REMARK VINA RESULT:      -6.0      3.610      6.403
REMARK  Name = 
REMARK  7 active torsions:
REMARK  status: ('A' for Active; 'I' for Inactive)
REMARK    1  A    between atoms: C_1  and  S_2
REMARK    2  A    between atoms: S_2  and  C_3
REMARK    3  A    between atoms: N_11  and  C1*_12
REMARK    4  A    between atoms: C4*_15  and  C5*_17
REMARK    5  A    between atoms: C5*_17  and  O5*_18
REMARK    6  A    between atoms: C3*_19  and  O3*_21
REMARK    7  A    between atoms: C2*_22  and  O2*_24
REMARK                            x       y       z     vdW  Elec       q    Type
REMARK                         _______ _______ _______ _____ _____    ______ ____
ROOT
ATOM      1  C1* UNL     1       9.180  -2.463  23.331  0.00  0.00    +0.253 C 
ATOM      2  C2* UNL     1       8.947  -1.536  22.126  0.00  0.00    +0.195 C 
ATOM      3  C3* UNL     1       8.566  -0.180  22.734  0.00  0.00    +0.178 C 
ATOM      4  C4* UNL     1       8.671  -0.402  24.237  0.00  0.00    +0.177 C 
ATOM      5  O4* UNL     1       9.510  -1.565  24.420  0.00  0.00    -0.346 OA
ENDROOT
BRANCH   1  10
ATOM      6  C   UNL     1       6.461  -5.557  25.865  0.00  0.00    +0.127 A 
ATOM      7  C   UNL     1       6.751  -4.678  24.816  0.00  0.00    +0.140 A 
ATOM      8  N   UNL     1       6.040  -4.237  23.721  0.00  0.00    -0.231 NA
ATOM      9  C   UNL     1       6.842  -3.394  23.109  0.00  0.00    +0.203 A 
ATOM     10  N   UNL     1       8.064  -3.305  23.723  0.00  0.00    -0.286 N 
ATOM     11  C   UNL     1       8.007  -4.087  24.846  0.00  0.00    +0.167 A 
ATOM     12  N   UNL     1       8.961  -4.251  25.777  0.00  0.00    -0.216 NA
ATOM     13  C   UNL     1       8.564  -5.114  26.733  0.00  0.00    +0.224 A 
ATOM     14  N   UNL     1       7.390  -5.770  26.831  0.00  0.00    -0.227 NA
BRANCH   6  16
ATOM     15  C   UNL     1       4.752  -6.729  27.672  0.00  0.00    +0.091 C 
ATOM     16  S   UNL     1       4.889  -6.365  25.907  0.00  0.00    -0.107 S 
ENDBRANCH   6  16
ENDBRANCH   1  10
BRANCH   2  17
ATOM     17  O2* UNL     1      10.170  -1.376  21.376  0.00  0.00    -0.385 OA
ATOM     18  H2* UNL     1       9.983  -1.532  20.433  0.00  0.00    +0.210 HD
ENDBRANCH   2  17
BRANCH   3  19
ATOM     19  O3* UNL     1       7.234   0.171  22.368  0.00  0.00    -0.386 OA
ATOM     20  H3* UNL     1       7.048  -0.200  21.488  0.00  0.00    +0.210 HD
ENDBRANCH   3  19
BRANCH   4  21
ATOM     21  C5* UNL     1       9.276   0.763  25.008  0.00  0.00    +0.190 C 
BRANCH  21  22
ATOM     22  O5* UNL     1      10.644   0.484  25.294  0.00  0.00    -0.392 OA
ATOM     23  H5* UNL     1      11.170   1.134  24.790  0.00  0.00    +0.210 HD
ENDBRANCH  21  22
ENDBRANCH   4  21
TORSDOF 6
ENDMDL
MODEL 4
REMARK VINA RESULT:      -5.8      3.975      6.539
REMARK  Name = 
REMARK  7 active torsions:
REMARK  status: ('A' for Active; 'I' for Inactive)
REMARK    1  A    between atoms: C_1  and  S_2
REMARK    2  A    between atoms: S_2  and  C_3
REMARK    3  A    between atoms: N_11  and  C1*_12
REMARK    4  A    between atoms: C4*_15  and  C5*_17
REMARK    5  A    between atoms: C5*_17  and  O5*_18
REMARK    6  A    between atoms: C3*_19  and  O3*_21
REMARK    7  A    between atoms: C2*_22  and  O2*_24
REMARK                            x       y       z     vdW  Elec       q    Type
REMARK                         _______ _______ _______ _____ _____    ______ ____
ROOT
ATOM      1  C1* UNL     1       9.528   1.117  23.747  0.00  0.00    +0.253 C 
ATOM      2  C2* UNL     1       9.932   1.695  22.380  0.00  0.00    +0.195 C 
ATOM      3  C3* UNL     1       8.610   1.925  21.638  0.00  0.00    +0.178 C 
ATOM      4  C4* UNL     1       7.541   1.531  22.648  0.00  0.00    +0.177 C 
ATOM      5  O4* UNL     1       8.169   1.582  23.949  0.00  0.00    -0.346 OA
ENDROOT
BRANCH   1  10
ATOM      6  C   UNL     1       8.753  -3.341  25.454  0.00  0.00    +0.127 A 
ATOM      7  C   UNL     1       9.246  -2.386  24.558  0.00  0.00    +0.140 A 
ATOM      8  N   UNL     1       9.966  -2.466  23.385  0.00  0.00    -0.231 NA
ATOM      9  C   UNL     1      10.110  -1.221  22.988  0.00  0.00    +0.203 A 
ATOM     10  N   UNL     1       9.566  -0.329  23.874  0.00  0.00    -0.286 N 
ATOM     11  C   UNL     1       8.966  -1.061  24.865  0.00  0.00    +0.167 A 
ATOM     12  N   UNL     1       8.261  -0.600  25.910  0.00  0.00    -0.216 NA
ATOM     13  C   UNL     1       7.838  -1.610  26.695  0.00  0.00    +0.224 A 
ATOM     14  N   UNL     1       8.040  -2.934  26.535  0.00  0.00    -0.227 NA
BRANCH   6  16
ATOM     15  C   UNL     1       7.966  -5.349  23.749  0.00  0.00    +0.091 C 
ATOM     16  S   UNL     1       9.066  -5.054  25.152  0.00  0.00    -0.107 S 
ENDBRANCH   6  16
ENDBRANCH   1  10
BRANCH   2  17
ATOM     17  O2* UNL     1      10.591   2.967  22.552  0.00  0.00    -0.385 OA
ATOM     18  H2* UNL     1      10.023   3.668  22.182  0.00  0.00    +0.210 HD
ENDBRANCH   2  17
BRANCH   3  19
ATOM     19  O3* UNL     1       8.539   1.098  20.480  0.00  0.00    -0.386 OA
ATOM     20  H3* UNL     1       7.719   0.574  20.525  0.00  0.00    +0.210 HD
ENDBRANCH   3  19
BRANCH   4  21
ATOM     21  C5* UNL     1       6.317   2.435  22.661  0.00  0.00    +0.190 C 
BRANCH  21  22
ATOM     22  O5* UNL     1       6.500   3.495  21.725  0.00  0.00    -0.392 OA
ATOM     23  H5* UNL     1       5.991   3.251  20.929  0.00  0.00    +0.210 HD
ENDBRANCH  21  22
ENDBRANCH   4  21
TORSDOF 6
ENDMDL
MODEL 5
REMARK VINA RESULT:      -5.8      3.687      6.158
REMARK  Name = 
REMARK  7 active torsions:
REMARK  status: ('A' for Active; 'I' for Inactive)
REMARK    1  A    between atoms: C_1  and  S_2
REMARK    2  A    between atoms: S_2  and  C_3
REMARK    3  A    between atoms: N_11  and  C1*_12
REMARK    4  A    between atoms: C4*_15  and  C5*_17
REMARK    5  A    between atoms: C5*_17  and  O5*_18
REMARK    6  A    between atoms: C3*_19  and  O3*_21
REMARK    7  A    between atoms: C2*_22  and  O2*_24
REMARK                            x       y       z     vdW  Elec       q    Type
REMARK                         _______ _______ _______ _____ _____    ______ ____
ROOT
ATOM      1  C1* UNL     1       9.483  -2.629  23.546  0.00  0.00    +0.253 C 
ATOM      2  C2* UNL     1       9.147  -1.757  22.325  0.00  0.00    +0.195 C 
ATOM      3  C3* UNL     1       8.616  -0.442  22.907  0.00  0.00    +0.178 C 
ATOM      4  C4* UNL     1       8.747  -0.622  24.414  0.00  0.00    +0.177 C 
ATOM      5  O4* UNL     1       9.712  -1.679  24.617  0.00  0.00    -0.346 OA
ENDROOT
BRANCH   1  10
ATOM      6  C   UNL     1       5.482  -5.346  23.508  0.00  0.00    +0.127 A 
ATOM      7  C   UNL     1       6.697  -4.872  24.015  0.00  0.00    +0.140 A 
ATOM      8  N   UNL     1       7.438  -5.168  25.138  0.00  0.00    -0.231 NA
ATOM      9  C   UNL     1       8.505  -4.404  25.054  0.00  0.00    +0.203 A 
ATOM     10  N   UNL     1       8.469  -3.584  23.957  0.00  0.00    -0.286 N 
ATOM     11  C   UNL     1       7.338  -3.903  23.254  0.00  0.00    +0.167 A 
ATOM     12  N   UNL     1       6.932  -3.390  22.082  0.00  0.00    -0.216 NA
ATOM     13  C   UNL     1       5.757  -3.925  21.696  0.00  0.00    +0.224 A 
ATOM     14  N   UNL     1       5.016  -4.857  22.330  0.00  0.00    -0.227 NA
BRANCH   6  16
ATOM     15  C   UNL     1       2.987  -6.499  23.575  0.00  0.00    +0.091 C 
ATOM     16  S   UNL     1       4.588  -6.574  24.412  0.00  0.00    -0.107 S 
ENDBRANCH   6  16
ENDBRANCH   1  10
BRANCH   2  17
ATOM     17  O2* UNL     1      10.343  -1.476  21.568  0.00  0.00    -0.385 OA
ATOM     18  H2* UNL     1      11.116  -1.581  22.151  0.00  0.00    +0.210 HD
ENDBRANCH   2  17
BRANCH   3  19
ATOM     19  O3* UNL     1       7.253  -0.249  22.540  0.00  0.00    -0.386 OA
ATOM     20  H3* UNL     1       7.216  -0.054  21.586  0.00  0.00    +0.210 HD
ENDBRANCH   3  19
BRANCH   4  21
ATOM     21  C5* UNL     1       9.218   0.618  25.161  0.00  0.00    +0.190 C 
BRANCH  21  22
ATOM     22  O5* UNL     1      10.633   0.566  25.323  0.00  0.00    -0.392 OA
ATOM     23  H5* UNL     1      10.917  -0.307  24.990  0.00  0.00    +0.210 HD
ENDBRANCH  21  22
ENDBRANCH   4  21
TORSDOF 6
ENDMDL
MODEL 6
REMARK VINA RESULT:      -5.8      1.863      2.418
REMARK  Name = 
REMARK  7 active torsions:
REMARK  status: ('A' for Active; 'I' for Inactive)
REMARK    1  A    between atoms: C_1  and  S_2
REMARK    2  A    between atoms: S_2  and  C_3
REMARK    3  A    between atoms: N_11  and  C1*_12
REMARK    4  A    between atoms: C4*_15  and  C5*_17
REMARK    5  A    between atoms: C5*_17  and  O5*_18
REMARK    6  A    between atoms: C3*_19  and  O3*_21
REMARK    7  A    between atoms: C2*_22  and  O2*_24
REMARK                            x       y       z     vdW  Elec       q    Type
REMARK                         _______ _______ _______ _____ _____    ______ ____
ROOT
ATOM      1  C1* UNL     1       6.605  -3.465  23.543  0.00  0.00    +0.253 C 
ATOM      2  C2* UNL     1       7.814  -4.344  23.183  0.00  0.00    +0.195 C 
ATOM      3  C3* UNL     1       8.408  -4.776  24.530  0.00  0.00    +0.178 C 
ATOM      4  C4* UNL     1       7.464  -4.175  25.563  0.00  0.00    +0.177 C 
ATOM      5  O4* UNL     1       6.225  -3.899  24.873  0.00  0.00    -0.346 OA
ENDROOT
BRANCH   1  10
ATOM      6  C   UNL     1       8.470   0.873  22.499  0.00  0.00    +0.127 A 
ATOM      7  C   UNL     1       7.591  -0.021  23.119  0.00  0.00    +0.140 A 
ATOM      8  N   UNL     1       6.536   0.134  23.992  0.00  0.00    -0.231 NA
ATOM      9  C   UNL     1       6.083  -1.082  24.201  0.00  0.00    +0.203 A 
ATOM     10  N   UNL     1       6.828  -2.030  23.549  0.00  0.00    -0.286 N 
ATOM     11  C   UNL     1       7.771  -1.364  22.813  0.00  0.00    +0.167 A 
ATOM     12  N   UNL     1       8.679  -1.892  21.976  0.00  0.00    -0.216 NA
ATOM     13  C   UNL     1       9.461  -0.935  21.439  0.00  0.00    +0.224 A 
ATOM     14  N   UNL     1       9.415   0.397  21.649  0.00  0.00    -0.227 NA
BRANCH   6  16
ATOM     15  C   UNL     1       9.129   2.694  24.451  0.00  0.00    +0.091 C 
ATOM     16  S   UNL     1       8.324   2.603  22.835  0.00  0.00    -0.107 S 
ENDBRANCH   6  16
ENDBRANCH   1  10
BRANCH   2  17
ATOM     17  O2* UNL     1       7.380  -5.523  22.473  0.00  0.00    -0.385 OA
ATOM     18  H2* UNL     1       7.887  -5.595  21.644  0.00  0.00    +0.210 HD
ENDBRANCH   2  17
BRANCH   3  19
ATOM     19  O3* UNL     1       9.724  -4.252  24.684  0.00  0.00    -0.386 OA
ATOM     20  H3* UNL     1      10.305  -4.680  24.029  0.00  0.00    +0.210 HD
ENDBRANCH   3  19
BRANCH   4  21
ATOM     21  C5* UNL     1       7.170  -5.078  26.753  0.00  0.00    +0.190 C 
BRANCH  21  22
ATOM     22  O5* UNL     1       8.304  -5.901  27.015  0.00  0.00    -0.392 OA
ATOM     23  H5* UNL     1       9.044  -5.296  27.218  0.00  0.00    +0.210 HD
ENDBRANCH  21  22
ENDBRANCH   4  21
TORSDOF 6
ENDMDL
MODEL 7
REMARK VINA RESULT:      -5.6      2.061      2.331
REMARK  Name = 
REMARK  7 active torsions:
REMARK  status: ('A' for Active; 'I' for Inactive)
REMARK    1  A    between atoms: C_1  and  S_2
REMARK    2  A    between atoms: S_2  and  C_3
REMARK    3  A    between atoms: N_11  and  C1*_12
REMARK    4  A    between atoms: C4*_15  and  C5*_17
REMARK    5  A    between atoms: C5*_17  and  O5*_18
REMARK    6  A    between atoms: C3*_19  and  O3*_21
REMARK    7  A    between atoms: C2*_22  and  O2*_24
REMARK                            x       y       z     vdW  Elec       q    Type
REMARK                         _______ _______ _______ _____ _____    ______ ____
ROOT
ATOM      1  C1* UNL     1       8.187  -3.434  24.322  0.00  0.00    +0.253 C 
ATOM      2  C2* UNL     1       7.253  -4.281  25.201  0.00  0.00    +0.195 C 
ATOM      3  C3* UNL     1       6.447  -5.137  24.218  0.00  0.00    +0.178 C 
ATOM      4  C4* UNL     1       7.018  -4.774  22.853  0.00  0.00    +0.177 C 
ATOM      5  O4* UNL     1       8.319  -4.195  23.095  0.00  0.00    -0.346 OA
ENDROOT
BRANCH   1  10
ATOM      6  C   UNL     1       7.941   0.942  22.278  0.00  0.00    +0.127 A 
ATOM      7  C   UNL     1       7.529  -0.097  23.119  0.00  0.00    +0.140 A 
ATOM      8  N   UNL     1       6.471  -0.255  23.988  0.00  0.00    -0.231 NA
ATOM      9  C   UNL     1       6.608  -1.468  24.476  0.00  0.00    +0.203 A 
ATOM     10  N   UNL     1       7.736  -2.089  24.008  0.00  0.00    -0.286 N 
ATOM     11  C   UNL     1       8.314  -1.242  23.101  0.00  0.00    +0.167 A 
ATOM     12  N   UNL     1       9.407  -1.467  22.354  0.00  0.00    -0.216 NA
ATOM     13  C   UNL     1       9.700  -0.399  21.586  0.00  0.00    +0.224 A 
ATOM     14  N   UNL     1       9.045   0.777  21.506  0.00  0.00    -0.227 NA
BRANCH   6  16
ATOM     15  C   UNL     1       7.693   3.294  23.682  0.00  0.00    +0.091 C 
ATOM     16  S   UNL     1       7.009   2.444  22.240  0.00  0.00    -0.107 S 
ENDBRANCH   6  16
ENDBRANCH   1  10
BRANCH   2  17
ATOM     17  O2* UNL     1       8.026  -5.158  26.049  0.00  0.00    -0.385 OA
ATOM     18  H2* UNL     1       8.185  -4.713  26.900  0.00  0.00    +0.210 HD
ENDBRANCH   2  17
BRANCH   3  19
ATOM     19  O3* UNL     1       5.063  -4.807  24.289  0.00  0.00    -0.386 OA
ATOM     20  H3* UNL     1       4.774  -4.887  25.216  0.00  0.00    +0.210 HD
ENDBRANCH   3  19
BRANCH   4  21
ATOM     21  C5* UNL     1       7.177  -5.951  21.900  0.00  0.00    +0.190 C 
BRANCH  21  22
ATOM     22  O5* UNL     1       6.075  -6.842  22.058  0.00  0.00    -0.392 OA
ATOM     23  H5* UNL     1       5.608  -6.858  21.201  0.00  0.00    +0.210 HD
ENDBRANCH  21  22
ENDBRANCH   4  21
TORSDOF 6
ENDMDL
MODEL 8
REMARK VINA RESULT:      -5.6      3.683      6.287
REMARK  Name = 
REMARK  7 active torsions:
REMARK  status: ('A' for Active; 'I' for Inactive)
REMARK    1  A    between atoms: C_1  and  S_2
REMARK    2  A    between atoms: S_2  and  C_3
REMARK    3  A    between atoms: N_11  and  C1*_12
REMARK    4  A    between atoms: C4*_15  and  C5*_17
REMARK    5  A    between atoms: C5*_17  and  O5*_18
REMARK    6  A    between atoms: C3*_19  and  O3*_21
REMARK    7  A    between atoms: C2*_22  and  O2*_24
REMARK                            x       y       z     vdW  Elec       q    Type
REMARK                         _______ _______ _______ _____ _____    ______ ____
ROOT
ATOM      1  C1* UNL     1       9.599  -1.413  23.538  0.00  0.00    +0.253 C 
ATOM      2  C2* UNL     1       8.968  -0.911  22.229  0.00  0.00    +0.195 C 
ATOM      3  C3* UNL     1       8.773   0.597  22.433  0.00  0.00    +0.178 C 
ATOM      4  C4* UNL     1       9.365   0.866  23.810  0.00  0.00    +0.177 C 
ATOM      5  O4* UNL     1      10.245  -0.243  24.101  0.00  0.00    -0.346 OA
ENDROOT
BRANCH   1  10
ATOM      6  C   UNL     1       7.491  -4.588  26.515  0.00  0.00    +0.127 A 
ATOM      7  C   UNL     1       7.688  -3.340  25.914  0.00  0.00    +0.140 A 
ATOM      8  N   UNL     1       7.081  -2.111  26.055  0.00  0.00    -0.231 NA
ATOM      9  C   UNL     1       7.726  -1.315  25.231  0.00  0.00    +0.203 A 
ATOM     10  N   UNL     1       8.690  -1.980  24.519  0.00  0.00    -0.286 N 
ATOM     11  C   UNL     1       8.711  -3.270  24.978  0.00  0.00    +0.167 A 
ATOM     12  N   UNL     1       9.539  -4.258  24.603  0.00  0.00    -0.216 NA
ATOM     13  C   UNL     1       9.254  -5.405  25.251  0.00  0.00    +0.224 A 
ATOM     14  N   UNL     1       8.292  -5.628  26.170  0.00  0.00    -0.227 NA
BRANCH   6  16
ATOM     15  C   UNL     1       4.766  -4.938  26.632  0.00  0.00    +0.091 C 
ATOM     16  S   UNL     1       6.205  -4.778  27.714  0.00  0.00    -0.107 S 
ENDBRANCH   6  16
ENDBRANCH   1  10
BRANCH   2  17
ATOM     17  O2* UNL     1       9.877  -1.113  21.127  0.00  0.00    -0.385 OA
ATOM     18  H2* UNL     1       9.381  -1.478  20.373  0.00  0.00    +0.210 HD
ENDBRANCH   2  17
BRANCH   3  19
ATOM     19  O3* UNL     1       7.388   0.928  22.406  0.00  0.00    -0.386 OA
ATOM     20  H3* UNL     1       7.301   1.874  22.194  0.00  0.00    +0.210 HD
ENDBRANCH   3  19
BRANCH   4  21
ATOM     21  C5* UNL     1      10.161   2.160  23.915  0.00  0.00    +0.190 C 
BRANCH  21  22
ATOM     22  O5* UNL     1      10.363   2.700  22.611  0.00  0.00    -0.392 OA
ATOM     23  H5* UNL     1       9.516   3.108  22.347  0.00  0.00    +0.210 HD
ENDBRANCH  21  22
ENDBRANCH   4  21
TORSDOF 6
ENDMDL
MODEL 9
REMARK VINA RESULT:      -5.5      3.945      6.605
REMARK  Name = 
REMARK  7 active torsions:
REMARK  status: ('A' for Active; 'I' for Inactive)
REMARK    1  A    between atoms: C_1  and  S_2
REMARK    2  A    between atoms: S_2  and  C_3
REMARK    3  A    between atoms: N_11  and  C1*_12
REMARK    4  A    between atoms: C4*_15  and  C5*_17
REMARK    5  A    between atoms: C5*_17  and  O5*_18
REMARK    6  A    between atoms: C3*_19  and  O3*_21
REMARK    7  A    between atoms: C2*_22  and  O2*_24
REMARK                            x       y       z     vdW  Elec       q    Type
REMARK                         _______ _______ _______ _____ _____    ______ ____
ROOT
ATOM      1  C1* UNL     1       9.405  -0.056  24.272  0.00  0.00    +0.253 C 
ATOM      2  C2* UNL     1      10.513   0.717  23.538  0.00  0.00    +0.195 C 
ATOM      3  C3* UNL     1       9.792   1.865  22.822  0.00  0.00    +0.178 C 
ATOM      4  C4* UNL     1       8.337   1.713  23.245  0.00  0.00    +0.177 C 
ATOM      5  O4* UNL     1       8.343   0.915  24.450  0.00  0.00    -0.346 OA
ENDROOT
BRANCH   1  10
ATOM      6  C   UNL     1       7.635  -4.496  23.532  0.00  0.00    +0.127 A 
ATOM      7  C   UNL     1       8.045  -3.209  23.166  0.00  0.00    +0.140 A 
ATOM      8  N   UNL     1       8.078  -2.526  21.969  0.00  0.00    -0.231 NA
ATOM      9  C   UNL     1       8.549  -1.336  22.268  0.00  0.00    +0.203 A 
ATOM     10  N   UNL     1       8.877  -1.227  23.594  0.00  0.00    -0.286 N 
ATOM     11  C   UNL     1       8.517  -2.405  24.195  0.00  0.00    +0.167 A 
ATOM     12  N   UNL     1       8.603  -2.718  25.497  0.00  0.00    -0.216 NA
ATOM     13  C   UNL     1       8.177  -3.976  25.725  0.00  0.00    +0.224 A 
ATOM     14  N   UNL     1       7.707  -4.873  24.833  0.00  0.00    -0.227 NA
BRANCH   6  16
ATOM     15  C   UNL     1       5.278  -5.668  22.737  0.00  0.00    +0.091 C 
ATOM     16  S   UNL     1       7.028  -5.596  22.288  0.00  0.00    -0.107 S 
ENDBRANCH   6  16
ENDBRANCH   1  10
BRANCH   2  17
ATOM     17  O2* UNL     1      11.442   1.280  24.489  0.00  0.00    -0.385 OA
ATOM     18  H2* UNL     1      12.299   0.825  24.399  0.00  0.00    +0.210 HD
ENDBRANCH   2  17
BRANCH   3  19
ATOM     19  O3* UNL     1       9.922   1.729  21.409  0.00  0.00    -0.386 OA
ATOM     20  H3* UNL     1       9.684   2.578  20.995  0.00  0.00    +0.210 HD
ENDBRANCH   3  19
BRANCH   4  21
ATOM     21  C5* UNL     1       7.621   3.025  23.532  0.00  0.00    +0.190 C 
BRANCH  21  22
ATOM     22  O5* UNL     1       8.073   4.022  22.619  0.00  0.00    -0.392 OA
ATOM     23  H5* UNL     1       8.896   3.678  22.220  0.00  0.00    +0.210 HD
ENDBRANCH  21  22
ENDBRANCH   4  21
TORSDOF 6
ENDMDL
