MODEL 1
REMARK VINA RESULT:      54.4      0.000      0.000
REMARK  Name = 
REMARK  20 active torsions:
REMARK  status: ('A' for Active; 'I' for Inactive)
REMARK    1  A    between atoms: C_2  and  N_3
REMARK    2  A    between atoms: C_2  and  C_8
REMARK    3  A    between atoms: C_2  and  C_11
REMARK    4  A    between atoms: C_4  and  O_5
REMARK    5  A    between atoms: C_4  and  O_6
REMARK    6  A    between atoms: O_6  and  C_7
REMARK    7  A    between atoms: C_8  and  C_9
REMARK    8  A    between atoms: C_8  and  C_10
REMARK    9  A    between atoms: C_19  and  C_21
REMARK   10  A    between atoms: C_24  and  C_26
REMARK   11  A    between atoms: C_35  and  C_38
REMARK   12  A    between atoms: C_45  and  C_47
REMARK   13  A    between atoms: C_50  and  C_52
REMARK   14  A    between atoms: C_52  and  N_54
REMARK   15  A    between atoms: C_52  and  C_59
REMARK   16  A    between atoms: C_55  and  O_56
REMARK   17  A    between atoms: C_55  and  O_57
REMARK   18  A    between atoms: O_57  and  C_58
REMARK   19  A    between atoms: C_59  and  C_60
REMARK   20  A    between atoms: C_59  and  C_61
REMARK                            x       y       z     vdW  Elec       q    Type
REMARK                         _______ _______ _______ _____ _____    ______ ____
ROOT
ATOM      1  C   UNL     1       2.968  -0.895  27.551  0.00  0.00    +0.000 A 
ATOM      2  C   UNL     1       2.699   0.313  28.229  0.00  0.00    +0.010 A 
ATOM      3  C   UNL     1       3.493   1.450  28.032  0.00  0.00    +0.009 A 
ATOM      4  C   UNL     1       4.555   1.366  27.149  0.00  0.00    -0.008 A 
ATOM      5  C   UNL     1       5.578   2.324  26.800  0.00  0.00    -0.008 A 
ATOM      6  C   UNL     1       5.778   3.617  27.230  0.00  0.00    +0.009 A 
ATOM      7  C   UNL     1       6.902   4.305  26.754  0.00  0.00    +0.009 A 
ATOM      8  C   UNL     1       7.850   3.722  25.869  0.00  0.00    -0.017 A 
ATOM      9  C   UNL     1       7.611   2.403  25.438  0.00  0.00    +0.019 A 
ATOM     10  C   UNL     1       6.481   1.730  25.895  0.00  0.00    +0.033 A 
ATOM     11  C   UNL     1       6.032   0.317  25.565  0.00  0.00    +0.300 C 
ATOM     12  F   UNL     1       5.722   0.160  24.246  0.00  0.00    -0.195 F 
ATOM     13  F   UNL     1       6.988  -0.613  25.838  0.00  0.00    -0.195 F 
ATOM     14  C   UNL     1       4.813   0.170  26.456  0.00  0.00    +0.034 A 
ATOM     15  C   UNL     1       4.032  -0.956  26.646  0.00  0.00    +0.020 A 
ENDROOT
BRANCH   8  16
ATOM     16  C   UNL     1       9.017   4.518  25.402  0.00  0.00    -0.016 A 
ATOM     17  C   UNL     1       9.347   5.755  25.988  0.00  0.00    +0.011 A 
ATOM     18  C   UNL     1      10.525   6.452  25.658  0.00  0.00    +0.030 A 
ATOM     19  C   UNL     1      11.409   5.891  24.731  0.00  0.00    +0.089 A 
ATOM     20  N   UNL     1      12.630   6.322  24.274  0.00  0.00    -0.231 NA
ATOM     21  C   UNL     1      12.993   5.485  23.314  0.00  0.00    +0.129 A 
ATOM     22  N   UNL     1      12.078   4.470  23.209  0.00  0.00    -0.340 N 
ATOM     23  H   UNL     1      12.106   3.729  22.523  0.00  0.00    +0.167 HD
ATOM     24  C   UNL     1      11.052   4.704  24.097  0.00  0.00    +0.067 A 
ATOM     25  C   UNL     1       9.850   4.018  24.382  0.00  0.00    +0.036 A 
BRANCH  21  26
ATOM     26  C   UNL     1      14.112   5.753  22.333  0.00  0.00    +0.145 C 
ATOM     27  C   UNL     1      13.412   6.071  20.964  0.00  0.00    +0.019 C 
ATOM     28  C   UNL     1      13.136   4.653  20.444  0.00  0.00    +0.028 C 
ATOM     29  C   UNL     1      14.599   4.261  20.542  0.00  0.00    +0.077 C 
ATOM     30  C   UNL     1      15.271   5.321  19.645  0.00  0.00    +0.023 C 
ATOM     31  C   UNL     1      14.436   6.578  19.938  0.00  0.00    +0.007 C 
ATOM     32  N   UNL     1      14.923   4.568  21.942  0.00  0.00    -0.286 N 
ATOM     33  C   UNL     1      16.128   4.074  22.407  0.00  0.00    +0.241 C 
ATOM     34  O   UNL     1      16.753   3.253  21.728  0.00  0.00    -0.273 OA
BRANCH  33  35
ATOM     35  C   UNL     1      16.651   4.477  23.802  0.00  0.00    +0.200 C 
BRANCH  35  36
ATOM     36  C   UNL     1      16.918   6.025  23.934  0.00  0.00    +0.017 C 
ATOM     37  C   UNL     1      16.089   6.820  22.902  0.00  0.00    +0.010 C 
ATOM     38  C   UNL     1      18.369   6.521  23.834  0.00  0.00    +0.010 C 
ENDBRANCH  35  36
BRANCH  35  39
ATOM     39  N   UNL     1      17.865   3.634  24.024  0.00  0.00    -0.204 NA
ATOM     40  C   UNL     1      18.997   3.974  23.534  0.00  0.00    +0.384 C 
BRANCH  40  41
ATOM     41  O   UNL     1      20.198   3.402  23.770  0.00  0.00    -0.453 OA
ATOM     42  C   UNL     1      20.460   2.442  24.803  0.00  0.00    +0.282 C 
ENDBRANCH  40  41
BRANCH  40  43
ATOM     43  O   UNL     1      19.206   4.992  22.691  0.00  0.00    -0.466 OA
ATOM     44  H   UNL     1      18.513   5.657  22.736  0.00  0.00    +0.297 HD
ENDBRANCH  40  43
ENDBRANCH  35  39
ENDBRANCH  33  35
ENDBRANCH  21  26
ENDBRANCH   8  16
BRANCH   1  48
ATOM     45  C   UNL     1       1.368  -4.146  27.562  0.00  0.00    +0.128 A 
ATOM     46  N   UNL     1       2.071  -3.145  26.946  0.00  0.00    -0.340 N 
ATOM     47  H   UNL     1       2.544  -3.238  26.058  0.00  0.00    +0.167 HD
ATOM     48  C   UNL     1       2.171  -2.082  27.814  0.00  0.00    +0.066 A 
ATOM     49  C   UNL     1       1.423  -2.474  28.904  0.00  0.00    +0.139 A 
ATOM     50  N   UNL     1       0.894  -3.722  28.720  0.00  0.00    -0.238 NA
BRANCH  45  53
ATOM     51  C   UNL     1       3.442  -6.575  26.071  0.00  0.00    +0.241 C 
ATOM     52  N   UNL     1       2.596  -6.232  27.107  0.00  0.00    -0.289 N 
ATOM     53  C   UNL     1       1.285  -5.557  27.034  0.00  0.00    +0.143 C 
ATOM     54  C   UNL     1       0.446  -6.399  28.012  0.00  0.00    +0.039 C 
ATOM     55  C   UNL     1       1.455  -6.735  29.088  0.00  0.00    -0.011 C 
ATOM     56  C   UNL     1       1.300  -6.146  30.476  0.00  0.00    +0.009 C 
ATOM     57  C   UNL     1       1.073  -7.614  30.254  0.00  0.00    +0.009 C 
ATOM     58  C   UNL     1       2.823  -6.776  28.448  0.00  0.00    +0.115 C 
ATOM     59  O   UNL     1       4.487  -7.203  26.274  0.00  0.00    -0.273 OA
BRANCH  51  60
ATOM     60  C   UNL     1       3.154  -6.041  24.651  0.00  0.00    +0.200 C 
BRANCH  60  61
ATOM     61  C   UNL     1       2.150  -6.891  23.815  0.00  0.00    +0.017 C 
ATOM     62  C   UNL     1       0.776  -6.209  23.711  0.00  0.00    +0.010 C 
ATOM     63  C   UNL     1       1.956  -8.288  24.419  0.00  0.00    +0.010 C 
ENDBRANCH  60  61
BRANCH  60  64
ATOM     64  N   UNL     1       4.433  -5.913  23.937  0.00  0.00    -0.204 NA
ATOM     65  C   UNL     1       4.833  -4.816  23.419  0.00  0.00    +0.384 C 
BRANCH  65  66
ATOM     66  O   UNL     1       6.059  -4.665  22.873  0.00  0.00    -0.453 OA
ATOM     67  C   UNL     1       6.989  -3.884  23.629  0.00  0.00    +0.282 C 
ENDBRANCH  65  66
BRANCH  65  68
ATOM     68  O   UNL     1       4.148  -3.671  23.295  0.00  0.00    -0.466 OA
ATOM     69  H   UNL     1       3.188  -3.795  23.206  0.00  0.00    +0.297 HD
ENDBRANCH  65  68
ENDBRANCH  60  64
ENDBRANCH  51  60
ENDBRANCH  45  53
ENDBRANCH   1  48
TORSDOF 14
ENDMDL
MODEL 2
REMARK VINA RESULT:      56.3      1.820      2.859
REMARK  Name = 
REMARK  20 active torsions:
REMARK  status: ('A' for Active; 'I' for Inactive)
REMARK    1  A    between atoms: C_2  and  N_3
REMARK    2  A    between atoms: C_2  and  C_8
REMARK    3  A    between atoms: C_2  and  C_11
REMARK    4  A    between atoms: C_4  and  O_5
REMARK    5  A    between atoms: C_4  and  O_6
REMARK    6  A    between atoms: O_6  and  C_7
REMARK    7  A    between atoms: C_8  and  C_9
REMARK    8  A    between atoms: C_8  and  C_10
REMARK    9  A    between atoms: C_19  and  C_21
REMARK   10  A    between atoms: C_24  and  C_26
REMARK   11  A    between atoms: C_35  and  C_38
REMARK   12  A    between atoms: C_45  and  C_47
REMARK   13  A    between atoms: C_50  and  C_52
REMARK   14  A    between atoms: C_52  and  N_54
REMARK   15  A    between atoms: C_52  and  C_59
REMARK   16  A    between atoms: C_55  and  O_56
REMARK   17  A    between atoms: C_55  and  O_57
REMARK   18  A    between atoms: O_57  and  C_58
REMARK   19  A    between atoms: C_59  and  C_60
REMARK   20  A    between atoms: C_59  and  C_61
REMARK                            x       y       z     vdW  Elec       q    Type
REMARK                         _______ _______ _______ _____ _____    ______ ____
ROOT
ATOM      1  C   UNL     1       3.330  -1.618  28.071  0.00  0.00    +0.000 A 
ATOM      2  C   UNL     1       2.961  -0.420  28.718  0.00  0.00    +0.010 A 
ATOM      3  C   UNL     1       3.579   0.797  28.403  0.00  0.00    +0.009 A 
ATOM      4  C   UNL     1       4.566   0.802  27.433  0.00  0.00    -0.008 A 
ATOM      5  C   UNL     1       5.422   1.863  26.953  0.00  0.00    -0.008 A 
ATOM      6  C   UNL     1       5.484   3.192  27.308  0.00  0.00    +0.009 A 
ATOM      7  C   UNL     1       6.464   3.991  26.706  0.00  0.00    +0.009 A 
ATOM      8  C   UNL     1       7.404   3.487  25.765  0.00  0.00    -0.017 A 
ATOM      9  C   UNL     1       7.307   2.127  25.414  0.00  0.00    +0.019 A 
ATOM     10  C   UNL     1       6.317   1.341  25.998  0.00  0.00    +0.033 A 
ATOM     11  C   UNL     1       6.032  -0.134  25.770  0.00  0.00    +0.300 C 
ATOM     12  F   UNL     1       5.638  -0.400  24.492  0.00  0.00    -0.195 F 
ATOM     13  F   UNL     1       7.122  -0.918  25.997  0.00  0.00    -0.195 F 
ATOM     14  C   UNL     1       4.921  -0.387  26.772  0.00  0.00    +0.034 A 
ATOM     15  C   UNL     1       4.314  -1.592  27.078  0.00  0.00    +0.020 A 
ENDROOT
BRANCH   8  16
ATOM     16  C   UNL     1       8.413   4.399  25.163  0.00  0.00    -0.016 A 
ATOM     17  C   UNL     1       8.385   5.787  25.398  0.00  0.00    +0.011 A 
ATOM     18  C   UNL     1       9.410   6.645  24.954  0.00  0.00    +0.030 A 
ATOM     19  C   UNL     1      10.505   6.101  24.274  0.00  0.00    +0.089 A 
ATOM     20  N   UNL     1      11.645   6.688  23.786  0.00  0.00    -0.231 NA
ATOM     21  C   UNL     1      12.302   5.749  23.122  0.00  0.00    +0.129 A 
ATOM     22  N   UNL     1      11.655   4.547  23.253  0.00  0.00    -0.340 N 
ATOM     23  H   UNL     1      11.932   3.686  22.804  0.00  0.00    +0.167 HD
ATOM     24  C   UNL     1      10.502   4.741  23.979  0.00  0.00    +0.067 A 
ATOM     25  C   UNL     1       9.456   3.875  24.373  0.00  0.00    +0.036 A 
BRANCH  21  26
ATOM     26  C   UNL     1      13.446   6.023  22.172  0.00  0.00    +0.145 C 
ATOM     27  C   UNL     1      12.785   6.562  20.853  0.00  0.00    +0.019 C 
ATOM     28  C   UNL     1      12.380   5.246  20.174  0.00  0.00    +0.028 C 
ATOM     29  C   UNL     1      13.799   4.711  20.217  0.00  0.00    +0.077 C 
ATOM     30  C   UNL     1      14.571   5.801  19.445  0.00  0.00    +0.023 C 
ATOM     31  C   UNL     1      13.856   7.087  19.887  0.00  0.00    +0.007 C 
ATOM     32  N   UNL     1      14.144   4.822  21.641  0.00  0.00    -0.286 N 
ATOM     33  C   UNL     1      15.296   4.167  22.038  0.00  0.00    +0.241 C 
ATOM     34  O   UNL     1      15.845   3.376  21.265  0.00  0.00    -0.273 OA
BRANCH  33  35
ATOM     35  C   UNL     1      15.848   4.355  23.467  0.00  0.00    +0.200 C 
BRANCH  35  36
ATOM     36  C   UNL     1      17.155   3.515  23.736  0.00  0.00    +0.017 C 
ATOM     37  C   UNL     1      18.315   4.427  24.192  0.00  0.00    +0.010 C 
ATOM     38  C   UNL     1      17.690   2.627  22.602  0.00  0.00    +0.010 C 
ENDBRANCH  35  36
BRANCH  35  39
ATOM     39  N   UNL     1      14.711   4.012  24.375  0.00  0.00    -0.204 NA
ATOM     40  C   UNL     1      13.823   3.161  24.019  0.00  0.00    +0.384 C 
BRANCH  40  41
ATOM     41  O   UNL     1      12.833   2.643  24.777  0.00  0.00    -0.453 OA
ATOM     42  C   UNL     1      11.971   1.569  24.376  0.00  0.00    +0.282 C 
ENDBRANCH  40  41
BRANCH  40  43
ATOM     43  O   UNL     1      13.721   2.605  22.807  0.00  0.00    -0.466 OA
ATOM     44  H   UNL     1      14.180   3.108  22.128  0.00  0.00    +0.297 HD
ENDBRANCH  40  43
ENDBRANCH  35  39
ENDBRANCH  33  35
ENDBRANCH  21  26
ENDBRANCH   8  16
BRANCH   1  48
ATOM     45  C   UNL     1       2.405  -5.084  28.583  0.00  0.00    +0.128 A 
ATOM     46  N   UNL     1       3.056  -4.093  27.896  0.00  0.00    -0.340 N 
ATOM     47  H   UNL     1       3.762  -4.253  27.192  0.00  0.00    +0.167 HD
ATOM     48  C   UNL     1       2.720  -2.882  28.454  0.00  0.00    +0.066 A 
ATOM     49  C   UNL     1       1.787  -3.207  29.416  0.00  0.00    +0.139 A 
ATOM     50  N   UNL     1       1.565  -4.556  29.455  0.00  0.00    -0.238 NA
BRANCH  45  53
ATOM     51  C   UNL     1       2.978  -7.468  26.051  0.00  0.00    +0.241 C 
ATOM     52  N   UNL     1       3.443  -6.820  27.177  0.00  0.00    -0.289 N 
ATOM     53  C   UNL     1       2.728  -6.551  28.441  0.00  0.00    +0.143 C 
ATOM     54  C   UNL     1       3.792  -6.924  29.487  0.00  0.00    +0.039 C 
ATOM     55  C   UNL     1       5.069  -6.458  28.822  0.00  0.00    -0.011 C 
ATOM     56  C   UNL     1       5.837  -5.288  29.405  0.00  0.00    +0.009 C 
ATOM     57  C   UNL     1       6.406  -6.676  29.486  0.00  0.00    +0.009 C 
ATOM     58  C   UNL     1       4.875  -6.548  27.327  0.00  0.00    +0.115 C 
ATOM     59  O   UNL     1       3.715  -7.684  25.082  0.00  0.00    -0.273 OA
BRANCH  51  60
ATOM     60  C   UNL     1       1.474  -7.801  25.936  0.00  0.00    +0.200 C 
BRANCH  60  61
ATOM     61  C   UNL     1       1.068  -9.214  26.454  0.00  0.00    +0.017 C 
ATOM     62  C   UNL     1       1.429  -9.403  27.936  0.00  0.00    +0.010 C 
ATOM     63  C   UNL     1       1.744 -10.327  25.643  0.00  0.00    +0.010 C 
ENDBRANCH  60  61
BRANCH  60  64
ATOM     64  N   UNL     1       1.070  -7.635  24.532  0.00  0.00    -0.204 NA
ATOM     65  C   UNL     1       1.510  -6.695  23.788  0.00  0.00    +0.384 C 
BRANCH  65  66
ATOM     66  O   UNL     1       1.237  -6.614  22.468  0.00  0.00    -0.453 OA
ATOM     67  C   UNL     1       0.445  -5.493  22.061  0.00  0.00    +0.282 C 
ENDBRANCH  65  66
BRANCH  65  68
ATOM     68  O   UNL     1       2.262  -5.648  24.152  0.00  0.00    -0.466 OA
ATOM     69  H   UNL     1       2.660  -5.171  23.404  0.00  0.00    +0.297 HD
ENDBRANCH  65  68
ENDBRANCH  60  64
ENDBRANCH  51  60
ENDBRANCH  45  53
ENDBRANCH   1  48
TORSDOF 14
ENDMDL
