MODEL 1
REMARK VINA RESULT:      -6.7      0.000      0.000
REMARK  Name = 
REMARK  4 active torsions:
REMARK  status: ('A' for Active; 'I' for Inactive)
REMARK    1  A    between atoms: O_1  and  C_2
REMARK    2  A    between atoms: C_2  and  C_4
REMARK    3  A    between atoms: C_6  and  C_11
REMARK    4  A    between atoms: C_9  and  O_10
REMARK                            x       y       z     vdW  Elec       q    Type
REMARK                         _______ _______ _______ _____ _____    ______ ____
ROOT
ATOM      1  C   UNL     1       8.467  -4.258  24.187  0.00  0.00    +0.101 A 
ATOM      2  C   UNL     1       7.466  -4.548  23.257  0.00  0.00    +0.131 A 
ATOM      3  C   UNL     1       7.101  -3.600  22.310  0.00  0.00    +0.047 A 
ATOM      4  C   UNL     1       7.715  -2.341  22.317  0.00  0.00    +0.012 A 
ATOM      5  C   UNL     1       8.658  -1.971  23.293  0.00  0.00    -0.015 A 
ATOM      6  C   UNL     1       9.044  -2.978  24.203  0.00  0.00    +0.027 A 
ENDROOT
BRANCH   5   7
ATOM      7  C   UNL     1       9.235  -0.600  23.359  0.00  0.00    +0.001 A 
ATOM      8  C   UNL     1       9.653   0.036  22.166  0.00  0.00    +0.011 A 
ATOM      9  C   UNL     1      10.182   1.333  22.156  0.00  0.00    +0.020 A 
ATOM     10  C   UNL     1      10.287   2.043  23.345  0.00  0.00    +0.042 A 
ATOM     11 CL   UNL     1      10.898   3.650  23.334  0.00  0.00    -0.083 Cl
ATOM     12  C   UNL     1       9.909   1.454  24.541  0.00  0.00    +0.040 A 
ATOM     13  C   UNL     1       9.421   0.142  24.555  0.00  0.00    +0.050 A 
ATOM     14 CL   UNL     1       9.133  -0.520  26.135  0.00  0.00    -0.083 Cl
ENDBRANCH   5   7
BRANCH   1  15
ATOM     15  C   UNL     1       8.973  -5.251  25.171  0.00  0.00    +0.340 C 
ATOM     16  O   UNL     1       8.242  -5.796  25.987  0.00  0.00    -0.245 OA
BRANCH  15  17
ATOM     17  O   UNL     1      10.285  -5.537  25.053  0.00  0.00    -0.477 OA
ATOM     18  H   UNL     1      10.853  -4.774  25.299  0.00  0.00    +0.295 HD
ENDBRANCH  15  17
ENDBRANCH   1  15
BRANCH   2  19
ATOM     19  O   UNL     1       6.834  -5.764  23.283  0.00  0.00    -0.506 OA
ATOM     20  H   UNL     1       5.908  -5.639  22.994  0.00  0.00    +0.292 HD
ENDBRANCH   2  19
TORSDOF 4
ENDMDL
MODEL 2
REMARK VINA RESULT:      -6.5      5.450      7.892
REMARK  Name = 
REMARK  4 active torsions:
REMARK  status: ('A' for Active; 'I' for Inactive)
REMARK    1  A    between atoms: O_1  and  C_2
REMARK    2  A    between atoms: C_2  and  C_4
REMARK    3  A    between atoms: C_6  and  C_11
REMARK    4  A    between atoms: C_9  and  O_10
REMARK                            x       y       z     vdW  Elec       q    Type
REMARK                         _______ _______ _______ _____ _____    ______ ____
ROOT
ATOM      1  C   UNL     1      11.126   4.754  23.617  0.00  0.00    +0.101 A 
ATOM      2  C   UNL     1      10.104   5.553  24.132  0.00  0.00    +0.131 A 
ATOM      3  C   UNL     1       8.944   4.968  24.623  0.00  0.00    +0.047 A 
ATOM      4  C   UNL     1       8.791   3.577  24.565  0.00  0.00    +0.012 A 
ATOM      5  C   UNL     1       9.752   2.741  23.968  0.00  0.00    -0.015 A 
ATOM      6  C   UNL     1      10.940   3.365  23.532  0.00  0.00    +0.027 A 
ENDROOT
BRANCH   5   7
ATOM      7  C   UNL     1       9.542   1.274  23.818  0.00  0.00    +0.001 A 
ATOM      8  C   UNL     1       9.943   0.405  24.859  0.00  0.00    +0.011 A 
ATOM      9  C   UNL     1       9.753  -0.981  24.790  0.00  0.00    +0.020 A 
ATOM     10  C   UNL     1       9.131  -1.537  23.680  0.00  0.00    +0.042 A 
ATOM     11 CL   UNL     1       8.859  -3.233  23.607  0.00  0.00    -0.083 Cl
ATOM     12  C   UNL     1       8.741  -0.727  22.625  0.00  0.00    +0.040 A 
ATOM     13  C   UNL     1       8.970   0.653  22.677  0.00  0.00    +0.050 A 
ATOM     14 CL   UNL     1       8.571   1.521  21.225  0.00  0.00    -0.083 Cl
ENDBRANCH   5   7
BRANCH   1  15
ATOM     15  C   UNL     1      12.430   5.300  23.156  0.00  0.00    +0.340 C 
ATOM     16  O   UNL     1      12.804   5.212  21.994  0.00  0.00    -0.245 OA
BRANCH  15  17
ATOM     17  O   UNL     1      13.135   5.943  24.108  0.00  0.00    -0.477 OA
ATOM     18  H   UNL     1      13.111   5.469  24.969  0.00  0.00    +0.295 HD
ENDBRANCH  15  17
ENDBRANCH   1  15
BRANCH   2  19
ATOM     19  O   UNL     1      10.237   6.918  24.143  0.00  0.00    -0.506 OA
ATOM     20  H   UNL     1       9.600   7.287  24.786  0.00  0.00    +0.292 HD
ENDBRANCH   2  19
TORSDOF 4
ENDMDL
MODEL 3
REMARK VINA RESULT:      -6.4      4.262      6.688
REMARK  Name = 
REMARK  4 active torsions:
REMARK  status: ('A' for Active; 'I' for Inactive)
REMARK    1  A    between atoms: O_1  and  C_2
REMARK    2  A    between atoms: C_2  and  C_4
REMARK    3  A    between atoms: C_6  and  C_11
REMARK    4  A    between atoms: C_9  and  O_10
REMARK                            x       y       z     vdW  Elec       q    Type
REMARK                         _______ _______ _______ _____ _____    ______ ____
ROOT
ATOM      1  C   UNL     1       7.851   1.028  22.275  0.00  0.00    +0.101 A 
ATOM      2  C   UNL     1       9.154   0.973  21.777  0.00  0.00    +0.131 A 
ATOM      3  C   UNL     1       9.771  -0.256  21.578  0.00  0.00    +0.047 A 
ATOM      4  C   UNL     1       9.094  -1.435  21.914  0.00  0.00    +0.012 A 
ATOM      5  C   UNL     1       7.818  -1.424  22.508  0.00  0.00    -0.015 A 
ATOM      6  C   UNL     1       7.202  -0.162  22.642  0.00  0.00    +0.027 A 
ENDROOT
BRANCH   5   7
ATOM      7  C   UNL     1       7.143  -2.673  22.956  0.00  0.00    +0.001 A 
ATOM      8  C   UNL     1       5.818  -2.935  22.536  0.00  0.00    +0.011 A 
ATOM      9  C   UNL     1       5.134  -4.102  22.903  0.00  0.00    +0.020 A 
ATOM     10  C   UNL     1       5.771  -5.055  23.687  0.00  0.00    +0.042 A 
ATOM     11 CL   UNL     1       4.951  -6.507  24.108  0.00  0.00    -0.083 Cl
ATOM     12  C   UNL     1       7.061  -4.832  24.140  0.00  0.00    +0.040 A 
ATOM     13  C   UNL     1       7.727  -3.647  23.808  0.00  0.00    +0.050 A 
ATOM     14 CL   UNL     1       9.275  -3.434  24.569  0.00  0.00    -0.083 Cl
ENDBRANCH   5   7
BRANCH   1  15
ATOM     15  C   UNL     1       7.094   2.298  22.430  0.00  0.00    +0.340 C 
ATOM     16  O   UNL     1       7.635   3.394  22.374  0.00  0.00    -0.245 OA
BRANCH  15  17
ATOM     17  O   UNL     1       5.764   2.141  22.584  0.00  0.00    -0.477 OA
ATOM     18  H   UNL     1       5.516   1.988  23.523  0.00  0.00    +0.295 HD
ENDBRANCH  15  17
ENDBRANCH   1  15
BRANCH   2  19
ATOM     19  O   UNL     1       9.832   2.130  21.494  0.00  0.00    -0.506 OA
ATOM     20  H   UNL     1      10.678   1.897  21.062  0.00  0.00    +0.292 HD
ENDBRANCH   2  19
TORSDOF 4
ENDMDL
MODEL 4
REMARK VINA RESULT:      -6.3      3.090      4.297
REMARK  Name = 
REMARK  4 active torsions:
REMARK  status: ('A' for Active; 'I' for Inactive)
REMARK    1  A    between atoms: O_1  and  C_2
REMARK    2  A    between atoms: C_2  and  C_4
REMARK    3  A    between atoms: C_6  and  C_11
REMARK    4  A    between atoms: C_9  and  O_10
REMARK                            x       y       z     vdW  Elec       q    Type
REMARK                         _______ _______ _______ _____ _____    ______ ____
ROOT
ATOM      1  C   UNL     1       5.755  -6.036  26.736  0.00  0.00    +0.101 A 
ATOM      2  C   UNL     1       4.804  -6.665  25.931  0.00  0.00    +0.131 A 
ATOM      3  C   UNL     1       4.813  -6.463  24.556  0.00  0.00    +0.047 A 
ATOM      4  C   UNL     1       5.756  -5.598  23.989  0.00  0.00    +0.012 A 
ATOM      5  C   UNL     1       6.672  -4.869  24.770  0.00  0.00    -0.015 A 
ATOM      6  C   UNL     1       6.670  -5.143  26.154  0.00  0.00    +0.027 A 
ENDROOT
BRANCH   5   7
ATOM      7  C   UNL     1       7.607  -3.875  24.174  0.00  0.00    +0.001 A 
ATOM      8  C   UNL     1       7.113  -2.920  23.255  0.00  0.00    +0.011 A 
ATOM      9  C   UNL     1       7.936  -1.945  22.676  0.00  0.00    +0.020 A 
ATOM     10  C   UNL     1       9.279  -1.883  23.022  0.00  0.00    +0.042 A 
ATOM     11 CL   UNL     1      10.285  -0.663  22.347  0.00  0.00    -0.083 Cl
ATOM     12  C   UNL     1       9.812  -2.810  23.903  0.00  0.00    +0.040 A 
ATOM     13  C   UNL     1       8.999  -3.811  24.447  0.00  0.00    +0.050 A 
ATOM     14 CL   UNL     1       9.831  -4.994  25.411  0.00  0.00    -0.083 Cl
ENDBRANCH   5   7
BRANCH   1  15
ATOM     15  C   UNL     1       5.865  -6.273  28.199  0.00  0.00    +0.340 C 
ATOM     16  O   UNL     1       6.097  -5.372  28.993  0.00  0.00    -0.245 OA
BRANCH  15  17
ATOM     17  O   UNL     1       5.635  -7.547  28.578  0.00  0.00    -0.477 OA
ATOM     18  H   UNL     1       5.588  -7.638  29.556  0.00  0.00    +0.295 HD
ENDBRANCH  15  17
ENDBRANCH   1  15
BRANCH   2  19
ATOM     19  O   UNL     1       3.851  -7.473  26.494  0.00  0.00    -0.506 OA
ATOM     20  H   UNL     1       4.266  -8.326  26.729  0.00  0.00    +0.292 HD
ENDBRANCH   2  19
TORSDOF 4
ENDMDL
MODEL 5
REMARK VINA RESULT:      -6.3      1.366      1.503
REMARK  Name = 
REMARK  4 active torsions:
REMARK  status: ('A' for Active; 'I' for Inactive)
REMARK    1  A    between atoms: O_1  and  C_2
REMARK    2  A    between atoms: C_2  and  C_4
REMARK    3  A    between atoms: C_6  and  C_11
REMARK    4  A    between atoms: C_9  and  O_10
REMARK                            x       y       z     vdW  Elec       q    Type
REMARK                         _______ _______ _______ _____ _____    ______ ____
ROOT
ATOM      1  C   UNL     1       8.769  -3.853  24.455  0.00  0.00    +0.101 A 
ATOM      2  C   UNL     1       7.912  -4.285  23.441  0.00  0.00    +0.131 A 
ATOM      3  C   UNL     1       7.556  -3.418  22.416  0.00  0.00    +0.047 A 
ATOM      4  C   UNL     1       8.029  -2.100  22.426  0.00  0.00    +0.012 A 
ATOM      5  C   UNL     1       8.816  -1.593  23.477  0.00  0.00    -0.015 A 
ATOM      6  C   UNL     1       9.204  -2.518  24.470  0.00  0.00    +0.027 A 
ENDROOT
BRANCH   5   7
ATOM      7  C   UNL     1       9.235  -0.166  23.536  0.00  0.00    +0.001 A 
ATOM      8  C   UNL     1      10.537   0.159  23.982  0.00  0.00    +0.011 A 
ATOM      9  C   UNL     1      11.001   1.479  24.039  0.00  0.00    +0.020 A 
ATOM     10  C   UNL     1      10.176   2.518  23.626  0.00  0.00    +0.042 A 
ATOM     11 CL   UNL     1      10.752   4.137  23.656  0.00  0.00    -0.083 Cl
ATOM     12  C   UNL     1       8.884   2.250  23.201  0.00  0.00    +0.040 A 
ATOM     13  C   UNL     1       8.408   0.934  23.186  0.00  0.00    +0.050 A 
ATOM     14 CL   UNL     1       6.727   0.764  22.779  0.00  0.00    -0.083 Cl
ENDBRANCH   5   7
BRANCH   1  15
ATOM     15  C   UNL     1       9.266  -4.747  25.534  0.00  0.00    +0.340 C 
ATOM     16  O   UNL     1       9.102  -4.497  26.720  0.00  0.00    -0.245 OA
BRANCH  15  17
ATOM     17  O   UNL     1       9.860  -5.876  25.096  0.00  0.00    -0.477 OA
ATOM     18  H   UNL     1      10.011  -6.520  25.824  0.00  0.00    +0.295 HD
ENDBRANCH  15  17
ENDBRANCH   1  15
BRANCH   2  19
ATOM     19  O   UNL     1       7.412  -5.561  23.460  0.00  0.00    -0.506 OA
ATOM     20  H   UNL     1       7.661  -6.005  22.625  0.00  0.00    +0.292 HD
ENDBRANCH   2  19
TORSDOF 4
ENDMDL
MODEL 6
REMARK VINA RESULT:      -6.2      3.162      4.693
REMARK  Name = 
REMARK  4 active torsions:
REMARK  status: ('A' for Active; 'I' for Inactive)
REMARK    1  A    between atoms: O_1  and  C_2
REMARK    2  A    between atoms: C_2  and  C_4
REMARK    3  A    between atoms: C_6  and  C_11
REMARK    4  A    between atoms: C_9  and  O_10
REMARK                            x       y       z     vdW  Elec       q    Type
REMARK                         _______ _______ _______ _____ _____    ______ ____
ROOT
ATOM      1  C   UNL     1       5.217  -6.343  25.864  0.00  0.00    +0.101 A 
ATOM      2  C   UNL     1       5.513  -6.456  27.224  0.00  0.00    +0.131 A 
ATOM      3  C   UNL     1       6.447  -5.609  27.806  0.00  0.00    +0.047 A 
ATOM      4  C   UNL     1       7.118  -4.669  27.015  0.00  0.00    +0.012 A 
ATOM      5  C   UNL     1       6.924  -4.583  25.624  0.00  0.00    -0.015 A 
ATOM      6  C   UNL     1       5.927  -5.419  25.079  0.00  0.00    +0.027 A 
ENDROOT
BRANCH   5   7
ATOM      7  C   UNL     1       7.710  -3.650  24.770  0.00  0.00    +0.001 A 
ATOM      8  C   UNL     1       7.036  -2.654  24.025  0.00  0.00    +0.011 A 
ATOM      9  C   UNL     1       7.719  -1.732  23.221  0.00  0.00    +0.020 A 
ATOM     10  C   UNL     1       9.106  -1.766  23.159  0.00  0.00    +0.042 A 
ATOM     11 CL   UNL     1       9.951  -0.612  22.206  0.00  0.00    -0.083 Cl
ATOM     12  C   UNL     1       9.808  -2.737  23.856  0.00  0.00    +0.040 A 
ATOM     13  C   UNL     1       9.122  -3.685  24.624  0.00  0.00    +0.050 A 
ATOM     14 CL   UNL     1      10.116  -4.931  25.316  0.00  0.00    -0.083 Cl
ENDBRANCH   5   7
BRANCH   1  15
ATOM     15  C   UNL     1       4.167  -7.151  25.191  0.00  0.00    +0.340 C 
ATOM     16  O   UNL     1       3.095  -7.405  25.722  0.00  0.00    -0.245 OA
BRANCH  15  17
ATOM     17  O   UNL     1       4.473  -7.531  23.934  0.00  0.00    -0.477 OA
ATOM     18  H   UNL     1       5.224  -8.165  23.913  0.00  0.00    +0.295 HD
ENDBRANCH  15  17
ENDBRANCH   1  15
BRANCH   2  19
ATOM     19  O   UNL     1       4.890  -7.410  27.986  0.00  0.00    -0.506 OA
ATOM     20  H   UNL     1       4.168  -7.807  27.459  0.00  0.00    +0.292 HD
ENDBRANCH   2  19
TORSDOF 4
ENDMDL
MODEL 7
REMARK VINA RESULT:      -6.1      1.220      2.678
REMARK  Name = 
REMARK  4 active torsions:
REMARK  status: ('A' for Active; 'I' for Inactive)
REMARK    1  A    between atoms: O_1  and  C_2
REMARK    2  A    between atoms: C_2  and  C_4
REMARK    3  A    between atoms: C_6  and  C_11
REMARK    4  A    between atoms: C_9  and  O_10
REMARK                            x       y       z     vdW  Elec       q    Type
REMARK                         _______ _______ _______ _____ _____    ______ ____
ROOT
ATOM      1  C   UNL     1       6.900  -3.454  22.687  0.00  0.00    +0.101 A 
ATOM      2  C   UNL     1       7.591  -4.478  23.337  0.00  0.00    +0.131 A 
ATOM      3  C   UNL     1       8.702  -4.181  24.116  0.00  0.00    +0.047 A 
ATOM      4  C   UNL     1       9.146  -2.857  24.215  0.00  0.00    +0.012 A 
ATOM      5  C   UNL     1       8.540  -1.807  23.501  0.00  0.00    -0.015 A 
ATOM      6  C   UNL     1       7.381  -2.137  22.767  0.00  0.00    +0.027 A 
ENDROOT
BRANCH   5   7
ATOM      7  C   UNL     1       9.074  -0.417  23.530  0.00  0.00    +0.001 A 
ATOM      8  C   UNL     1       9.692   0.113  22.373  0.00  0.00    +0.011 A 
ATOM      9  C   UNL     1      10.194   1.420  22.327  0.00  0.00    +0.020 A 
ATOM     10  C   UNL     1      10.070   2.246  23.437  0.00  0.00    +0.042 A 
ATOM     11 CL   UNL     1      10.649   3.863  23.374  0.00  0.00    -0.083 Cl
ATOM     12  C   UNL     1       9.490   1.763  24.600  0.00  0.00    +0.040 A 
ATOM     13  C   UNL     1       9.028   0.443  24.658  0.00  0.00    +0.050 A 
ATOM     14 CL   UNL     1       8.467  -0.072  26.220  0.00  0.00    -0.083 Cl
ENDBRANCH   5   7
BRANCH   1  15
ATOM     15  C   UNL     1       5.652  -3.682  21.911  0.00  0.00    +0.340 C 
ATOM     16  O   UNL     1       5.611  -3.579  20.692  0.00  0.00    -0.245 OA
BRANCH  15  17
ATOM     17  O   UNL     1       4.593  -4.062  22.653  0.00  0.00    -0.477 OA
ATOM     18  H   UNL     1       3.831  -3.449  22.550  0.00  0.00    +0.295 HD
ENDBRANCH  15  17
ENDBRANCH   1  15
BRANCH   2  19
ATOM     19  O   UNL     1       7.183  -5.780  23.199  0.00  0.00    -0.506 OA
ATOM     20  H   UNL     1       6.621  -6.012  23.965  0.00  0.00    +0.292 HD
ENDBRANCH   2  19
TORSDOF 4
ENDMDL
MODEL 8
REMARK VINA RESULT:      -6.0      2.450      3.446
REMARK  Name = 
REMARK  4 active torsions:
REMARK  status: ('A' for Active; 'I' for Inactive)
REMARK    1  A    between atoms: O_1  and  C_2
REMARK    2  A    between atoms: C_2  and  C_4
REMARK    3  A    between atoms: C_6  and  C_11
REMARK    4  A    between atoms: C_9  and  O_10
REMARK                            x       y       z     vdW  Elec       q    Type
REMARK                         _______ _______ _______ _____ _____    ______ ____
ROOT
ATOM      1  C   UNL     1       7.510  -3.759  22.844  0.00  0.00    +0.101 A 
ATOM      2  C   UNL     1       8.373  -4.104  23.885  0.00  0.00    +0.131 A 
ATOM      3  C   UNL     1       8.867  -3.122  24.734  0.00  0.00    +0.047 A 
ATOM      4  C   UNL     1       8.526  -1.782  24.516  0.00  0.00    +0.012 A 
ATOM      5  C   UNL     1       7.739  -1.376  23.423  0.00  0.00    -0.015 A 
ATOM      6  C   UNL     1       7.209  -2.405  22.617  0.00  0.00    +0.027 A 
ENDROOT
BRANCH   5   7
ATOM      7  C   UNL     1       7.460   0.059  23.137  0.00  0.00    +0.001 A 
ATOM      8  C   UNL     1       6.390   0.705  23.800  0.00  0.00    +0.011 A 
ATOM      9  C   UNL     1       6.089   2.057  23.592  0.00  0.00    +0.020 A 
ATOM     10  C   UNL     1       6.872   2.812  22.728  0.00  0.00    +0.042 A 
ATOM     11 CL   UNL     1       6.533   4.482  22.500  0.00  0.00    -0.083 Cl
ATOM     12  C   UNL     1       7.918   2.217  22.041  0.00  0.00    +0.040 A 
ATOM     13  C   UNL     1       8.190   0.856  22.216  0.00  0.00    +0.050 A 
ATOM     14 CL   UNL     1       9.427   0.212  21.179  0.00  0.00    -0.083 Cl
ENDBRANCH   5   7
BRANCH   1  15
ATOM     15  C   UNL     1       6.871  -4.761  21.952  0.00  0.00    +0.340 C 
ATOM     16  O   UNL     1       7.343  -5.876  21.775  0.00  0.00    -0.245 OA
BRANCH  15  17
ATOM     17  O   UNL     1       5.708  -4.359  21.400  0.00  0.00    -0.477 OA
ATOM     18  H   UNL     1       5.162  -5.118  21.096  0.00  0.00    +0.295 HD
ENDBRANCH  15  17
ENDBRANCH   1  15
BRANCH   2  19
ATOM     19  O   UNL     1       8.744  -5.411  24.067  0.00  0.00    -0.506 OA
ATOM     20  H   UNL     1       9.588  -5.430  24.559  0.00  0.00    +0.292 HD
ENDBRANCH   2  19
TORSDOF 4
ENDMDL
MODEL 9
REMARK VINA RESULT:      -6.0      2.488      3.680
REMARK  Name = 
REMARK  4 active torsions:
REMARK  status: ('A' for Active; 'I' for Inactive)
REMARK    1  A    between atoms: O_1  and  C_2
REMARK    2  A    between atoms: C_2  and  C_4
REMARK    3  A    between atoms: C_6  and  C_11
REMARK    4  A    between atoms: C_9  and  O_10
REMARK                            x       y       z     vdW  Elec       q    Type
REMARK                         _______ _______ _______ _____ _____    ______ ____
ROOT
ATOM      1  C   UNL     1       5.512  -5.379  24.487  0.00  0.00    +0.101 A 
ATOM      2  C   UNL     1       5.853  -5.744  25.790  0.00  0.00    +0.131 A 
ATOM      3  C   UNL     1       6.735  -4.961  26.524  0.00  0.00    +0.047 A 
ATOM      4  C   UNL     1       7.308  -3.826  25.936  0.00  0.00    +0.012 A 
ATOM      5  C   UNL     1       7.068  -3.474  24.595  0.00  0.00    -0.015 A 
ATOM      6  C   UNL     1       6.125  -4.259  23.901  0.00  0.00    +0.027 A 
ENDROOT
BRANCH   5   7
ATOM      7  C   UNL     1       7.756  -2.325  23.944  0.00  0.00    +0.001 A 
ATOM      8  C   UNL     1       9.031  -2.516  23.362  0.00  0.00    +0.011 A 
ATOM      9  C   UNL     1       9.720  -1.483  22.715  0.00  0.00    +0.020 A 
ATOM     10  C   UNL     1       9.138  -0.226  22.609  0.00  0.00    +0.042 A 
ATOM     11 CL   UNL     1       9.961   1.035  21.781  0.00  0.00    -0.083 Cl
ATOM     12  C   UNL     1       7.899   0.014  23.181  0.00  0.00    +0.040 A 
ATOM     13  C   UNL     1       7.231  -1.008  23.866  0.00  0.00    +0.050 A 
ATOM     14 CL   UNL     1       5.763  -0.524  24.662  0.00  0.00    -0.083 Cl
ENDBRANCH   5   7
BRANCH   1  15
ATOM     15  C   UNL     1       4.508  -6.115  23.674  0.00  0.00    +0.340 C 
ATOM     16  O   UNL     1       3.757  -5.550  22.891  0.00  0.00    -0.245 OA
BRANCH  15  17
ATOM     17  O   UNL     1       4.534  -7.454  23.831  0.00  0.00    -0.477 OA
ATOM     18  H   UNL     1       3.789  -7.775  24.387  0.00  0.00    +0.295 HD
ENDBRANCH  15  17
ENDBRANCH   1  15
BRANCH   2  19
ATOM     19  O   UNL     1       5.328  -6.882  26.346  0.00  0.00    -0.506 OA
ATOM     20  H   UNL     1       4.373  -6.741  26.501  0.00  0.00    +0.292 HD
ENDBRANCH   2  19
TORSDOF 4
ENDMDL
