MODEL 1
REMARK VINA RESULT:       4.8      0.000      0.000
REMARK  Name = 
REMARK  27 active torsions:
REMARK  status: ('A' for Active; 'I' for Inactive)
REMARK    1  A    between atoms: C_1  and  O_2
REMARK    2  A    between atoms: O_2  and  C_3
REMARK    3  A    between atoms: C_3  and  C_5
REMARK    4  A    between atoms: C_3  and  C_49
REMARK    5  A    between atoms: C_5  and  C_6
REMARK    6  A    between atoms: C_12  and  O_14
REMARK    7  A    between atoms: C_21  and  C_23
REMARK    8  A    between atoms: C_41  and  O_43
REMARK    9  A    between atoms: O_43  and  C_44
REMARK   10  A    between atoms: C_45  and  C_47
REMARK   11  A    between atoms: C_49  and  C_51
REMARK   12  A    between atoms: C_49  and  C_52
REMARK   13  A    between atoms: C_52  and  C_53
REMARK   14  A    between atoms: C_53  and  C_54
REMARK   15  A    between atoms: C_54  and  C_56
REMARK   16  A    between atoms: C_56  and  C_58
REMARK   17  A    between atoms: C_56  and  C_59
REMARK   18  A    between atoms: C_59  and  O_61
REMARK   19  A    between atoms: C_59  and  C_65
REMARK   20  A    between atoms: O_61  and  C_62
REMARK   21  A    between atoms: C_62  and  C_63
REMARK   22  A    between atoms: C_65  and  C_67
REMARK   23  A    between atoms: C_65  and  C_68
REMARK   24  A    between atoms: C_69  and  N_70
REMARK   25  A    between atoms: N_70  and  C_71
REMARK   26  A    between atoms: N_70  and  C_72
REMARK   27  A    between atoms: C_72  and  O_73
REMARK                            x       y       z     vdW  Elec       q    Type
REMARK                         _______ _______ _______ _____ _____    ______ ____
ROOT
ATOM      1  C   UNL     1       3.903  -4.480  24.305  0.00  0.00    +0.184 C 
ATOM      2  C   UNL     1       5.293  -3.362  23.124  0.00  0.00    +0.056 C 
ATOM      3  C   UNL     1       4.618  -3.948  21.710  0.00  0.00    +0.014 C 
ATOM      4  C   UNL     1       7.091  -2.365  22.445  0.00  0.00    +0.128 C 
ATOM      5  C   UNL     1       8.453  -0.714  22.115  0.00  0.00    +0.059 C 
ATOM      6  C   UNL     1       9.798   0.658  22.120  0.00  0.00    -0.019 C 
ATOM      7  C   UNL     1      11.053   1.727  21.631  0.00  0.00    +0.063 C 
ATOM      8  C   UNL     1      11.946   3.061  21.997  0.00  0.00    +0.220 A 
ATOM      9  N   UNL     1      12.449   3.582  23.137  0.00  0.00    -0.205 NA
ATOM     10  C   UNL     1      12.897   4.989  23.033  0.00  0.00    +0.164 A 
ATOM     11  C   UNL     1      13.460   5.210  21.815  0.00  0.00    +0.230 A 
ATOM     12  C   UNL     1      12.138   5.881  23.948  0.00  0.00    +0.250 A 
ATOM     13  N   UNL     1      11.030   5.239  24.137  0.00  0.00    -0.203 NA
ATOM     14  C   UNL     1      10.435   5.765  25.173  0.00  0.00    +0.164 A 
ATOM     15  C   UNL     1      11.001   6.973  25.459  0.00  0.00    +0.230 A 
ATOM     16  C   UNL     1       9.372   4.912  25.677  0.00  0.00    +0.249 A 
ATOM     17  N   UNL     1       9.159   3.719  25.123  0.00  0.00    -0.212 NA
ATOM     18  C   UNL     1       8.151   3.197  25.846  0.00  0.00    +0.083 A 
ATOM     19  C   UNL     1       7.771   4.119  26.796  0.00  0.00    +0.221 A 
ATOM     20  C   UNL     1       7.576   1.855  25.556  0.00  0.00    +0.045 C 
ATOM     21  C   UNL     1       8.305   0.763  26.345  0.00  0.00    +0.014 C 
ATOM     22  C   UNL     1       6.123   1.954  25.945  0.00  0.00    +0.083 C 
ATOM     23  C   UNL     1       5.350   0.733  25.673  0.00  0.00    +0.134 C 
ATOM     24  O   UNL     1       5.775  -0.220  25.028  0.00  0.00    -0.297 OA
ATOM     25  C   UNL     1       3.976   0.848  26.246  0.00  0.00    +0.074 C 
ATOM     26  C   UNL     1       3.362  -0.465  26.107  0.00  0.00    +0.010 C 
ATOM     27  C   UNL     1       1.924  -0.428  26.663  0.00  0.00    +0.032 C 
ATOM     28  C   UNL     1       1.630  -1.842  26.418  0.00  0.00    +0.125 C 
ATOM     29  C   UNL     1       0.447  -2.651  26.158  0.00  0.00    +0.151 C 
ATOM     30  C   UNL     1       1.291  -3.902  25.594  0.00  0.00    +0.310 C 
ATOM     31  O   UNL     1       0.929  -4.997  26.016  0.00  0.00    -0.251 OA
ATOM     32  O   UNL     1       8.553   5.214  26.703  0.00  0.00    -0.442 OA
ATOM     33  O   UNL     1      12.122   7.107  24.602  0.00  0.00    -0.442 OA
ATOM     34  O   UNL     1      12.842   4.129  20.996  0.00  0.00    -0.443 OA
ATOM     35  O   UNL     1       2.555  -3.611  24.823  0.00  0.00    -0.461 OA
ENDROOT
BRANCH  28  36
ATOM     36  O   UNL     1       2.469  -2.569  27.332  0.00  0.00    -0.391 OA
ATOM     37  H   UNL     1       2.503  -3.514  27.097  0.00  0.00    +0.210 HD
ENDBRANCH  28  36
BRANCH   4  38
ATOM     38  O   UNL     1       7.855  -3.364  21.272  0.00  0.00    -0.379 OA
ATOM     39  C   UNL     1       7.827  -4.905  21.148  0.00  0.00    +0.194 C 
ENDBRANCH   4  38
BRANCH   1  40
ATOM     40  C   UNL     1       2.929  -6.350  24.753  0.00  0.00    +0.076 C 
BRANCH  40  41
ATOM     41  C   UNL     1       1.844  -7.655  25.796  0.00  0.00    +0.124 C 
BRANCH  41  43
ATOM     42  C   UNL     1       1.511  -9.325  23.841  0.00  0.00    +0.194 C 
ATOM     43  O   UNL     1       2.184  -8.930  25.031  0.00  0.00    -0.379 OA
ENDBRANCH  41  43
BRANCH  41  44
ATOM     44  C   UNL     1       1.358  -8.768  27.486  0.00  0.00    +0.015 C 
ATOM     45  C   UNL     1       0.808 -10.377  27.666  0.00  0.00    +0.010 C 
BRANCH  44  46
ATOM     46  C   UNL     1       0.973  -8.359  29.206  0.00  0.00    +0.013 C 
BRANCH  46  47
ATOM     47  C   UNL     1       1.267  -7.167  30.243  0.00  0.00    +0.075 C 
BRANCH  47  48
ATOM     48  C   UNL     1       1.526  -5.635  29.706  0.00  0.00    +0.140 C 
ATOM     49  O   UNL     1       0.905  -5.156  28.755  0.00  0.00    -0.297 OA
BRANCH  48  50
ATOM     50  C   UNL     1       2.587  -4.727  30.470  0.00  0.00    +0.093 C 
ATOM     51  C   UNL     1       2.248  -3.222  30.440  0.00  0.00    +0.019 C 
BRANCH  50  52
ATOM     52  C   UNL     1       4.067  -4.909  29.969  0.00  0.00    +0.193 C 
BRANCH  52  53
ATOM     53  C   UNL     1       4.645  -3.551  29.479  0.00  0.00    +0.051 C 
ATOM     54  C   UNL     1       3.615  -2.420  29.545  0.00  0.00    +0.015 C 
BRANCH  53  55
ATOM     55  C   UNL     1       5.196  -3.612  28.074  0.00  0.00    -0.005 C 
ATOM     56  C   UNL     1       6.501  -3.716  27.783  0.00  0.00    +0.068 C 
BRANCH  56  57
ATOM     57  N   UNL     1       7.099  -3.758  26.535  0.00  0.00    -0.317 N 
ATOM     58  C   UNL     1       7.657  -2.572  25.884  0.00  0.00    +0.131 C 
BRANCH  57  59
ATOM     59  C   UNL     1       7.455  -5.022  25.904  0.00  0.00    +0.263 C 
BRANCH  59  60
ATOM     60  O   UNL     1       7.170  -6.075  26.797  0.00  0.00    -0.377 OA
ATOM     61  H   UNL     1       8.045  -6.318  27.142  0.00  0.00    +0.211 HD
ENDBRANCH  59  60
ENDBRANCH  57  59
ENDBRANCH  56  57
ENDBRANCH  53  55
ENDBRANCH  52  53
BRANCH  52  62
ATOM     62  O   UNL     1       4.051  -5.873  28.853  0.00  0.00    -0.460 OA
BRANCH  62  63
ATOM     63  C   UNL     1       4.699  -7.070  29.011  0.00  0.00    +0.304 C 
ATOM     64  O   UNL     1       5.335  -7.655  28.144  0.00  0.00    -0.251 OA
ATOM     65  C   UNL     1       4.671  -7.530  30.448  0.00  0.00    +0.136 C 
ENDBRANCH  62  63
ENDBRANCH  52  62
ENDBRANCH  50  52
ENDBRANCH  48  50
ENDBRANCH  47  48
ENDBRANCH  46  47
ENDBRANCH  44  46
ENDBRANCH  41  44
ENDBRANCH  40  41
ENDBRANCH   1  40
TORSDOF 18
ENDMDL
MODEL 2
REMARK VINA RESULT:       6.3      2.816     12.472
REMARK  Name = 
REMARK  27 active torsions:
REMARK  status: ('A' for Active; 'I' for Inactive)
REMARK    1  A    between atoms: C_1  and  O_2
REMARK    2  A    between atoms: O_2  and  C_3
REMARK    3  A    between atoms: C_3  and  C_5
REMARK    4  A    between atoms: C_3  and  C_49
REMARK    5  A    between atoms: C_5  and  C_6
REMARK    6  A    between atoms: C_12  and  O_14
REMARK    7  A    between atoms: C_21  and  C_23
REMARK    8  A    between atoms: C_41  and  O_43
REMARK    9  A    between atoms: O_43  and  C_44
REMARK   10  A    between atoms: C_45  and  C_47
REMARK   11  A    between atoms: C_49  and  C_51
REMARK   12  A    between atoms: C_49  and  C_52
REMARK   13  A    between atoms: C_52  and  C_53
REMARK   14  A    between atoms: C_53  and  C_54
REMARK   15  A    between atoms: C_54  and  C_56
REMARK   16  A    between atoms: C_56  and  C_58
REMARK   17  A    between atoms: C_56  and  C_59
REMARK   18  A    between atoms: C_59  and  O_61
REMARK   19  A    between atoms: C_59  and  C_65
REMARK   20  A    between atoms: O_61  and  C_62
REMARK   21  A    between atoms: C_62  and  C_63
REMARK   22  A    between atoms: C_65  and  C_67
REMARK   23  A    between atoms: C_65  and  C_68
REMARK   24  A    between atoms: C_69  and  N_70
REMARK   25  A    between atoms: N_70  and  C_71
REMARK   26  A    between atoms: N_70  and  C_72
REMARK   27  A    between atoms: C_72  and  O_73
REMARK                            x       y       z     vdW  Elec       q    Type
REMARK                         _______ _______ _______ _____ _____    ______ ____
ROOT
ATOM      1  C   UNL     1       8.999  -0.453  22.728  0.00  0.00    +0.184 C 
ATOM      2  C   UNL     1       8.050  -2.361  22.546  0.00  0.00    +0.056 C 
ATOM      3  C   UNL     1       9.196  -2.866  21.438  0.00  0.00    +0.014 C 
ATOM      4  C   UNL     1       6.551  -3.922  22.460  0.00  0.00    +0.128 C 
ATOM      5  C   UNL     1       5.310  -5.538  23.194  0.00  0.00    +0.059 C 
ATOM      6  C   UNL     1       3.984  -6.727  23.913  0.00  0.00    -0.019 C 
ATOM      7  C   UNL     1       2.925  -8.064  24.132  0.00  0.00    +0.063 C 
ATOM      8  C   UNL     1       1.899  -8.857  25.148  0.00  0.00    +0.220 A 
ATOM      9  N   UNL     1       1.011  -8.471  26.090  0.00  0.00    -0.205 NA
ATOM     10  C   UNL     1       0.562  -9.549  26.999  0.00  0.00    +0.164 A 
ATOM     11  C   UNL     1       0.443 -10.718  26.313  0.00  0.00    +0.230 A 
ATOM     12  C   UNL     1       0.917  -9.265  28.413  0.00  0.00    +0.250 A 
ATOM     13  N   UNL     1       1.920  -8.454  28.311  0.00  0.00    -0.203 NA
ATOM     14  C   UNL     1       2.098  -7.886  29.473  0.00  0.00    +0.164 A 
ATOM     15  C   UNL     1       1.413  -8.580  30.427  0.00  0.00    +0.230 A 
ATOM     16  C   UNL     1       2.961  -6.722  29.380  0.00  0.00    +0.249 A 
ATOM     17  N   UNL     1       3.407  -6.319  28.191  0.00  0.00    -0.212 NA
ATOM     18  C   UNL     1       4.128  -5.216  28.467  0.00  0.00    +0.083 A 
ATOM     19  C   UNL     1       4.114  -5.015  29.830  0.00  0.00    +0.221 A 
ATOM     20  C   UNL     1       4.829  -4.438  27.410  0.00  0.00    +0.045 C 
ATOM     21  C   UNL     1       3.925  -3.338  26.846  0.00  0.00    +0.014 C 
ATOM     22  C   UNL     1       6.054  -3.871  28.081  0.00  0.00    +0.083 C 
ATOM     23  C   UNL     1       6.929  -3.109  27.178  0.00  0.00    +0.134 C 
ATOM     24  O   UNL     1       6.797  -3.078  25.958  0.00  0.00    -0.297 OA
ATOM     25  C   UNL     1       8.015  -2.436  27.949  0.00  0.00    +0.074 C 
ATOM     26  C   UNL     1       8.700  -1.557  27.012  0.00  0.00    +0.010 C 
ATOM     27  C   UNL     1       9.855  -0.830  27.730  0.00  0.00    +0.032 C 
ATOM     28  C   UNL     1      10.281  -0.040  26.572  0.00  0.00    +0.125 C 
ATOM     29  C   UNL     1      11.517   0.564  26.096  0.00  0.00    +0.151 C 
ATOM     30  C   UNL     1      10.979   0.746  24.589  0.00  0.00    +0.310 C 
ATOM     31  O   UNL     1      11.224   1.839  24.085  0.00  0.00    -0.251 OA
ATOM     32  O   UNL     1       3.362  -5.966  30.421  0.00  0.00    -0.442 OA
ATOM     33  O   UNL     1       0.649  -9.561  29.745  0.00  0.00    -0.442 OA
ATOM     34  O   UNL     1       1.354 -10.484  25.157  0.00  0.00    -0.443 OA
ATOM     35  O   UNL     1      10.044  -0.305  24.042  0.00  0.00    -0.461 OA
ENDROOT
BRANCH  28  36
ATOM     36  O   UNL     1       9.213   0.894  26.335  0.00  0.00    -0.391 OA
ATOM     37  H   UNL     1       8.579   0.892  27.075  0.00  0.00    +0.210 HD
ENDBRANCH  28  36
BRANCH   4  38
ATOM     38  O   UNL     1       6.285  -4.329  20.810  0.00  0.00    -0.379 OA
ATOM     39  C   UNL     1       5.712  -5.636  20.217  0.00  0.00    +0.194 C 
ENDBRANCH   4  38
BRANCH   1  40
ATOM     40  C   UNL     1       9.846   1.298  21.797  0.00  0.00    +0.076 C 
BRANCH  40  41
ATOM     41  C   UNL     1      10.709   3.089  21.692  0.00  0.00    +0.124 C 
BRANCH  41  43
ATOM     42  C   UNL     1       8.174   3.623  21.775  0.00  0.00    +0.194 C 
ATOM     43  O   UNL     1       9.490   3.933  21.333  0.00  0.00    -0.379 OA
ENDBRANCH  41  43
BRANCH  41  44
ATOM     44  C   UNL     1      11.669   4.761  22.477  0.00  0.00    +0.015 C 
ATOM     45  C   UNL     1      12.813   5.836  21.799  0.00  0.00    +0.010 C 
BRANCH  44  46
ATOM     46  C   UNL     1      11.941   5.400  24.148  0.00  0.00    +0.013 C 
BRANCH  46  47
ATOM     47  C   UNL     1      11.290   6.496  25.126  0.00  0.00    +0.075 C 
BRANCH  47  48
ATOM     48  C   UNL     1       9.676   6.805  25.082  0.00  0.00    +0.140 C 
ATOM     49  O   UNL     1       9.066   6.976  24.024  0.00  0.00    -0.297 OA
BRANCH  48  50
ATOM     50  C   UNL     1       8.867   6.839  26.453  0.00  0.00    +0.093 C 
ATOM     51  C   UNL     1       9.762   6.698  27.702  0.00  0.00    +0.019 C 
BRANCH  50  52
ATOM     52  C   UNL     1       7.717   5.770  26.548  0.00  0.00    +0.193 C 
BRANCH  52  53
ATOM     53  C   UNL     1       6.384   6.359  26.007  0.00  0.00    +0.051 C 
ATOM     54  C   UNL     1       5.354   6.591  27.116  0.00  0.00    +0.015 C 
BRANCH  53  55
ATOM     55  C   UNL     1       5.746   5.504  24.937  0.00  0.00    -0.005 C 
ATOM     56  C   UNL     1       4.633   4.778  25.120  0.00  0.00    +0.068 C 
BRANCH  56  57
ATOM     57  N   UNL     1       3.990   3.953  24.213  0.00  0.00    -0.317 N 
ATOM     58  C   UNL     1       2.798   4.369  23.472  0.00  0.00    +0.131 C 
BRANCH  57  59
ATOM     59  C   UNL     1       4.605   2.723  23.735  0.00  0.00    +0.263 C 
BRANCH  59  60
ATOM     60  O   UNL     1       5.877   2.588  24.327  0.00  0.00    -0.377 OA
ATOM     61  H   UNL     1       5.712   1.993  25.076  0.00  0.00    +0.211 HD
ENDBRANCH  59  60
ENDBRANCH  57  59
ENDBRANCH  56  57
ENDBRANCH  53  55
ENDBRANCH  52  53
BRANCH  52  62
ATOM     62  O   UNL     1       7.558   5.402  27.967  0.00  0.00    -0.460 OA
BRANCH  62  63
ATOM     63  C   UNL     1       6.866   4.260  28.274  0.00  0.00    +0.304 C 
ATOM     64  O   UNL     1       6.470   3.429  27.469  0.00  0.00    -0.251 OA
ATOM     65  C   UNL     1       6.770   4.056  29.766  0.00  0.00    +0.136 C 
ENDBRANCH  62  63
ENDBRANCH  52  62
ENDBRANCH  50  52
ENDBRANCH  48  50
ENDBRANCH  47  48
ENDBRANCH  46  47
ENDBRANCH  44  46
ENDBRANCH  41  44
ENDBRANCH  40  41
ENDBRANCH   1  40
TORSDOF 18
ENDMDL
