MODEL 1
REMARK VINA RESULT:      -7.7      0.000      0.000
REMARK  Name = 
REMARK  9 active torsions:
REMARK  status: ('A' for Active; 'I' for Inactive)
REMARK    1  A    between atoms: O_1  and  C_2
REMARK    2  A    between atoms: C_2  and  C_3
REMARK    3  A    between atoms: C_2  and  C_24
REMARK    4  A    between atoms: C_2  and  C_28
REMARK    5  A    between atoms: C_6  and  N_9
REMARK    6  A    between atoms: N_9  and  C_10
REMARK    7  A    between atoms: N_9  and  S_15
REMARK    8  A    between atoms: C_10  and  C_11
REMARK    9  A    between atoms: S_15  and  C_18
REMARK                            x       y       z     vdW  Elec       q    Type
REMARK                         _______ _______ _______ _____ _____    ______ ____
ROOT
ATOM      1  C   UNL     1       8.767   0.575  22.707  0.00  0.00    +0.002 A 
ATOM      2  C   UNL     1       9.561  -0.371  22.029  0.00  0.00    +0.009 A 
ATOM      3  C   UNL     1       9.303  -1.750  22.129  0.00  0.00    +0.025 A 
ATOM      4  C   UNL     1       8.238  -2.216  22.897  0.00  0.00    +0.052 A 
ATOM      5  C   UNL     1       7.408  -1.289  23.527  0.00  0.00    +0.025 A 
ATOM      6  C   UNL     1       7.674   0.082  23.447  0.00  0.00    +0.009 A 
ENDROOT
BRANCH   1   7
ATOM      7  C   UNL     1       9.095   2.090  22.652  0.00  0.00    +0.282 C 
BRANCH   7   8
ATOM      8  C   UNL     1       7.812   2.955  22.469  0.00  0.00    +0.431 C 
ATOM      9  F   UNL     1       6.917   2.885  23.475  0.00  0.00    -0.167 F 
ATOM     10  F   UNL     1       7.122   2.627  21.346  0.00  0.00    -0.167 F 
ATOM     11  F   UNL     1       8.116   4.274  22.335  0.00  0.00    -0.167 F 
ENDBRANCH   7   8
BRANCH   7  12
ATOM     12  C   UNL     1       9.891   2.570  23.894  0.00  0.00    +0.431 C 
ATOM     13  F   UNL     1      10.670   1.592  24.420  0.00  0.00    -0.167 F 
ATOM     14  F   UNL     1       9.181   3.075  24.919  0.00  0.00    -0.167 F 
ATOM     15  F   UNL     1      10.764   3.552  23.517  0.00  0.00    -0.167 F 
ENDBRANCH   7  12
BRANCH   7  16
ATOM     16  O   UNL     1       9.946   2.266  21.456  0.00  0.00    -0.369 OA
ATOM     17  H   UNL     1      10.619   2.939  21.674  0.00  0.00    +0.211 HD
ENDBRANCH   7  16
ENDBRANCH   1   7
BRANCH   4  18
ATOM     18  N   UNL     1       7.901  -3.611  23.003  0.00  0.00    -0.194 N 
BRANCH  18  19
ATOM     19  S   UNL     1       8.455  -4.417  24.417  0.00  0.00    +0.075 S 
ATOM     20  O   UNL     1       9.390  -3.566  25.116  0.00  0.00    -0.150 OA
ATOM     21  O   UNL     1       8.822  -5.765  24.039  0.00  0.00    -0.150 OA
BRANCH  19  22
ATOM     22  C   UNL     1       6.984  -4.546  25.422  0.00  0.00    +0.109 A 
ATOM     23  C   UNL     1       6.585  -3.458  26.204  0.00  0.00    +0.029 A 
ATOM     24  C   UNL     1       5.447  -3.565  26.999  0.00  0.00    +0.002 A 
ATOM     25  C   UNL     1       4.722  -4.760  27.032  0.00  0.00    +0.000 A 
ATOM     26  C   UNL     1       5.141  -5.854  26.272  0.00  0.00    +0.002 A 
ATOM     27  C   UNL     1       6.282  -5.756  25.477  0.00  0.00    +0.029 A 
ENDBRANCH  19  22
ENDBRANCH  18  19
BRANCH  18  28
ATOM     28  C   UNL     1       6.566  -4.080  22.498  0.00  0.00    +0.244 C 
BRANCH  28  29
ATOM     29  C   UNL     1       6.568  -5.301  21.577  0.00  0.00    +0.407 C 
ATOM     30  F   UNL     1       5.934  -5.009  20.414  0.00  0.00    -0.169 F 
ATOM     31  F   UNL     1       5.884  -6.325  22.147  0.00  0.00    -0.169 F 
ATOM     32  F   UNL     1       7.795  -5.761  21.269  0.00  0.00    -0.169 F 
ENDBRANCH  28  29
ENDBRANCH  18  28
ENDBRANCH   4  18
TORSDOF 9
ENDMDL
MODEL 2
REMARK VINA RESULT:      -7.6      2.191      2.688
REMARK  Name = 
REMARK  9 active torsions:
REMARK  status: ('A' for Active; 'I' for Inactive)
REMARK    1  A    between atoms: O_1  and  C_2
REMARK    2  A    between atoms: C_2  and  C_3
REMARK    3  A    between atoms: C_2  and  C_24
REMARK    4  A    between atoms: C_2  and  C_28
REMARK    5  A    between atoms: C_6  and  N_9
REMARK    6  A    between atoms: N_9  and  C_10
REMARK    7  A    between atoms: N_9  and  S_15
REMARK    8  A    between atoms: C_10  and  C_11
REMARK    9  A    between atoms: S_15  and  C_18
REMARK                            x       y       z     vdW  Elec       q    Type
REMARK                         _______ _______ _______ _____ _____    ______ ____
ROOT
ATOM      1  C   UNL     1       8.633   0.547  22.975  0.00  0.00    +0.002 A 
ATOM      2  C   UNL     1       8.993  -0.481  22.080  0.00  0.00    +0.009 A 
ATOM      3  C   UNL     1       8.694  -1.827  22.354  0.00  0.00    +0.025 A 
ATOM      4  C   UNL     1       8.018  -2.179  23.520  0.00  0.00    +0.052 A 
ATOM      5  C   UNL     1       7.604  -1.169  24.387  0.00  0.00    +0.025 A 
ATOM      6  C   UNL     1       7.918   0.170  24.129  0.00  0.00    +0.009 A 
ENDROOT
BRANCH   1   7
ATOM      7  C   UNL     1       9.024   2.023  22.705  0.00  0.00    +0.282 C 
BRANCH   7   8
ATOM      8  C   UNL     1       7.772   2.923  22.480  0.00  0.00    +0.431 C 
ATOM      9  F   UNL     1       8.025   4.231  22.280  0.00  0.00    -0.167 F 
ATOM     10  F   UNL     1       6.907   2.877  23.527  0.00  0.00    -0.167 F 
ATOM     11  F   UNL     1       7.053   2.516  21.399  0.00  0.00    -0.167 F 
ENDBRANCH   7   8
BRANCH   7  12
ATOM     12  C   UNL     1       9.913   2.617  23.830  0.00  0.00    +0.431 C 
ATOM     13  F   UNL     1      10.718   1.686  24.399  0.00  0.00    -0.167 F 
ATOM     14  F   UNL     1       9.284   3.238  24.843  0.00  0.00    -0.167 F 
ATOM     15  F   UNL     1      10.766   3.538  23.290  0.00  0.00    -0.167 F 
ENDBRANCH   7  12
BRANCH   7  16
ATOM     16  O   UNL     1       9.809   2.001  21.453  0.00  0.00    -0.369 OA
ATOM     17  H   UNL     1       9.175   1.944  20.712  0.00  0.00    +0.211 HD
ENDBRANCH   7  16
ENDBRANCH   1   7
BRANCH   4  18
ATOM     18  N   UNL     1       7.650  -3.535  23.833  0.00  0.00    -0.194 N 
BRANCH  18  19
ATOM     19  S   UNL     1       6.360  -4.199  22.911  0.00  0.00    +0.075 S 
ATOM     20  O   UNL     1       6.892  -5.149  21.961  0.00  0.00    -0.150 OA
ATOM     21  O   UNL     1       5.525  -3.102  22.469  0.00  0.00    -0.150 OA
BRANCH  19  22
ATOM     22  C   UNL     1       5.414  -5.113  24.120  0.00  0.00    +0.109 A 
ATOM     23  C   UNL     1       5.195  -4.560  25.385  0.00  0.00    +0.029 A 
ATOM     24  C   UNL     1       4.471  -5.280  26.332  0.00  0.00    +0.002 A 
ATOM     25  C   UNL     1       3.986  -6.555  26.025  0.00  0.00    +0.000 A 
ATOM     26  C   UNL     1       4.233  -7.116  24.770  0.00  0.00    +0.002 A 
ATOM     27  C   UNL     1       4.961  -6.403  23.818  0.00  0.00    +0.029 A 
ENDBRANCH  19  22
ENDBRANCH  18  19
BRANCH  18  28
ATOM     28  C   UNL     1       8.726  -4.517  24.200  0.00  0.00    +0.244 C 
BRANCH  28  29
ATOM     29  C   UNL     1       8.957  -4.759  25.693  0.00  0.00    +0.407 C 
ATOM     30  F   UNL     1      10.240  -5.140  25.910  0.00  0.00    -0.169 F 
ATOM     31  F   UNL     1       8.170  -5.772  26.136  0.00  0.00    -0.169 F 
ATOM     32  F   UNL     1       8.710  -3.690  26.473  0.00  0.00    -0.169 F 
ENDBRANCH  28  29
ENDBRANCH  18  28
ENDBRANCH   4  18
TORSDOF 9
ENDMDL
MODEL 3
REMARK VINA RESULT:      -7.6      1.896      2.811
REMARK  Name = 
REMARK  9 active torsions:
REMARK  status: ('A' for Active; 'I' for Inactive)
REMARK    1  A    between atoms: O_1  and  C_2
REMARK    2  A    between atoms: C_2  and  C_3
REMARK    3  A    between atoms: C_2  and  C_24
REMARK    4  A    between atoms: C_2  and  C_28
REMARK    5  A    between atoms: C_6  and  N_9
REMARK    6  A    between atoms: N_9  and  C_10
REMARK    7  A    between atoms: N_9  and  S_15
REMARK    8  A    between atoms: C_10  and  C_11
REMARK    9  A    between atoms: S_15  and  C_18
REMARK                            x       y       z     vdW  Elec       q    Type
REMARK                         _______ _______ _______ _____ _____    ______ ____
ROOT
ATOM      1  C   UNL     1       8.317  -0.878  23.346  0.00  0.00    +0.002 A 
ATOM      2  C   UNL     1       9.138  -1.981  23.655  0.00  0.00    +0.009 A 
ATOM      3  C   UNL     1       8.599  -3.268  23.829  0.00  0.00    +0.025 A 
ATOM      4  C   UNL     1       7.231  -3.487  23.686  0.00  0.00    +0.052 A 
ATOM      5  C   UNL     1       6.414  -2.417  23.324  0.00  0.00    +0.025 A 
ATOM      6  C   UNL     1       6.942  -1.131  23.171  0.00  0.00    +0.009 A 
ENDROOT
BRANCH   1   7
ATOM      7  C   UNL     1       8.903   0.553  23.224  0.00  0.00    +0.282 C 
BRANCH   7   8
ATOM      8  C   UNL     1       9.964   0.841  24.328  0.00  0.00    +0.431 C 
ATOM      9  F   UNL     1      11.209   0.394  24.068  0.00  0.00    -0.167 F 
ATOM     10  F   UNL     1       9.627   0.294  25.525  0.00  0.00    -0.167 F 
ATOM     11  F   UNL     1      10.091   2.175  24.562  0.00  0.00    -0.167 F 
ENDBRANCH   7   8
BRANCH   7  12
ATOM     12  C   UNL     1       9.505   0.829  21.820  0.00  0.00    +0.431 C 
ATOM     13  F   UNL     1      10.105  -0.265  21.289  0.00  0.00    -0.167 F 
ATOM     14  F   UNL     1      10.397   1.830  21.723  0.00  0.00    -0.167 F 
ATOM     15  F   UNL     1       8.496   1.134  20.950  0.00  0.00    -0.167 F 
ENDBRANCH   7  12
BRANCH   7  16
ATOM     16  O   UNL     1       7.761   1.467  23.430  0.00  0.00    -0.369 OA
ATOM     17  H   UNL     1       7.034   0.943  23.819  0.00  0.00    +0.211 HD
ENDBRANCH   7  16
ENDBRANCH   1   7
BRANCH   4  18
ATOM     18  N   UNL     1       6.629  -4.789  23.812  0.00  0.00    -0.194 N 
BRANCH  18  19
ATOM     19  S   UNL     1       6.215  -5.279  25.407  0.00  0.00    +0.075 S 
ATOM     20  O   UNL     1       7.418  -5.388  26.200  0.00  0.00    -0.150 OA
ATOM     21  O   UNL     1       5.298  -6.394  25.299  0.00  0.00    -0.150 OA
BRANCH  19  22
ATOM     22  C   UNL     1       5.274  -3.897  26.034  0.00  0.00    +0.109 A 
ATOM     23  C   UNL     1       5.875  -3.001  26.924  0.00  0.00    +0.029 A 
ATOM     24  C   UNL     1       5.135  -1.932  27.424  0.00  0.00    +0.002 A 
ATOM     25  C   UNL     1       3.796  -1.771  27.056  0.00  0.00    +0.000 A 
ATOM     26  C   UNL     1       3.192  -2.684  26.191  0.00  0.00    +0.002 A 
ATOM     27  C   UNL     1       3.924  -3.760  25.689  0.00  0.00    +0.029 A 
ENDBRANCH  19  22
ENDBRANCH  18  19
BRANCH  18  28
ATOM     28  C   UNL     1       5.680  -5.260  22.746  0.00  0.00    +0.244 C 
BRANCH  28  29
ATOM     29  C   UNL     1       6.257  -5.436  21.340  0.00  0.00    +0.407 C 
ATOM     30  F   UNL     1       6.110  -4.289  20.630  0.00  0.00    -0.169 F 
ATOM     31  F   UNL     1       5.579  -6.400  20.668  0.00  0.00    -0.169 F 
ATOM     32  F   UNL     1       7.561  -5.769  21.313  0.00  0.00    -0.169 F 
ENDBRANCH  28  29
ENDBRANCH  18  28
ENDBRANCH   4  18
TORSDOF 9
ENDMDL
MODEL 4
REMARK VINA RESULT:      -7.5      2.007      2.578
REMARK  Name = 
REMARK  9 active torsions:
REMARK  status: ('A' for Active; 'I' for Inactive)
REMARK    1  A    between atoms: O_1  and  C_2
REMARK    2  A    between atoms: C_2  and  C_3
REMARK    3  A    between atoms: C_2  and  C_24
REMARK    4  A    between atoms: C_2  and  C_28
REMARK    5  A    between atoms: C_6  and  N_9
REMARK    6  A    between atoms: N_9  and  C_10
REMARK    7  A    between atoms: N_9  and  S_15
REMARK    8  A    between atoms: C_10  and  C_11
REMARK    9  A    between atoms: S_15  and  C_18
REMARK                            x       y       z     vdW  Elec       q    Type
REMARK                         _______ _______ _______ _____ _____    ______ ____
ROOT
ATOM      1  C   UNL     1       8.944  -0.970  23.741  0.00  0.00    +0.002 A 
ATOM      2  C   UNL     1       9.753  -2.053  24.138  0.00  0.00    +0.009 A 
ATOM      3  C   UNL     1       9.197  -3.306  24.452  0.00  0.00    +0.025 A 
ATOM      4  C   UNL     1       7.822  -3.511  24.366  0.00  0.00    +0.052 A 
ATOM      5  C   UNL     1       7.014  -2.466  23.920  0.00  0.00    +0.025 A 
ATOM      6  C   UNL     1       7.560  -1.212  23.627  0.00  0.00    +0.009 A 
ENDROOT
BRANCH   1   7
ATOM      7  C   UNL     1       9.551   0.429  23.463  0.00  0.00    +0.282 C 
BRANCH   7   8
ATOM      8  C   UNL     1       9.514   0.786  21.946  0.00  0.00    +0.431 C 
ATOM      9  F   UNL     1       9.831  -0.218  21.105  0.00  0.00    -0.167 F 
ATOM     10  F   UNL     1      10.360   1.802  21.633  0.00  0.00    -0.167 F 
ATOM     11  F   UNL     1       8.279   1.212  21.565  0.00  0.00    -0.167 F 
ENDBRANCH   7   8
BRANCH   7  12
ATOM     12  C   UNL     1       8.867   1.549  24.292  0.00  0.00    +0.431 C 
ATOM     13  F   UNL     1       8.618   1.169  25.570  0.00  0.00    -0.167 F 
ATOM     14  F   UNL     1       7.711   2.044  23.816  0.00  0.00    -0.167 F 
ATOM     15  F   UNL     1       9.720   2.612  24.401  0.00  0.00    -0.167 F 
ENDBRANCH   7  12
BRANCH   7  16
ATOM     16  O   UNL     1      10.965   0.337  23.881  0.00  0.00    -0.369 OA
ATOM     17  H   UNL     1      11.343  -0.459  23.459  0.00  0.00    +0.211 HD
ENDBRANCH   7  16
ENDBRANCH   1   7
BRANCH   4  18
ATOM     18  N   UNL     1       7.202  -4.782  24.635  0.00  0.00    -0.194 N 
BRANCH  18  19
ATOM     19  S   UNL     1       6.667  -5.035  26.250  0.00  0.00    +0.075 S 
ATOM     20  O   UNL     1       7.746  -4.732  27.162  0.00  0.00    -0.150 OA
ATOM     21  O   UNL     1       6.000  -6.318  26.295  0.00  0.00    -0.150 OA
BRANCH  19  22
ATOM     22  C   UNL     1       5.406  -3.789  26.469  0.00  0.00    +0.109 A 
ATOM     23  C   UNL     1       5.687  -2.650  27.229  0.00  0.00    +0.029 A 
ATOM     24  C   UNL     1       4.697  -1.687  27.412  0.00  0.00    +0.002 A 
ATOM     25  C   UNL     1       3.427  -1.870  26.858  0.00  0.00    +0.000 A 
ATOM     26  C   UNL     1       3.142  -3.023  26.124  0.00  0.00    +0.002 A 
ATOM     27  C   UNL     1       4.126  -3.994  25.940  0.00  0.00    +0.029 A 
ENDBRANCH  19  22
ENDBRANCH  18  19
BRANCH  18  28
ATOM     28  C   UNL     1       6.329  -5.405  23.583  0.00  0.00    +0.244 C 
BRANCH  28  29
ATOM     29  C   UNL     1       7.017  -5.838  22.287  0.00  0.00    +0.407 C 
ATOM     30  F   UNL     1       8.230  -6.378  22.561  0.00  0.00    -0.169 F 
ATOM     31  F   UNL     1       7.241  -4.764  21.488  0.00  0.00    -0.169 F 
ATOM     32  F   UNL     1       6.323  -6.738  21.564  0.00  0.00    -0.169 F 
ENDBRANCH  28  29
ENDBRANCH  18  28
ENDBRANCH   4  18
TORSDOF 9
ENDMDL
MODEL 5
REMARK VINA RESULT:      -7.3      2.067      2.935
REMARK  Name = 
REMARK  9 active torsions:
REMARK  status: ('A' for Active; 'I' for Inactive)
REMARK    1  A    between atoms: O_1  and  C_2
REMARK    2  A    between atoms: C_2  and  C_3
REMARK    3  A    between atoms: C_2  and  C_24
REMARK    4  A    between atoms: C_2  and  C_28
REMARK    5  A    between atoms: C_6  and  N_9
REMARK    6  A    between atoms: N_9  and  C_10
REMARK    7  A    between atoms: N_9  and  S_15
REMARK    8  A    between atoms: C_10  and  C_11
REMARK    9  A    between atoms: S_15  and  C_18
REMARK                            x       y       z     vdW  Elec       q    Type
REMARK                         _______ _______ _______ _____ _____    ______ ____
ROOT
ATOM      1  C   UNL     1       8.326  -0.727  23.432  0.00  0.00    +0.002 A 
ATOM      2  C   UNL     1       9.133  -1.841  23.735  0.00  0.00    +0.009 A 
ATOM      3  C   UNL     1       8.573  -3.108  23.976  0.00  0.00    +0.025 A 
ATOM      4  C   UNL     1       7.193  -3.295  23.908  0.00  0.00    +0.052 A 
ATOM      5  C   UNL     1       6.386  -2.215  23.553  0.00  0.00    +0.025 A 
ATOM      6  C   UNL     1       6.938  -0.949  23.333  0.00  0.00    +0.009 A 
ENDROOT
BRANCH   1   7
ATOM      7  C   UNL     1       8.941   0.683  23.235  0.00  0.00    +0.282 C 
BRANCH   7   8
ATOM      8  C   UNL     1      10.040   0.990  24.295  0.00  0.00    +0.431 C 
ATOM      9  F   UNL     1       9.804   0.509  25.532  0.00  0.00    -0.167 F 
ATOM     10  F   UNL     1      10.246   2.323  24.457  0.00  0.00    -0.167 F 
ATOM     11  F   UNL     1      11.246   0.480  23.924  0.00  0.00    -0.167 F 
ENDBRANCH   7   8
BRANCH   7  12
ATOM     12  C   UNL     1       9.506   0.890  21.804  0.00  0.00    +0.431 C 
ATOM     13  F   UNL     1      10.093  -0.230  21.312  0.00  0.00    -0.167 F 
ATOM     14  F   UNL     1      10.396   1.884  21.635  0.00  0.00    -0.167 F 
ATOM     15  F   UNL     1       8.475   1.153  20.947  0.00  0.00    -0.167 F 
ENDBRANCH   7  12
BRANCH   7  16
ATOM     16  O   UNL     1       7.826   1.632  23.437  0.00  0.00    -0.369 OA
ATOM     17  H   UNL     1       7.022   1.106  23.610  0.00  0.00    +0.211 HD
ENDBRANCH   7  16
ENDBRANCH   1   7
BRANCH   4  18
ATOM     18  N   UNL     1       6.567  -4.576  24.105  0.00  0.00    -0.194 N 
BRANCH  18  19
ATOM     19  S   UNL     1       6.052  -4.928  25.707  0.00  0.00    +0.075 S 
ATOM     20  O   UNL     1       5.900  -3.692  26.441  0.00  0.00    -0.150 OA
ATOM     21  O   UNL     1       6.893  -5.990  26.215  0.00  0.00    -0.150 OA
BRANCH  19  22
ATOM     22  C   UNL     1       4.424  -5.624  25.475  0.00  0.00    +0.109 A 
ATOM     23  C   UNL     1       3.313  -4.777  25.416  0.00  0.00    +0.029 A 
ATOM     24  C   UNL     1       2.043  -5.323  25.251  0.00  0.00    +0.002 A 
ATOM     25  C   UNL     1       1.879  -6.709  25.168  0.00  0.00    +0.000 A 
ATOM     26  C   UNL     1       2.987  -7.553  25.257  0.00  0.00    +0.002 A 
ATOM     27  C   UNL     1       4.262  -7.014  25.427  0.00  0.00    +0.029 A 
ENDBRANCH  19  22
ENDBRANCH  18  19
BRANCH  18  28
ATOM     28  C   UNL     1       5.676  -5.125  23.027  0.00  0.00    +0.244 C 
BRANCH  28  29
ATOM     29  C   UNL     1       6.309  -5.335  21.650  0.00  0.00    +0.407 C 
ATOM     30  F   UNL     1       6.230  -4.192  20.922  0.00  0.00    -0.169 F 
ATOM     31  F   UNL     1       5.633  -6.285  20.957  0.00  0.00    -0.169 F 
ATOM     32  F   UNL     1       7.602  -5.708  21.686  0.00  0.00    -0.169 F 
ENDBRANCH  28  29
ENDBRANCH  18  28
ENDBRANCH   4  18
TORSDOF 9
ENDMDL
MODEL 6
REMARK VINA RESULT:      -7.3      2.116      2.708
REMARK  Name = 
REMARK  9 active torsions:
REMARK  status: ('A' for Active; 'I' for Inactive)
REMARK    1  A    between atoms: O_1  and  C_2
REMARK    2  A    between atoms: C_2  and  C_3
REMARK    3  A    between atoms: C_2  and  C_24
REMARK    4  A    between atoms: C_2  and  C_28
REMARK    5  A    between atoms: C_6  and  N_9
REMARK    6  A    between atoms: N_9  and  C_10
REMARK    7  A    between atoms: N_9  and  S_15
REMARK    8  A    between atoms: C_10  and  C_11
REMARK    9  A    between atoms: S_15  and  C_18
REMARK                            x       y       z     vdW  Elec       q    Type
REMARK                         _______ _______ _______ _____ _____    ______ ____
ROOT
ATOM      1  C   UNL     1       8.741  -0.712  23.483  0.00  0.00    +0.002 A 
ATOM      2  C   UNL     1       9.397  -1.840  24.015  0.00  0.00    +0.009 A 
ATOM      3  C   UNL     1       8.736  -3.073  24.154  0.00  0.00    +0.025 A 
ATOM      4  C   UNL     1       7.408  -3.213  23.755  0.00  0.00    +0.052 A 
ATOM      5  C   UNL     1       6.764  -2.122  23.174  0.00  0.00    +0.025 A 
ATOM      6  C   UNL     1       7.411  -0.887  23.053  0.00  0.00    +0.009 A 
ENDROOT
BRANCH   1   7
ATOM      7  C   UNL     1       9.450   0.664  23.395  0.00  0.00    +0.282 C 
BRANCH   7   8
ATOM      8  C   UNL     1       9.595   1.149  21.921  0.00  0.00    +0.431 C 
ATOM      9  F   UNL     1      10.590   2.029  21.694  0.00  0.00    -0.167 F 
ATOM     10  F   UNL     1       8.467   1.751  21.461  0.00  0.00    -0.167 F 
ATOM     11  F   UNL     1       9.821   0.108  21.075  0.00  0.00    -0.167 F 
ENDBRANCH   7   8
BRANCH   7  12
ATOM     12  C   UNL     1       8.744   1.752  24.248  0.00  0.00    +0.431 C 
ATOM     13  F   UNL     1       8.606   1.384  25.546  0.00  0.00    -0.167 F 
ATOM     14  F   UNL     1       7.527   2.154  23.841  0.00  0.00    -0.167 F 
ATOM     15  F   UNL     1       9.523   2.874  24.281  0.00  0.00    -0.167 F 
ENDBRANCH   7  12
BRANCH   7  16
ATOM     16  O   UNL     1      10.804   0.447  23.946  0.00  0.00    -0.369 OA
ATOM     17  H   UNL     1      11.429   0.954  23.393  0.00  0.00    +0.211 HD
ENDBRANCH   7  16
ENDBRANCH   1   7
BRANCH   4  18
ATOM     18  N   UNL     1       6.694  -4.460  23.835  0.00  0.00    -0.194 N 
BRANCH  18  19
ATOM     19  S   UNL     1       6.023  -4.849  25.369  0.00  0.00    +0.075 S 
ATOM     20  O   UNL     1       5.762  -3.630  26.099  0.00  0.00    -0.150 OA
ATOM     21  O   UNL     1       6.835  -5.898  25.950  0.00  0.00    -0.150 OA
BRANCH  19  22
ATOM     22  C   UNL     1       4.448  -5.583  24.959  0.00  0.00    +0.109 A 
ATOM     23  C   UNL     1       4.349  -6.971  24.821  0.00  0.00    +0.029 A 
ATOM     24  C   UNL     1       3.122  -7.541  24.486  0.00  0.00    +0.002 A 
ATOM     25  C   UNL     1       2.006  -6.728  24.267  0.00  0.00    +0.000 A 
ATOM     26  C   UNL     1       2.117  -5.341  24.377  0.00  0.00    +0.002 A 
ATOM     27  C   UNL     1       3.342  -4.762  24.708  0.00  0.00    +0.029 A 
ENDBRANCH  19  22
ENDBRANCH  18  19
BRANCH  18  28
ATOM     28  C   UNL     1       5.868  -4.905  22.661  0.00  0.00    +0.244 C 
BRANCH  28  29
ATOM     29  C   UNL     1       6.545  -5.842  21.659  0.00  0.00    +0.407 C 
ATOM     30  F   UNL     1       5.915  -5.775  20.460  0.00  0.00    -0.169 F 
ATOM     31  F   UNL     1       6.452  -7.130  22.077  0.00  0.00    -0.169 F 
ATOM     32  F   UNL     1       7.850  -5.582  21.450  0.00  0.00    -0.169 F 
ENDBRANCH  28  29
ENDBRANCH  18  28
ENDBRANCH   4  18
TORSDOF 9
ENDMDL
MODEL 7
REMARK VINA RESULT:      -7.2      2.815      3.925
REMARK  Name = 
REMARK  9 active torsions:
REMARK  status: ('A' for Active; 'I' for Inactive)
REMARK    1  A    between atoms: O_1  and  C_2
REMARK    2  A    between atoms: C_2  and  C_3
REMARK    3  A    between atoms: C_2  and  C_24
REMARK    4  A    between atoms: C_2  and  C_28
REMARK    5  A    between atoms: C_6  and  N_9
REMARK    6  A    between atoms: N_9  and  C_10
REMARK    7  A    between atoms: N_9  and  S_15
REMARK    8  A    between atoms: C_10  and  C_11
REMARK    9  A    between atoms: S_15  and  C_18
REMARK                            x       y       z     vdW  Elec       q    Type
REMARK                         _______ _______ _______ _____ _____    ______ ____
ROOT
ATOM      1  C   UNL     1       8.355  -0.488  23.598  0.00  0.00    +0.002 A 
ATOM      2  C   UNL     1       6.996  -0.525  23.967  0.00  0.00    +0.009 A 
ATOM      3  C   UNL     1       6.327  -1.743  24.181  0.00  0.00    +0.025 A 
ATOM      4  C   UNL     1       7.003  -2.954  24.045  0.00  0.00    +0.052 A 
ATOM      5  C   UNL     1       8.362  -2.933  23.736  0.00  0.00    +0.025 A 
ATOM      6  C   UNL     1       9.026  -1.724  23.502  0.00  0.00    +0.009 A 
ENDROOT
BRANCH   1   7
ATOM      7  C   UNL     1       9.072   0.853  23.294  0.00  0.00    +0.282 C 
BRANCH   7   8
ATOM      8  C   UNL     1      10.319   1.063  24.204  0.00  0.00    +0.431 C 
ATOM      9  F   UNL     1      10.179   0.660  25.483  0.00  0.00    -0.167 F 
ATOM     10  F   UNL     1      10.694   2.367  24.274  0.00  0.00    -0.167 F 
ATOM     11  F   UNL     1      11.404   0.399  23.723  0.00  0.00    -0.167 F 
ENDBRANCH   7   8
BRANCH   7  12
ATOM     12  C   UNL     1       9.472   0.987  21.800  0.00  0.00    +0.431 C 
ATOM     13  F   UNL     1       9.941  -0.175  21.283  0.00  0.00    -0.167 F 
ATOM     14  F   UNL     1      10.381   1.928  21.493  0.00  0.00    -0.167 F 
ATOM     15  F   UNL     1       8.359   1.278  21.061  0.00  0.00    -0.167 F 
ENDBRANCH   7  12
BRANCH   7  16
ATOM     16  O   UNL     1       8.086   1.908  23.609  0.00  0.00    -0.369 OA
ATOM     17  H   UNL     1       7.217   1.474  23.710  0.00  0.00    +0.211 HD
ENDBRANCH   7  16
ENDBRANCH   1   7
BRANCH   4  18
ATOM     18  N   UNL     1       6.382  -4.229  24.291  0.00  0.00    -0.194 N 
BRANCH  18  19
ATOM     19  S   UNL     1       5.536  -4.926  22.967  0.00  0.00    +0.075 S 
ATOM     20  O   UNL     1       6.296  -6.040  22.449  0.00  0.00    -0.150 OA
ATOM     21  O   UNL     1       5.118  -3.848  22.097  0.00  0.00    -0.150 OA
BRANCH  19  22
ATOM     22  C   UNL     1       4.056  -5.583  23.721  0.00  0.00    +0.109 A 
ATOM     23  C   UNL     1       3.015  -4.716  24.068  0.00  0.00    +0.029 A 
ATOM     24  C   UNL     1       1.868  -5.229  24.670  0.00  0.00    +0.002 A 
ATOM     25  C   UNL     1       1.770  -6.595  24.945  0.00  0.00    +0.000 A 
ATOM     26  C   UNL     1       2.823  -7.453  24.624  0.00  0.00    +0.002 A 
ATOM     27  C   UNL     1       3.977  -6.948  24.025  0.00  0.00    +0.029 A 
ENDBRANCH  19  22
ENDBRANCH  18  19
BRANCH  18  28
ATOM     28  C   UNL     1       7.079  -5.220  25.179  0.00  0.00    +0.244 C 
BRANCH  28  29
ATOM     29  C   UNL     1       6.624  -5.276  26.639  0.00  0.00    +0.407 C 
ATOM     30  F   UNL     1       7.657  -5.649  27.435  0.00  0.00    -0.169 F 
ATOM     31  F   UNL     1       5.654  -6.212  26.797  0.00  0.00    -0.169 F 
ATOM     32  F   UNL     1       6.141  -4.113  27.114  0.00  0.00    -0.169 F 
ENDBRANCH  28  29
ENDBRANCH  18  28
ENDBRANCH   4  18
TORSDOF 9
ENDMDL
MODEL 8
REMARK VINA RESULT:      -7.0      2.251      2.805
REMARK  Name = 
REMARK  9 active torsions:
REMARK  status: ('A' for Active; 'I' for Inactive)
REMARK    1  A    between atoms: O_1  and  C_2
REMARK    2  A    between atoms: C_2  and  C_3
REMARK    3  A    between atoms: C_2  and  C_24
REMARK    4  A    between atoms: C_2  and  C_28
REMARK    5  A    between atoms: C_6  and  N_9
REMARK    6  A    between atoms: N_9  and  C_10
REMARK    7  A    between atoms: N_9  and  S_15
REMARK    8  A    between atoms: C_10  and  C_11
REMARK    9  A    between atoms: S_15  and  C_18
REMARK                            x       y       z     vdW  Elec       q    Type
REMARK                         _______ _______ _______ _____ _____    ______ ____
ROOT
ATOM      1  C   UNL     1       8.492  -0.342  23.623  0.00  0.00    +0.002 A 
ATOM      2  C   UNL     1       8.793  -1.346  24.565  0.00  0.00    +0.009 A 
ATOM      3  C   UNL     1       7.943  -2.450  24.755  0.00  0.00    +0.025 A 
ATOM      4  C   UNL     1       6.779  -2.584  24.000  0.00  0.00    +0.052 A 
ATOM      5  C   UNL     1       6.498  -1.629  23.024  0.00  0.00    +0.025 A 
ATOM      6  C   UNL     1       7.330  -0.518  22.847  0.00  0.00    +0.009 A 
ENDROOT
BRANCH   1   7
ATOM      7  C   UNL     1       9.394   0.910  23.464  0.00  0.00    +0.282 C 
BRANCH   7   8
ATOM      8  C   UNL     1       9.661   1.246  21.967  0.00  0.00    +0.431 C 
ATOM      9  F   UNL     1       8.619   1.776  21.296  0.00  0.00    -0.167 F 
ATOM     10  F   UNL     1      10.035   0.153  21.250  0.00  0.00    -0.167 F 
ATOM     11  F   UNL     1      10.682   2.135  21.830  0.00  0.00    -0.167 F 
ENDBRANCH   7   8
BRANCH   7  12
ATOM     12  C   UNL     1       8.820   2.152  24.196  0.00  0.00    +0.431 C 
ATOM     13  F   UNL     1       8.475   1.883  25.481  0.00  0.00    -0.167 F 
ATOM     14  F   UNL     1       7.753   2.752  23.640  0.00  0.00    -0.167 F 
ATOM     15  F   UNL     1       9.791   3.110  24.286  0.00  0.00    -0.167 F 
ENDBRANCH   7  12
BRANCH   7  16
ATOM     16  O   UNL     1      10.682   0.551  24.095  0.00  0.00    -0.369 OA
ATOM     17  H   UNL     1      10.592  -0.355  24.448  0.00  0.00    +0.211 HD
ENDBRANCH   7  16
ENDBRANCH   1   7
BRANCH   4  18
ATOM     18  N   UNL     1       5.893  -3.712  24.122  0.00  0.00    -0.194 N 
BRANCH  18  19
ATOM     19  S   UNL     1       4.515  -3.486  25.123  0.00  0.00    +0.075 S 
ATOM     20  O   UNL     1       3.408  -4.246  24.589  0.00  0.00    -0.150 OA
ATOM     21  O   UNL     1       4.383  -2.067  25.376  0.00  0.00    -0.150 OA
BRANCH  19  22
ATOM     22  C   UNL     1       4.996  -4.243  26.668  0.00  0.00    +0.109 A 
ATOM     23  C   UNL     1       6.078  -5.128  26.694  0.00  0.00    +0.029 A 
ATOM     24  C   UNL     1       6.442  -5.729  27.897  0.00  0.00    +0.002 A 
ATOM     25  C   UNL     1       5.718  -5.465  29.063  0.00  0.00    +0.000 A 
ATOM     26  C   UNL     1       4.620  -4.603  29.026  0.00  0.00    +0.002 A 
ATOM     27  C   UNL     1       4.246  -4.001  27.825  0.00  0.00    +0.029 A 
ENDBRANCH  19  22
ENDBRANCH  18  19
BRANCH  18  28
ATOM     28  C   UNL     1       5.659  -4.588  22.923  0.00  0.00    +0.244 C 
BRANCH  28  29
ATOM     29  C   UNL     1       6.804  -5.518  22.516  0.00  0.00    +0.407 C 
ATOM     30  F   UNL     1       6.334  -6.774  22.314  0.00  0.00    -0.169 F 
ATOM     31  F   UNL     1       7.724  -5.601  23.510  0.00  0.00    -0.169 F 
ATOM     32  F   UNL     1       7.453  -5.141  21.398  0.00  0.00    -0.169 F 
ENDBRANCH  28  29
ENDBRANCH  18  28
ENDBRANCH   4  18
TORSDOF 9
ENDMDL
MODEL 9
REMARK VINA RESULT:      -7.0      2.771      7.899
REMARK  Name = 
REMARK  9 active torsions:
REMARK  status: ('A' for Active; 'I' for Inactive)
REMARK    1  A    between atoms: O_1  and  C_2
REMARK    2  A    between atoms: C_2  and  C_3
REMARK    3  A    between atoms: C_2  and  C_24
REMARK    4  A    between atoms: C_2  and  C_28
REMARK    5  A    between atoms: C_6  and  N_9
REMARK    6  A    between atoms: N_9  and  C_10
REMARK    7  A    between atoms: N_9  and  S_15
REMARK    8  A    between atoms: C_10  and  C_11
REMARK    9  A    between atoms: S_15  and  C_18
REMARK                            x       y       z     vdW  Elec       q    Type
REMARK                         _______ _______ _______ _____ _____    ______ ____
ROOT
ATOM      1  C   UNL     1       6.405  -3.556  23.360  0.00  0.00    +0.002 A 
ATOM      2  C   UNL     1       7.315  -3.179  24.368  0.00  0.00    +0.009 A 
ATOM      3  C   UNL     1       7.805  -1.864  24.457  0.00  0.00    +0.025 A 
ATOM      4  C   UNL     1       7.388  -0.891  23.550  0.00  0.00    +0.052 A 
ATOM      5  C   UNL     1       6.444  -1.235  22.584  0.00  0.00    +0.025 A 
ATOM      6  C   UNL     1       5.970  -2.547  22.478  0.00  0.00    +0.009 A 
ENDROOT
BRANCH   1   7
ATOM      7  C   UNL     1       5.920  -5.023  23.222  0.00  0.00    +0.282 C 
BRANCH   7   8
ATOM      8  C   UNL     1       6.936  -5.897  22.428  0.00  0.00    +0.431 C 
ATOM      9  F   UNL     1       6.556  -7.170  22.203  0.00  0.00    -0.167 F 
ATOM     10  F   UNL     1       8.141  -5.984  23.051  0.00  0.00    -0.167 F 
ATOM     11  F   UNL     1       7.200  -5.367  21.203  0.00  0.00    -0.167 F 
ENDBRANCH   7   8
BRANCH   7  12
ATOM     12  C   UNL     1       5.609  -5.678  24.594  0.00  0.00    +0.431 C 
ATOM     13  F   UNL     1       6.715  -5.804  25.370  0.00  0.00    -0.167 F 
ATOM     14  F   UNL     1       5.024  -6.888  24.576  0.00  0.00    -0.167 F 
ATOM     15  F   UNL     1       4.774  -4.862  25.303  0.00  0.00    -0.167 F 
ENDBRANCH   7  12
BRANCH   7  16
ATOM     16  O   UNL     1       4.665  -4.952  22.445  0.00  0.00    -0.369 OA
ATOM     17  H   UNL     1       4.003  -4.496  22.999  0.00  0.00    +0.211 HD
ENDBRANCH   7  16
ENDBRANCH   1   7
BRANCH   4  18
ATOM     18  N   UNL     1       7.824   0.479  23.618  0.00  0.00    -0.194 N 
BRANCH  18  19
ATOM     19  S   UNL     1       7.113   1.437  24.856  0.00  0.00    +0.075 S 
ATOM     20  O   UNL     1       7.791   1.181  26.105  0.00  0.00    -0.150 OA
ATOM     21  O   UNL     1       5.677   1.294  24.751  0.00  0.00    -0.150 OA
BRANCH  19  22
ATOM     22  C   UNL     1       7.502   3.109  24.360  0.00  0.00    +0.109 A 
ATOM     23  C   UNL     1       6.990   3.609  23.159  0.00  0.00    +0.029 A 
ATOM     24  C   UNL     1       7.307   4.907  22.767  0.00  0.00    +0.002 A 
ATOM     25  C   UNL     1       8.149   5.695  23.557  0.00  0.00    +0.000 A 
ATOM     26  C   UNL     1       8.682   5.181  24.741  0.00  0.00    +0.002 A 
ATOM     27  C   UNL     1       8.373   3.881  25.139  0.00  0.00    +0.029 A 
ENDBRANCH  19  22
ENDBRANCH  18  19
BRANCH  18  28
ATOM     28  C   UNL     1       9.261   0.803  23.323  0.00  0.00    +0.244 C 
BRANCH  28  29
ATOM     29  C   UNL     1       9.626   1.044  21.857  0.00  0.00    +0.407 C 
ATOM     30  F   UNL     1      10.183  -0.073  21.326  0.00  0.00    -0.169 F 
ATOM     31  F   UNL     1      10.555   2.028  21.756  0.00  0.00    -0.169 F 
ATOM     32  F   UNL     1       8.586   1.393  21.077  0.00  0.00    -0.169 F 
ENDBRANCH  28  29
ENDBRANCH  18  28
ENDBRANCH   4  18
TORSDOF 9
ENDMDL
