MODEL 1
REMARK VINA RESULT:      -3.9      0.000      0.000
REMARK  Name = 
REMARK  6 active torsions:
REMARK  status: ('A' for Active; 'I' for Inactive)
REMARK    1  A    between atoms: N_1  and  CA_2
REMARK    2  A    between atoms: CA_2  and  CB_4
REMARK    3  A    between atoms: CA_2  and  C_8
REMARK    4  A    between atoms: CB_4  and  CG_5
REMARK    5  A    between atoms: CG_5  and  OD1_6
REMARK    6  A    between atoms: C_8  and  O_9
REMARK                            x       y       z     vdW  Elec       q    Type
REMARK                         _______ _______ _______ _____ _____    ______ ____
ROOT
ATOM      1  CA  ASP A   1       8.768  -5.212  25.230  0.00  0.00    +0.171 C 
ENDROOT
BRANCH   1   2
ATOM      2  N   ASP A   1      10.225  -5.401  25.468  0.00  0.00    -0.318 NA
ATOM      3  H1  ASP A   1      10.622  -5.977  24.715  0.00  0.00    +0.119 HD
ATOM      4  H2  ASP A   1      10.699  -4.496  25.352  0.00  0.00    +0.119 HD
ENDBRANCH   1   2
BRANCH   1   5
ATOM      5  C   ASP A   1       8.104  -4.888  26.579  0.00  0.00    +0.322 C 
ATOM      6  OXT ASP A   1       7.589  -3.822  26.879  0.00  0.00    -0.249 OA
BRANCH   5   7
ATOM      7  O   ASP A   1       8.113  -5.971  27.401  0.00  0.00    -0.480 OA
ATOM      8  H   ASP A   1       9.057  -6.258  27.491  0.00  0.00    +0.295 HD
ENDBRANCH   5   7
ENDBRANCH   1   5
BRANCH   1   9
ATOM      9  CB  ASP A   1       8.429  -4.137  24.205  0.00  0.00    +0.150 C 
BRANCH   9  10
ATOM     10  CG  ASP A   1       9.329  -2.930  24.207  0.00  0.00    +0.307 C 
ATOM     11  OD2 ASP A   1      10.414  -2.918  23.642  0.00  0.00    -0.251 OA
BRANCH  10  12
ATOM     12  OD1 ASP A   1       8.893  -1.863  24.904  0.00  0.00    -0.481 OA
ATOM     13  HD1 ASP A   1       8.479  -2.026  25.770  0.00  0.00    +0.295 HD
ENDBRANCH  10  12
ENDBRANCH   9  10
ENDBRANCH   1   9
TORSDOF 6
ENDMDL
MODEL 2
REMARK VINA RESULT:      -3.8      1.260      3.682
REMARK  Name = 
REMARK  6 active torsions:
REMARK  status: ('A' for Active; 'I' for Inactive)
REMARK    1  A    between atoms: N_1  and  CA_2
REMARK    2  A    between atoms: CA_2  and  CB_4
REMARK    3  A    between atoms: CA_2  and  C_8
REMARK    4  A    between atoms: CB_4  and  CG_5
REMARK    5  A    between atoms: CG_5  and  OD1_6
REMARK    6  A    between atoms: C_8  and  O_9
REMARK                            x       y       z     vdW  Elec       q    Type
REMARK                         _______ _______ _______ _____ _____    ______ ____
ROOT
ATOM      1  CA  ASP A   1       9.566  -4.460  25.634  0.00  0.00    +0.171 C 
ENDROOT
BRANCH   1   2
ATOM      2  N   ASP A   1       9.771  -5.878  25.232  0.00  0.00    -0.318 NA
ATOM      3  H1  ASP A   1       9.840  -5.936  24.208  0.00  0.00    +0.119 HD
ATOM      4  H2  ASP A   1      10.701  -6.181  25.552  0.00  0.00    +0.119 HD
ENDBRANCH   1   2
BRANCH   1   5
ATOM      5  C   ASP A   1       9.362  -3.628  24.357  0.00  0.00    +0.322 C 
ATOM      6  OXT ASP A   1      10.211  -2.934  23.819  0.00  0.00    -0.249 OA
BRANCH   5   7
ATOM      7  O   ASP A   1       8.109  -3.798  23.857  0.00  0.00    -0.480 OA
ATOM      8  H   ASP A   1       7.490  -3.823  24.630  0.00  0.00    +0.295 HD
ENDBRANCH   5   7
ENDBRANCH   1   5
BRANCH   1   9
ATOM      9  CB  ASP A   1       8.406  -4.238  26.598  0.00  0.00    +0.150 C 
BRANCH   9  10
ATOM     10  CG  ASP A   1       7.452  -5.393  26.743  0.00  0.00    +0.307 C 
ATOM     11  OD2 ASP A   1       6.578  -5.631  25.920  0.00  0.00    -0.251 OA
BRANCH  10  12
ATOM     12  OD1 ASP A   1       7.582  -6.138  27.858  0.00  0.00    -0.481 OA
ATOM     13  HD1 ASP A   1       8.309  -5.917  28.467  0.00  0.00    +0.295 HD
ENDBRANCH  10  12
ENDBRANCH   9  10
ENDBRANCH   1   9
TORSDOF 6
ENDMDL
MODEL 3
REMARK VINA RESULT:      -3.8      4.684      6.480
REMARK  Name = 
REMARK  6 active torsions:
REMARK  status: ('A' for Active; 'I' for Inactive)
REMARK    1  A    between atoms: N_1  and  CA_2
REMARK    2  A    between atoms: CA_2  and  CB_4
REMARK    3  A    between atoms: CA_2  and  C_8
REMARK    4  A    between atoms: CB_4  and  CG_5
REMARK    5  A    between atoms: CG_5  and  OD1_6
REMARK    6  A    between atoms: C_8  and  O_9
REMARK                            x       y       z     vdW  Elec       q    Type
REMARK                         _______ _______ _______ _____ _____    ______ ____
ROOT
ATOM      1  CA  ASP A   1       9.675   1.018  23.614  0.00  0.00    +0.171 C 
ENDROOT
BRANCH   1   2
ATOM      2  N   ASP A   1       9.329   1.458  24.993  0.00  0.00    -0.318 NA
ATOM      3  H1  ASP A   1       9.917   2.260  25.253  0.00  0.00    +0.119 HD
ATOM      4  H2  ASP A   1       8.379   1.851  24.985  0.00  0.00    +0.119 HD
ENDBRANCH   1   2
BRANCH   1   5
ATOM      5  C   ASP A   1      10.231   2.232  22.852  0.00  0.00    +0.322 C 
ATOM      6  OXT ASP A   1      10.860   3.155  23.347  0.00  0.00    -0.249 OA
BRANCH   5   7
ATOM      7  O   ASP A   1       9.976   2.132  21.520  0.00  0.00    -0.480 OA
ATOM      8  H   ASP A   1       9.334   2.851  21.293  0.00  0.00    +0.295 HD
ENDBRANCH   5   7
ENDBRANCH   1   5
BRANCH   1   9
ATOM      9  CB  ASP A   1      10.662  -0.141  23.549  0.00  0.00    +0.150 C 
BRANCH   9  10
ATOM     10  CG  ASP A   1      10.294  -1.256  22.607  0.00  0.00    +0.307 C 
ATOM     11  OD2 ASP A   1      10.372  -2.436  22.923  0.00  0.00    -0.251 OA
BRANCH  10  12
ATOM     12  OD1 ASP A   1       9.905  -0.889  21.371  0.00  0.00    -0.481 OA
ATOM     13  HD1 ASP A   1       9.775   0.061  21.201  0.00  0.00    +0.295 HD
ENDBRANCH  10  12
ENDBRANCH   9  10
ENDBRANCH   1   9
TORSDOF 6
ENDMDL
MODEL 4
REMARK VINA RESULT:      -3.8      4.637      5.978
REMARK  Name = 
REMARK  6 active torsions:
REMARK  status: ('A' for Active; 'I' for Inactive)
REMARK    1  A    between atoms: N_1  and  CA_2
REMARK    2  A    between atoms: CA_2  and  CB_4
REMARK    3  A    between atoms: CA_2  and  C_8
REMARK    4  A    between atoms: CB_4  and  CG_5
REMARK    5  A    between atoms: CG_5  and  OD1_6
REMARK    6  A    between atoms: C_8  and  O_9
REMARK                            x       y       z     vdW  Elec       q    Type
REMARK                         _______ _______ _______ _____ _____    ______ ____
ROOT
ATOM      1  CA  ASP A   1       9.504  -0.249  23.487  0.00  0.00    +0.171 C 
ENDROOT
BRANCH   1   2
ATOM      2  N   ASP A   1       8.155   0.151  23.005  0.00  0.00    -0.318 NA
ATOM      3  H1  ASP A   1       7.812  -0.544  22.331  0.00  0.00    +0.119 HD
ATOM      4  H2  ASP A   1       7.490   0.075  23.786  0.00  0.00    +0.119 HD
ENDBRANCH   1   2
BRANCH   1   5
ATOM      5  C   ASP A   1      10.064  -1.301  22.514  0.00  0.00    +0.322 C 
ATOM      6  OXT ASP A   1      10.556  -2.373  22.833  0.00  0.00    -0.249 OA
BRANCH   5   7
ATOM      7  O   ASP A   1       9.898  -0.910  21.222  0.00  0.00    -0.480 OA
ATOM      8  H   ASP A   1      10.531  -0.164  21.062  0.00  0.00    +0.295 HD
ENDBRANCH   5   7
ENDBRANCH   1   5
BRANCH   1   9
ATOM      9  CB  ASP A   1      10.490   0.903  23.640  0.00  0.00    +0.150 C 
BRANCH   9  10
ATOM     10  CG  ASP A   1      10.114   2.178  22.931  0.00  0.00    +0.307 C 
ATOM     11  OD2 ASP A   1       9.711   3.167  23.528  0.00  0.00    -0.251 OA
BRANCH  10  12
ATOM     12  OD1 ASP A   1      10.206   2.162  21.588  0.00  0.00    -0.481 OA
ATOM     13  HD1 ASP A   1      11.021   1.801  21.194  0.00  0.00    +0.295 HD
ENDBRANCH  10  12
ENDBRANCH   9  10
ENDBRANCH   1   9
TORSDOF 6
ENDMDL
MODEL 5
REMARK VINA RESULT:      -3.7      2.013      2.586
REMARK  Name = 
REMARK  6 active torsions:
REMARK  status: ('A' for Active; 'I' for Inactive)
REMARK    1  A    between atoms: N_1  and  CA_2
REMARK    2  A    between atoms: CA_2  and  CB_4
REMARK    3  A    between atoms: CA_2  and  C_8
REMARK    4  A    between atoms: CB_4  and  CG_5
REMARK    5  A    between atoms: CG_5  and  OD1_6
REMARK    6  A    between atoms: C_8  and  O_9
REMARK                            x       y       z     vdW  Elec       q    Type
REMARK                         _______ _______ _______ _____ _____    ______ ____
ROOT
ATOM      1  CA  ASP A   1       7.090  -4.595  26.000  0.00  0.00    +0.171 C 
ENDROOT
BRANCH   1   2
ATOM      2  N   ASP A   1       6.829  -4.949  24.579  0.00  0.00    -0.318 NA
ATOM      3  H1  ASP A   1       6.537  -4.109  24.065  0.00  0.00    +0.119 HD
ATOM      4  H2  ASP A   1       7.720  -5.205  24.133  0.00  0.00    +0.119 HD
ENDBRANCH   1   2
BRANCH   1   5
ATOM      5  C   ASP A   1       6.688  -5.796  26.872  0.00  0.00    +0.322 C 
ATOM      6  OXT ASP A   1       5.687  -6.480  26.721  0.00  0.00    -0.249 OA
BRANCH   5   7
ATOM      7  O   ASP A   1       7.626  -6.046  27.824  0.00  0.00    -0.480 OA
ATOM      8  H   ASP A   1       7.295  -6.808  28.364  0.00  0.00    +0.295 HD
ENDBRANCH   5   7
ENDBRANCH   1   5
BRANCH   1   9
ATOM      9  CB  ASP A   1       8.528  -4.187  26.297  0.00  0.00    +0.150 C 
BRANCH   9  10
ATOM     10  CG  ASP A   1       9.566  -4.732  25.352  0.00  0.00    +0.307 C 
ATOM     11  OD2 ASP A   1      10.053  -4.061  24.453  0.00  0.00    -0.251 OA
BRANCH  10  12
ATOM     12  OD1 ASP A   1       9.907  -6.024  25.522  0.00  0.00    -0.481 OA
ATOM     13  HD1 ASP A   1       9.192  -6.686  25.510  0.00  0.00    +0.295 HD
ENDBRANCH  10  12
ENDBRANCH   9  10
ENDBRANCH   1   9
TORSDOF 6
ENDMDL
MODEL 6
REMARK VINA RESULT:      -3.7      3.869      5.162
REMARK  Name = 
REMARK  6 active torsions:
REMARK  status: ('A' for Active; 'I' for Inactive)
REMARK    1  A    between atoms: N_1  and  CA_2
REMARK    2  A    between atoms: CA_2  and  CB_4
REMARK    3  A    between atoms: CA_2  and  C_8
REMARK    4  A    between atoms: CB_4  and  CG_5
REMARK    5  A    between atoms: CG_5  and  OD1_6
REMARK    6  A    between atoms: C_8  and  O_9
REMARK                            x       y       z     vdW  Elec       q    Type
REMARK                         _______ _______ _______ _____ _____    ______ ____
ROOT
ATOM      1  CA  ASP A   1      10.296  -0.789  22.816  0.00  0.00    +0.171 C 
ENDROOT
BRANCH   1   2
ATOM      2  N   ASP A   1      10.169   0.060  24.031  0.00  0.00    -0.318 NA
ATOM      3  H1  ASP A   1      11.057   0.548  24.201  0.00  0.00    +0.119 HD
ATOM      4  H2  ASP A   1       9.510   0.824  23.832  0.00  0.00    +0.119 HD
ENDBRANCH   1   2
BRANCH   1   5
ATOM      5  C   ASP A   1       9.694  -2.169  23.134  0.00  0.00    +0.322 C 
ATOM      6  OXT ASP A   1      10.172  -2.993  23.899  0.00  0.00    -0.249 OA
BRANCH   5   7
ATOM      7  O   ASP A   1       8.512  -2.348  22.487  0.00  0.00    -0.480 OA
ATOM      8  H   ASP A   1       8.300  -3.315  22.535  0.00  0.00    +0.295 HD
ENDBRANCH   5   7
ENDBRANCH   1   5
BRANCH   1   9
ATOM      9  CB  ASP A   1       9.646  -0.208  21.567  0.00  0.00    +0.150 C 
BRANCH   9  10
ATOM     10  CG  ASP A   1       9.149   1.208  21.692  0.00  0.00    +0.307 C 
ATOM     11  OD2 ASP A   1       7.969   1.478  21.871  0.00  0.00    -0.251 OA
BRANCH  10  12
ATOM     12  OD1 ASP A   1      10.074   2.178  21.555  0.00  0.00    -0.481 OA
ATOM     13  HD1 ASP A   1      10.842   2.159  22.154  0.00  0.00    +0.295 HD
ENDBRANCH  10  12
ENDBRANCH   9  10
ENDBRANCH   1   9
TORSDOF 6
ENDMDL
MODEL 7
REMARK VINA RESULT:      -3.7      3.704      5.722
REMARK  Name = 
REMARK  6 active torsions:
REMARK  status: ('A' for Active; 'I' for Inactive)
REMARK    1  A    between atoms: N_1  and  CA_2
REMARK    2  A    between atoms: CA_2  and  CB_4
REMARK    3  A    between atoms: CA_2  and  C_8
REMARK    4  A    between atoms: CB_4  and  CG_5
REMARK    5  A    between atoms: CG_5  and  OD1_6
REMARK    6  A    between atoms: C_8  and  O_9
REMARK                            x       y       z     vdW  Elec       q    Type
REMARK                         _______ _______ _______ _____ _____    ______ ____
ROOT
ATOM      1  CA  ASP A   1      10.015  -0.047  22.129  0.00  0.00    +0.171 C 
ENDROOT
BRANCH   1   2
ATOM      2  N   ASP A   1       9.659  -1.075  21.114  0.00  0.00    -0.318 NA
ATOM      3  H1  ASP A   1       9.230  -0.618  20.300  0.00  0.00    +0.119 HD
ATOM      4  H2  ASP A   1      10.526  -1.477  20.733  0.00  0.00    +0.119 HD
ENDBRANCH   1   2
BRANCH   1   5
ATOM      5  C   ASP A   1       8.931   1.044  22.101  0.00  0.00    +0.322 C 
ATOM      6  OXT ASP A   1       7.855   0.992  22.676  0.00  0.00    -0.249 OA
BRANCH   5   7
ATOM      7  O   ASP A   1       9.343   2.124  21.385  0.00  0.00    -0.480 OA
ATOM      8  H   ASP A   1       8.876   2.914  21.758  0.00  0.00    +0.295 HD
ENDBRANCH   5   7
ENDBRANCH   1   5
BRANCH   1   9
ATOM      9  CB  ASP A   1      10.182  -0.586  23.544  0.00  0.00    +0.150 C 
BRANCH   9  10
ATOM     10  CG  ASP A   1       9.548  -1.926  23.808  0.00  0.00    +0.307 C 
ATOM     11  OD2 ASP A   1      10.196  -2.963  23.855  0.00  0.00    -0.251 OA
BRANCH  10  12
ATOM     12  OD1 ASP A   1       8.209  -1.933  23.954  0.00  0.00    -0.481 OA
ATOM     13  HD1 ASP A   1       7.750  -2.788  23.876  0.00  0.00    +0.295 HD
ENDBRANCH  10  12
ENDBRANCH   9  10
ENDBRANCH   1   9
TORSDOF 6
ENDMDL
MODEL 8
REMARK VINA RESULT:      -3.7      3.599      4.858
REMARK  Name = 
REMARK  6 active torsions:
REMARK  status: ('A' for Active; 'I' for Inactive)
REMARK    1  A    between atoms: N_1  and  CA_2
REMARK    2  A    between atoms: CA_2  and  CB_4
REMARK    3  A    between atoms: CA_2  and  C_8
REMARK    4  A    between atoms: CB_4  and  CG_5
REMARK    5  A    between atoms: CG_5  and  OD1_6
REMARK    6  A    between atoms: C_8  and  O_9
REMARK                            x       y       z     vdW  Elec       q    Type
REMARK                         _______ _______ _______ _____ _____    ______ ____
ROOT
ATOM      1  CA  ASP A   1       9.103  -1.209  22.533  0.00  0.00    +0.171 C 
ENDROOT
BRANCH   1   2
ATOM      2  N   ASP A   1      10.098  -1.367  21.438  0.00  0.00    -0.318 NA
ATOM      3  H1  ASP A   1      11.029  -1.528  21.842  0.00  0.00    +0.119 HD
ATOM      4  H2  ASP A   1       9.900  -2.242  20.935  0.00  0.00    +0.119 HD
ENDBRANCH   1   2
BRANCH   1   5
ATOM      5  C   ASP A   1       9.670  -1.885  23.792  0.00  0.00    +0.322 C 
ATOM      6  OXT ASP A   1      10.210  -2.980  23.829  0.00  0.00    -0.249 OA
BRANCH   5   7
ATOM      7  O   ASP A   1       9.542  -1.079  24.880  0.00  0.00    -0.480 OA
ATOM      8  H   ASP A   1       9.467  -0.150  24.544  0.00  0.00    +0.295 HD
ENDBRANCH   5   7
ENDBRANCH   1   5
BRANCH   1   9
ATOM      9  CB  ASP A   1       8.720   0.234  22.837  0.00  0.00    +0.150 C 
BRANCH   9  10
ATOM     10  CG  ASP A   1       9.811   1.252  22.634  0.00  0.00    +0.307 C 
ATOM     11  OD2 ASP A   1      10.610   1.543  23.514  0.00  0.00    -0.251 OA
BRANCH  10  12
ATOM     12  OD1 ASP A   1       9.840   1.864  21.435  0.00  0.00    -0.481 OA
ATOM     13  HD1 ASP A   1       9.656   2.820  21.410  0.00  0.00    +0.295 HD
ENDBRANCH  10  12
ENDBRANCH   9  10
ENDBRANCH   1   9
TORSDOF 6
ENDMDL
MODEL 9
REMARK VINA RESULT:      -3.6      4.687      6.340
REMARK  Name = 
REMARK  6 active torsions:
REMARK  status: ('A' for Active; 'I' for Inactive)
REMARK    1  A    between atoms: N_1  and  CA_2
REMARK    2  A    between atoms: CA_2  and  CB_4
REMARK    3  A    between atoms: CA_2  and  C_8
REMARK    4  A    between atoms: CB_4  and  CG_5
REMARK    5  A    between atoms: CG_5  and  OD1_6
REMARK    6  A    between atoms: C_8  and  O_9
REMARK                            x       y       z     vdW  Elec       q    Type
REMARK                         _______ _______ _______ _____ _____    ______ ____
ROOT
ATOM      1  CA  ASP A   1      10.084   1.167  22.472  0.00  0.00    +0.171 C 
ENDROOT
BRANCH   1   2
ATOM      2  N   ASP A   1       9.389   1.994  21.450  0.00  0.00    -0.318 NA
ATOM      3  H1  ASP A   1       9.819   1.835  20.531  0.00  0.00    +0.119 HD
ATOM      4  H2  ASP A   1       8.432   1.637  21.331  0.00  0.00    +0.119 HD
ENDBRANCH   1   2
BRANCH   1   5
ATOM      5  C   ASP A   1      10.467   2.083  23.647  0.00  0.00    +0.322 C 
ATOM      6  OXT ASP A   1      11.032   3.162  23.552  0.00  0.00    -0.249 OA
BRANCH   5   7
ATOM      7  O   ASP A   1      10.045   1.562  24.830  0.00  0.00    -0.480 OA
ATOM      8  H   ASP A   1       9.400   0.842  24.616  0.00  0.00    +0.295 HD
ENDBRANCH   5   7
ENDBRANCH   1   5
BRANCH   1   9
ATOM      9  CB  ASP A   1       9.280  -0.026  22.975  0.00  0.00    +0.150 C 
BRANCH   9  10
ATOM     10  CG  ASP A   1       9.883  -1.378  22.703  0.00  0.00    +0.307 C 
ATOM     11  OD2 ASP A   1      10.097  -2.193  23.590  0.00  0.00    -0.251 OA
BRANCH  10  12
ATOM     12  OD1 ASP A   1      10.217  -1.635  21.423  0.00  0.00    -0.481 OA
ATOM     13  HD1 ASP A   1      10.522  -0.888  20.877  0.00  0.00    +0.295 HD
ENDBRANCH  10  12
ENDBRANCH   9  10
ENDBRANCH   1   9
TORSDOF 6
ENDMDL
