MODEL 1
REMARK VINA RESULT:      -6.8      0.000      0.000
REMARK  Name = 
REMARK  14 active torsions:
REMARK  status: ('A' for Active; 'I' for Inactive)
REMARK    1  A    between atoms: C_1  and  O_2
REMARK    2  A    between atoms: O_2  and  C_3
REMARK    3  A    between atoms: C_5  and  N_6
REMARK    4  A    between atoms: C_7  and  O_8
REMARK    5  A    between atoms: O_8  and  C_9
REMARK    6  A    between atoms: C_10  and  C_11
REMARK    7  A    between atoms: C_11  and  C_12
REMARK    8  A    between atoms: C_12  and  O_13
REMARK    9  A    between atoms: O_13  and  C_14
REMARK   10  A    between atoms: C_14  and  C_16
REMARK   11  A    between atoms: C_17  and  O_18
REMARK   12  A    between atoms: C_20  and  O_21
REMARK   13  A    between atoms: C_25  and  O_26
REMARK   14  A    between atoms: O_26  and  C_27
REMARK                            x       y       z     vdW  Elec       q    Type
REMARK                         _______ _______ _______ _____ _____    ______ ____
ROOT
ATOM      1  C   UNL     1       8.293  -4.478  25.639  0.00  0.00    +0.084 C 
ENDROOT
BRANCH   1   4
ATOM      2  C   UNL     1       5.571  -5.461  23.151  0.00  0.00    +0.164 A 
ATOM      3  C   UNL     1       6.708  -4.888  23.734  0.00  0.00    +0.168 A 
ATOM      4  C   UNL     1       7.006  -5.129  25.114  0.00  0.00    +0.044 A 
ATOM      5  C   UNL     1       6.131  -5.941  25.898  0.00  0.00    +0.148 A 
ATOM      6  C   UNL     1       4.951  -6.456  25.316  0.00  0.00    +0.071 A 
ATOM      7  C   UNL     1       4.726  -6.232  23.950  0.00  0.00    +0.075 A 
BRANCH   6   8
ATOM      8  N   UNL     1       4.054  -7.364  25.919  0.00  0.00    -0.355 N 
ATOM      9  H   UNL     1       3.079  -7.188  25.732  0.00  0.00    +0.142 HD
ATOM     10  H   UNL     1       4.263  -8.335  25.711  0.00  0.00    +0.142 HD
ENDBRANCH   6   8
BRANCH   2  12
ATOM     11  C   UNL     1       6.048  -5.954  20.869  0.00  0.00    +0.277 C 
ATOM     12  O   UNL     1       5.286  -5.230  21.831  0.00  0.00    -0.491 OA
ENDBRANCH   2  12
BRANCH   3  13
ATOM     13  O   UNL     1       7.643  -4.102  23.093  0.00  0.00    -0.491 OA
ATOM     14  C   UNL     1       7.236  -2.919  22.422  0.00  0.00    +0.277 C 
ENDBRANCH   3  13
BRANCH   5  15
ATOM     15  O   UNL     1       6.566  -6.153  27.177  0.00  0.00    -0.493 OA
ATOM     16  C   UNL     1       5.951  -5.543  28.293  0.00  0.00    +0.277 C 
ENDBRANCH   5  15
ENDBRANCH   1   4
BRANCH   1  17
ATOM     17  C   UNL     1       8.261  -3.219  26.510  0.00  0.00    +0.237 C 
BRANCH  17  18
ATOM     18  O   UNL     1       8.111  -2.037  25.690  0.00  0.00    -0.461 OA
BRANCH  18  19
ATOM     19  C   UNL     1       8.831  -0.953  26.073  0.00  0.00    +0.343 C 
ATOM     20  O   UNL     1       9.165  -0.666  27.211  0.00  0.00    -0.245 OA
BRANCH  19  21
ATOM     21  C   UNL     1       9.206  -0.110  24.910  0.00  0.00    +0.102 A 
ATOM     22  C   UNL     1       8.946   1.268  24.890  0.00  0.00    +0.042 A 
ATOM     23  C   UNL     1       9.304   2.031  23.776  0.00  0.00    +0.083 A 
ATOM     24 CL   UNL     1       8.964   3.723  23.798  0.00  0.00    -0.080 Cl
ATOM     25  C   UNL     1       9.920   1.426  22.676  0.00  0.00    +0.139 A 
ATOM     26  C   UNL     1      10.180   0.057  22.684  0.00  0.00    +0.093 A 
ATOM     27  C   UNL     1       9.824  -0.705  23.797  0.00  0.00    +0.134 A 
BRANCH  25  28
ATOM     28  O   UNL     1      10.269   2.179  21.588  0.00  0.00    -0.505 OA
ATOM     29  H   UNL     1      11.112   2.629  21.763  0.00  0.00    +0.292 HD
ENDBRANCH  25  28
BRANCH  27  30
ATOM     30  O   UNL     1      10.118  -2.042  23.719  0.00  0.00    -0.506 OA
ATOM     31  H   UNL     1      10.785  -2.262  24.407  0.00  0.00    +0.292 HD
ENDBRANCH  27  30
ENDBRANCH  19  21
ENDBRANCH  18  19
ENDBRANCH  17  18
ENDBRANCH   1  17
TORSDOF 11
ENDMDL
MODEL 2
REMARK VINA RESULT:      -6.7      1.479      2.311
REMARK  Name = 
REMARK  14 active torsions:
REMARK  status: ('A' for Active; 'I' for Inactive)
REMARK    1  A    between atoms: C_1  and  O_2
REMARK    2  A    between atoms: O_2  and  C_3
REMARK    3  A    between atoms: C_5  and  N_6
REMARK    4  A    between atoms: C_7  and  O_8
REMARK    5  A    between atoms: O_8  and  C_9
REMARK    6  A    between atoms: C_10  and  C_11
REMARK    7  A    between atoms: C_11  and  C_12
REMARK    8  A    between atoms: C_12  and  O_13
REMARK    9  A    between atoms: O_13  and  C_14
REMARK   10  A    between atoms: C_14  and  C_16
REMARK   11  A    between atoms: C_17  and  O_18
REMARK   12  A    between atoms: C_20  and  O_21
REMARK   13  A    between atoms: C_25  and  O_26
REMARK   14  A    between atoms: O_26  and  C_27
REMARK                            x       y       z     vdW  Elec       q    Type
REMARK                         _______ _______ _______ _____ _____    ______ ____
ROOT
ATOM      1  C   UNL     1       7.510  -4.349  23.531  0.00  0.00    +0.084 C 
ENDROOT
BRANCH   1   4
ATOM      2  C   UNL     1       4.149  -6.157  23.506  0.00  0.00    +0.164 A 
ATOM      3  C   UNL     1       5.261  -5.394  23.129  0.00  0.00    +0.168 A 
ATOM      4  C   UNL     1       6.327  -5.173  24.060  0.00  0.00    +0.044 A 
ATOM      5  C   UNL     1       6.245  -5.719  25.377  0.00  0.00    +0.148 A 
ATOM      6  C   UNL     1       5.086  -6.428  25.766  0.00  0.00    +0.071 A 
ATOM      7  C   UNL     1       4.090  -6.659  24.806  0.00  0.00    +0.075 A 
BRANCH   6   8
ATOM      8  N   UNL     1       4.906  -7.123  26.981  0.00  0.00    -0.355 N 
ATOM      9  H   UNL     1       5.528  -7.904  27.122  0.00  0.00    +0.142 HD
ATOM     10  H   UNL     1       4.935  -6.522  27.798  0.00  0.00    +0.142 HD
ENDBRANCH   6   8
BRANCH   2  12
ATOM     11  C   UNL     1       1.833  -5.918  22.999  0.00  0.00    +0.277 C 
ATOM     12  O   UNL     1       3.128  -6.369  22.616  0.00  0.00    -0.491 OA
ENDBRANCH   2  12
BRANCH   3  13
ATOM     13  O   UNL     1       5.477  -4.826  21.892  0.00  0.00    -0.491 OA
ATOM     14  C   UNL     1       6.074  -5.590  20.854  0.00  0.00    +0.277 C 
ENDBRANCH   3  13
BRANCH   5  15
ATOM     15  O   UNL     1       7.358  -5.498  26.140  0.00  0.00    -0.493 OA
ATOM     16  C   UNL     1       7.408  -4.485  27.124  0.00  0.00    +0.277 C 
ENDBRANCH   5  15
ENDBRANCH   1   4
BRANCH   1  17
ATOM     17  C   UNL     1       7.572  -2.830  23.701  0.00  0.00    +0.237 C 
BRANCH  17  18
ATOM     18  O   UNL     1       8.816  -2.438  24.329  0.00  0.00    -0.461 OA
BRANCH  18  19
ATOM     19  C   UNL     1       9.746  -1.886  23.510  0.00  0.00    +0.343 C 
ATOM     20  O   UNL     1      10.740  -2.435  23.063  0.00  0.00    -0.245 OA
BRANCH  19  21
ATOM     21  C   UNL     1       9.413  -0.477  23.180  0.00  0.00    +0.102 A 
ATOM     22  C   UNL     1       9.180   0.474  24.185  0.00  0.00    +0.042 A 
ATOM     23  C   UNL     1       8.860   1.789  23.840  0.00  0.00    +0.083 A 
ATOM     24 CL   UNL     1       8.581   2.924  25.110  0.00  0.00    -0.080 Cl
ATOM     25  C   UNL     1       8.768   2.163  22.496  0.00  0.00    +0.139 A 
ATOM     26  C   UNL     1       8.994   1.225  21.491  0.00  0.00    +0.093 A 
ATOM     27  C   UNL     1       9.316  -0.088  21.834  0.00  0.00    +0.134 A 
BRANCH  25  28
ATOM     28  O   UNL     1       8.455   3.454  22.165  0.00  0.00    -0.505 OA
ATOM     29  H   UNL     1       8.670   3.610  21.231  0.00  0.00    +0.292 HD
ENDBRANCH  25  28
BRANCH  27  30
ATOM     30  O   UNL     1       9.523  -0.942  20.782  0.00  0.00    -0.506 OA
ATOM     31  H   UNL     1       8.653  -1.188  20.395  0.00  0.00    +0.292 HD
ENDBRANCH  27  30
ENDBRANCH  19  21
ENDBRANCH  18  19
ENDBRANCH  17  18
ENDBRANCH   1  17
TORSDOF 11
ENDMDL
MODEL 3
REMARK VINA RESULT:      -6.6      1.516      3.282
REMARK  Name = 
REMARK  14 active torsions:
REMARK  status: ('A' for Active; 'I' for Inactive)
REMARK    1  A    between atoms: C_1  and  O_2
REMARK    2  A    between atoms: O_2  and  C_3
REMARK    3  A    between atoms: C_5  and  N_6
REMARK    4  A    between atoms: C_7  and  O_8
REMARK    5  A    between atoms: O_8  and  C_9
REMARK    6  A    between atoms: C_10  and  C_11
REMARK    7  A    between atoms: C_11  and  C_12
REMARK    8  A    between atoms: C_12  and  O_13
REMARK    9  A    between atoms: O_13  and  C_14
REMARK   10  A    between atoms: C_14  and  C_16
REMARK   11  A    between atoms: C_17  and  O_18
REMARK   12  A    between atoms: C_20  and  O_21
REMARK   13  A    between atoms: C_25  and  O_26
REMARK   14  A    between atoms: O_26  and  C_27
REMARK                            x       y       z     vdW  Elec       q    Type
REMARK                         _______ _______ _______ _____ _____    ______ ____
ROOT
ATOM      1  C   UNL     1       6.993  -3.294  25.647  0.00  0.00    +0.084 C 
ENDROOT
BRANCH   1   4
ATOM      2  C   UNL     1       4.853  -6.438  25.326  0.00  0.00    +0.164 A 
ATOM      3  C   UNL     1       5.548  -5.339  25.847  0.00  0.00    +0.168 A 
ATOM      4  C   UNL     1       6.298  -4.486  24.974  0.00  0.00    +0.044 A 
ATOM      5  C   UNL     1       6.349  -4.769  23.576  0.00  0.00    +0.148 A 
ATOM      6  C   UNL     1       5.702  -5.921  23.074  0.00  0.00    +0.071 A 
ATOM      7  C   UNL     1       4.941  -6.699  23.958  0.00  0.00    +0.075 A 
BRANCH   6   8
ATOM      8  N   UNL     1       5.562  -6.270  21.713  0.00  0.00    -0.355 N 
ATOM      9  H   UNL     1       6.208  -5.815  21.087  0.00  0.00    +0.142 HD
ATOM     10  H   UNL     1       5.589  -7.271  21.549  0.00  0.00    +0.142 HD
ENDBRANCH   6   8
BRANCH   2  12
ATOM     11  C   UNL     1       2.759  -6.941  26.345  0.00  0.00    +0.277 C 
ATOM     12  O   UNL     1       4.136  -7.255  26.161  0.00  0.00    -0.491 OA
ENDBRANCH   2  12
BRANCH   3  13
ATOM     13  O   UNL     1       5.570  -4.941  27.167  0.00  0.00    -0.491 OA
ATOM     14  C   UNL     1       6.270  -5.714  28.130  0.00  0.00    +0.277 C 
ENDBRANCH   3  13
BRANCH   5  15
ATOM     15  O   UNL     1       7.036  -3.840  22.845  0.00  0.00    -0.493 OA
ATOM     16  C   UNL     1       6.389  -2.775  22.178  0.00  0.00    +0.277 C 
ENDBRANCH   5  15
ENDBRANCH   1   4
BRANCH   1  17
ATOM     17  C   UNL     1       8.477  -3.332  26.017  0.00  0.00    +0.237 C 
BRANCH  17  18
ATOM     18  O   UNL     1       9.137  -2.113  25.601  0.00  0.00    -0.461 OA
BRANCH  18  19
ATOM     19  C   UNL     1       9.668  -2.122  24.354  0.00  0.00    +0.343 C 
ATOM     20  O   UNL     1      10.222  -3.060  23.804  0.00  0.00    -0.245 OA
BRANCH  19  21
ATOM     21  C   UNL     1       9.489  -0.812  23.677  0.00  0.00    +0.102 A 
ATOM     22  C   UNL     1       9.200   0.353  24.404  0.00  0.00    +0.042 A 
ATOM     23  C   UNL     1       9.028   1.567  23.735  0.00  0.00    +0.083 A 
ATOM     24 CL   UNL     1       8.674   2.975  24.671  0.00  0.00    -0.080 Cl
ATOM     25  C   UNL     1       9.141   1.628  22.343  0.00  0.00    +0.139 A 
ATOM     26  C   UNL     1       9.424   0.476  21.612  0.00  0.00    +0.093 A 
ATOM     27  C   UNL     1       9.597  -0.737  22.279  0.00  0.00    +0.134 A 
BRANCH  25  28
ATOM     28  O   UNL     1       8.972   2.822  21.695  0.00  0.00    -0.505 OA
ATOM     29  H   UNL     1       8.679   2.656  20.783  0.00  0.00    +0.292 HD
ENDBRANCH  25  28
BRANCH  27  30
ATOM     30  O   UNL     1       9.874  -1.817  21.481  0.00  0.00    -0.506 OA
ATOM     31  H   UNL     1      10.586  -1.572  20.848  0.00  0.00    +0.292 HD
ENDBRANCH  27  30
ENDBRANCH  19  21
ENDBRANCH  18  19
ENDBRANCH  17  18
ENDBRANCH   1  17
TORSDOF 11
ENDMDL
MODEL 4
REMARK VINA RESULT:      -6.5      3.562      7.768
REMARK  Name = 
REMARK  14 active torsions:
REMARK  status: ('A' for Active; 'I' for Inactive)
REMARK    1  A    between atoms: C_1  and  O_2
REMARK    2  A    between atoms: O_2  and  C_3
REMARK    3  A    between atoms: C_5  and  N_6
REMARK    4  A    between atoms: C_7  and  O_8
REMARK    5  A    between atoms: O_8  and  C_9
REMARK    6  A    between atoms: C_10  and  C_11
REMARK    7  A    between atoms: C_11  and  C_12
REMARK    8  A    between atoms: C_12  and  O_13
REMARK    9  A    between atoms: O_13  and  C_14
REMARK   10  A    between atoms: C_14  and  C_16
REMARK   11  A    between atoms: C_17  and  O_18
REMARK   12  A    between atoms: C_20  and  O_21
REMARK   13  A    between atoms: C_25  and  O_26
REMARK   14  A    between atoms: O_26  and  C_27
REMARK                            x       y       z     vdW  Elec       q    Type
REMARK                         _______ _______ _______ _____ _____    ______ ____
ROOT
ATOM      1  C   UNL     1       9.062  -0.796  25.599  0.00  0.00    +0.084 C 
ENDROOT
BRANCH   1   4
ATOM      2  C   UNL     1       8.141   2.773  24.609  0.00  0.00    +0.164 A 
ATOM      3  C   UNL     1       8.224   1.552  25.290  0.00  0.00    +0.168 A 
ATOM      4  C   UNL     1       9.017   0.485  24.755  0.00  0.00    +0.044 A 
ATOM      5  C   UNL     1       9.708   0.666  23.519  0.00  0.00    +0.148 A 
ATOM      6  C   UNL     1       9.560   1.877  22.807  0.00  0.00    +0.071 A 
ATOM      7  C   UNL     1       8.812   2.909  23.394  0.00  0.00    +0.075 A 
BRANCH   6   8
ATOM      8  N   UNL     1      10.265   2.250  21.643  0.00  0.00    -0.355 N 
ATOM      9  H   UNL     1      10.903   1.554  21.289  0.00  0.00    +0.142 HD
ATOM     10  H   UNL     1       9.662   2.562  20.889  0.00  0.00    +0.142 HD
ENDBRANCH   6   8
BRANCH   2  12
ATOM     11  C   UNL     1       8.079   4.857  25.763  0.00  0.00    +0.277 C 
ATOM     12  O   UNL     1       7.383   3.794  25.121  0.00  0.00    -0.491 OA
ENDBRANCH   2  12
BRANCH   3  13
ATOM     13  O   UNL     1       7.626   1.249  26.495  0.00  0.00    -0.491 OA
ATOM     14  C   UNL     1       6.217   1.096  26.569  0.00  0.00    +0.277 C 
ENDBRANCH   3  13
BRANCH   5  15
ATOM     15  O   UNL     1      10.486  -0.400  23.157  0.00  0.00    -0.493 OA
ATOM     16  C   UNL     1      10.062  -1.354  22.204  0.00  0.00    +0.277 C 
ENDBRANCH   5  15
ENDBRANCH   1   4
BRANCH   1  17
ATOM     17  C   UNL     1       8.111  -1.967  25.337  0.00  0.00    +0.237 C 
BRANCH  17  18
ATOM     18  O   UNL     1       8.637  -3.188  25.907  0.00  0.00    -0.461 OA
BRANCH  18  19
ATOM     19  C   UNL     1       8.944  -4.171  25.026  0.00  0.00    +0.343 C 
ATOM     20  O   UNL     1      10.062  -4.533  24.698  0.00  0.00    -0.245 OA
BRANCH  19  21
ATOM     21  C   UNL     1       7.721  -4.811  24.478  0.00  0.00    +0.102 A 
ATOM     22  C   UNL     1       7.529  -4.959  23.096  0.00  0.00    +0.042 A 
ATOM     23  C   UNL     1       6.364  -5.557  22.613  0.00  0.00    +0.083 A 
ATOM     24 CL   UNL     1       6.171  -5.718  20.905  0.00  0.00    -0.080 Cl
ATOM     25  C   UNL     1       5.383  -6.010  23.502  0.00  0.00    +0.139 A 
ATOM     26  C   UNL     1       5.562  -5.864  24.876  0.00  0.00    +0.093 A 
ATOM     27  C   UNL     1       6.727  -5.268  25.359  0.00  0.00    +0.134 A 
BRANCH  25  28
ATOM     28  O   UNL     1       4.243  -6.596  23.022  0.00  0.00    -0.505 OA
ATOM     29  H   UNL     1       3.949  -6.125  22.224  0.00  0.00    +0.292 HD
ENDBRANCH  25  28
BRANCH  27  30
ATOM     30  O   UNL     1       6.820  -5.168  26.723  0.00  0.00    -0.506 OA
ATOM     31  H   UNL     1       6.927  -4.221  26.967  0.00  0.00    +0.292 HD
ENDBRANCH  27  30
ENDBRANCH  19  21
ENDBRANCH  18  19
ENDBRANCH  17  18
ENDBRANCH   1  17
TORSDOF 11
ENDMDL
MODEL 5
REMARK VINA RESULT:      -6.4      3.120      6.863
REMARK  Name = 
REMARK  14 active torsions:
REMARK  status: ('A' for Active; 'I' for Inactive)
REMARK    1  A    between atoms: C_1  and  O_2
REMARK    2  A    between atoms: O_2  and  C_3
REMARK    3  A    between atoms: C_5  and  N_6
REMARK    4  A    between atoms: C_7  and  O_8
REMARK    5  A    between atoms: O_8  and  C_9
REMARK    6  A    between atoms: C_10  and  C_11
REMARK    7  A    between atoms: C_11  and  C_12
REMARK    8  A    between atoms: C_12  and  O_13
REMARK    9  A    between atoms: O_13  and  C_14
REMARK   10  A    between atoms: C_14  and  C_16
REMARK   11  A    between atoms: C_17  and  O_18
REMARK   12  A    between atoms: C_20  and  O_21
REMARK   13  A    between atoms: C_25  and  O_26
REMARK   14  A    between atoms: O_26  and  C_27
REMARK                            x       y       z     vdW  Elec       q    Type
REMARK                         _______ _______ _______ _____ _____    ______ ____
ROOT
ATOM      1  C   UNL     1       6.711  -1.370  23.006  0.00  0.00    +0.084 C 
ENDROOT
BRANCH   1   4
ATOM      2  C   UNL     1       9.764   0.688  24.014  0.00  0.00    +0.164 A 
ATOM      3  C   UNL     1       8.741   0.086  23.269  0.00  0.00    +0.168 A 
ATOM      4  C   UNL     1       7.810  -0.792  23.911  0.00  0.00    +0.044 A 
ATOM      5  C   UNL     1       7.936  -1.065  25.306  0.00  0.00    +0.148 A 
ATOM      6  C   UNL     1       9.013  -0.508  26.031  0.00  0.00    +0.071 A 
ATOM      7  C   UNL     1       9.872   0.383  25.371  0.00  0.00    +0.075 A 
BRANCH   6   8
ATOM      8  N   UNL     1       9.206  -0.586  27.427  0.00  0.00    -0.355 N 
ATOM      9  H   UNL     1       8.697  -1.325  27.887  0.00  0.00    +0.142 HD
ATOM     10  H   UNL     1      10.183  -0.637  27.696  0.00  0.00    +0.142 HD
ENDBRANCH   6   8
BRANCH   2  12
ATOM     11  C   UNL     1      10.513   2.922  23.658  0.00  0.00    +0.277 C 
ATOM     12  O   UNL     1      10.656   1.528  23.400  0.00  0.00    -0.491 OA
ENDBRANCH   2  12
BRANCH   3  13
ATOM     13  O   UNL     1       8.494   0.275  21.926  0.00  0.00    -0.491 OA
ATOM     14  C   UNL     1       8.013   1.528  21.462  0.00  0.00    +0.277 C 
ENDBRANCH   3  13
BRANCH   5  15
ATOM     15  O   UNL     1       6.942  -1.859  25.810  0.00  0.00    -0.493 OA
ATOM     16  C   UNL     1       5.880  -1.339  26.583  0.00  0.00    +0.277 C 
ENDBRANCH   5  15
ENDBRANCH   1   4
BRANCH   1  17
ATOM     17  C   UNL     1       6.980  -2.546  22.065  0.00  0.00    +0.237 C 
BRANCH  17  18
ATOM     18  O   UNL     1       7.960  -3.444  22.639  0.00  0.00    -0.461 OA
BRANCH  18  19
ATOM     19  C   UNL     1       7.537  -4.709  22.879  0.00  0.00    +0.343 C 
ATOM     20  O   UNL     1       7.331  -5.579  22.049  0.00  0.00    -0.245 OA
BRANCH  19  21
ATOM     21  C   UNL     1       7.353  -4.954  24.332  0.00  0.00    +0.102 A 
ATOM     22  C   UNL     1       6.091  -5.246  24.871  0.00  0.00    +0.042 A 
ATOM     23  C   UNL     1       5.950  -5.462  26.243  0.00  0.00    +0.083 A 
ATOM     24 CL   UNL     1       4.378  -5.817  26.861  0.00  0.00    -0.080 Cl
ATOM     25  C   UNL     1       7.064  -5.387  27.087  0.00  0.00    +0.139 A 
ATOM     26  C   UNL     1       8.321  -5.095  26.562  0.00  0.00    +0.093 A 
ATOM     27  C   UNL     1       8.462  -4.880  25.191  0.00  0.00    +0.134 A 
BRANCH  25  28
ATOM     28  O   UNL     1       6.919  -5.601  28.431  0.00  0.00    -0.505 OA
ATOM     29  H   UNL     1       6.228  -5.013  28.779  0.00  0.00    +0.292 HD
ENDBRANCH  25  28
BRANCH  27  30
ATOM     30  O   UNL     1       9.735  -4.601  24.763  0.00  0.00    -0.506 OA
ATOM     31  H   UNL     1       9.746  -3.702  24.363  0.00  0.00    +0.292 HD
ENDBRANCH  27  30
ENDBRANCH  19  21
ENDBRANCH  18  19
ENDBRANCH  17  18
ENDBRANCH   1  17
TORSDOF 11
ENDMDL
MODEL 6
REMARK VINA RESULT:      -6.1      1.043      1.401
REMARK  Name = 
REMARK  14 active torsions:
REMARK  status: ('A' for Active; 'I' for Inactive)
REMARK    1  A    between atoms: C_1  and  O_2
REMARK    2  A    between atoms: O_2  and  C_3
REMARK    3  A    between atoms: C_5  and  N_6
REMARK    4  A    between atoms: C_7  and  O_8
REMARK    5  A    between atoms: O_8  and  C_9
REMARK    6  A    between atoms: C_10  and  C_11
REMARK    7  A    between atoms: C_11  and  C_12
REMARK    8  A    between atoms: C_12  and  O_13
REMARK    9  A    between atoms: O_13  and  C_14
REMARK   10  A    between atoms: C_14  and  C_16
REMARK   11  A    between atoms: C_17  and  O_18
REMARK   12  A    between atoms: C_20  and  O_21
REMARK   13  A    between atoms: C_25  and  O_26
REMARK   14  A    between atoms: O_26  and  C_27
REMARK                            x       y       z     vdW  Elec       q    Type
REMARK                         _______ _______ _______ _____ _____    ______ ____
ROOT
ATOM      1  C   UNL     1       8.200  -4.379  25.726  0.00  0.00    +0.084 C 
ENDROOT
BRANCH   1   4
ATOM      2  C   UNL     1       5.594  -5.475  23.162  0.00  0.00    +0.164 A 
ATOM      3  C   UNL     1       6.694  -4.861  23.774  0.00  0.00    +0.168 A 
ATOM      4  C   UNL     1       6.950  -5.074  25.167  0.00  0.00    +0.044 A 
ATOM      5  C   UNL     1       6.071  -5.898  25.933  0.00  0.00    +0.148 A 
ATOM      6  C   UNL     1       4.926  -6.454  25.320  0.00  0.00    +0.071 A 
ATOM      7  C   UNL     1       4.743  -6.257  23.943  0.00  0.00    +0.075 A 
BRANCH   6   8
ATOM      8  N   UNL     1       4.034  -7.379  25.905  0.00  0.00    -0.355 N 
ATOM      9  H   UNL     1       4.124  -8.326  25.573  0.00  0.00    +0.142 HD
ATOM     10  H   UNL     1       4.061  -7.377  26.920  0.00  0.00    +0.142 HD
ENDBRANCH   6   8
BRANCH   2  12
ATOM     11  C   UNL     1       6.152  -6.000  20.906  0.00  0.00    +0.277 C 
ATOM     12  O   UNL     1       5.348  -5.271  21.829  0.00  0.00    -0.491 OA
ENDBRANCH   2  12
BRANCH   3  13
ATOM     13  O   UNL     1       7.628  -4.059  23.153  0.00  0.00    -0.491 OA
ATOM     14  C   UNL     1       7.245  -2.795  22.633  0.00  0.00    +0.277 C 
ENDBRANCH   3  13
BRANCH   5  15
ATOM     15  O   UNL     1       6.467  -6.079  27.229  0.00  0.00    -0.493 OA
ATOM     16  C   UNL     1       5.852  -5.403  28.307  0.00  0.00    +0.277 C 
ENDBRANCH   5  15
ENDBRANCH   1   4
BRANCH   1  17
ATOM     17  C   UNL     1       8.119  -3.023  26.432  0.00  0.00    +0.237 C 
BRANCH  17  18
ATOM     18  O   UNL     1       8.660  -1.978  25.591  0.00  0.00    -0.461 OA
BRANCH  18  19
ATOM     19  C   UNL     1       8.682  -0.734  26.130  0.00  0.00    +0.343 C 
ATOM     20  O   UNL     1       8.748  -0.455  27.316  0.00  0.00    -0.245 OA
BRANCH  19  21
ATOM     21  C   UNL     1       8.628   0.315  25.080  0.00  0.00    +0.102 A 
ATOM     22  C   UNL     1       9.751   1.095  24.766  0.00  0.00    +0.042 A 
ATOM     23  C   UNL     1       9.664   2.079  23.780  0.00  0.00    +0.083 A 
ATOM     24 CL   UNL     1      11.073   3.014  23.428  0.00  0.00    -0.080 Cl
ATOM     25  C   UNL     1       8.460   2.294  23.101  0.00  0.00    +0.139 A 
ATOM     26  C   UNL     1       7.338   1.527  23.408  0.00  0.00    +0.093 A 
ATOM     27  C   UNL     1       7.424   0.542  24.392  0.00  0.00    +0.134 A 
BRANCH  25  28
ATOM     28  O   UNL     1       8.382   3.259  22.135  0.00  0.00    -0.505 OA
ATOM     29  H   UNL     1       7.536   3.180  21.665  0.00  0.00    +0.292 HD
ENDBRANCH  25  28
BRANCH  27  30
ATOM     30  O   UNL     1       6.273  -0.164  24.626  0.00  0.00    -0.506 OA
ATOM     31  H   UNL     1       5.636   0.413  25.105  0.00  0.00    +0.292 HD
ENDBRANCH  27  30
ENDBRANCH  19  21
ENDBRANCH  18  19
ENDBRANCH  17  18
ENDBRANCH   1  17
TORSDOF 11
ENDMDL
MODEL 7
REMARK VINA RESULT:      -6.1      1.569      3.437
REMARK  Name = 
REMARK  14 active torsions:
REMARK  status: ('A' for Active; 'I' for Inactive)
REMARK    1  A    between atoms: C_1  and  O_2
REMARK    2  A    between atoms: O_2  and  C_3
REMARK    3  A    between atoms: C_5  and  N_6
REMARK    4  A    between atoms: C_7  and  O_8
REMARK    5  A    between atoms: O_8  and  C_9
REMARK    6  A    between atoms: C_10  and  C_11
REMARK    7  A    between atoms: C_11  and  C_12
REMARK    8  A    between atoms: C_12  and  O_13
REMARK    9  A    between atoms: O_13  and  C_14
REMARK   10  A    between atoms: C_14  and  C_16
REMARK   11  A    between atoms: C_17  and  O_18
REMARK   12  A    between atoms: C_20  and  O_21
REMARK   13  A    between atoms: C_25  and  O_26
REMARK   14  A    between atoms: O_26  and  C_27
REMARK                            x       y       z     vdW  Elec       q    Type
REMARK                         _______ _______ _______ _____ _____    ______ ____
ROOT
ATOM      1  C   UNL     1       7.831  -4.075  23.070  0.00  0.00    +0.084 C 
ENDROOT
BRANCH   1   4
ATOM      2  C   UNL     1       5.921  -5.917  25.814  0.00  0.00    +0.164 A 
ATOM      3  C   UNL     1       6.885  -5.173  25.122  0.00  0.00    +0.168 A 
ATOM      4  C   UNL     1       6.732  -4.929  23.719  0.00  0.00    +0.044 A 
ATOM      5  C   UNL     1       5.604  -5.460  23.025  0.00  0.00    +0.148 A 
ATOM      6  C   UNL     1       4.675  -6.269  23.719  0.00  0.00    +0.071 A 
ATOM      7  C   UNL     1       4.841  -6.440  25.101  0.00  0.00    +0.075 A 
BRANCH   6   8
ATOM      8  N   UNL     1       3.457  -6.765  23.207  0.00  0.00    -0.355 N 
ATOM      9  H   UNL     1       3.350  -7.766  23.256  0.00  0.00    +0.142 HD
ATOM     10  H   UNL     1       2.640  -6.322  23.612  0.00  0.00    +0.142 HD
ENDBRANCH   6   8
BRANCH   2  12
ATOM     11  C   UNL     1       5.000  -6.827  27.814  0.00  0.00    +0.277 C 
ATOM     12  O   UNL     1       6.067  -6.151  27.156  0.00  0.00    -0.491 OA
ENDBRANCH   2  12
BRANCH   3  13
ATOM     13  O   UNL     1       8.008  -4.588  25.669  0.00  0.00    -0.491 OA
ATOM     14  C   UNL     1       7.877  -3.469  26.532  0.00  0.00    +0.277 C 
ENDBRANCH   3  13
BRANCH   5  15
ATOM     15  O   UNL     1       5.538  -5.095  21.709  0.00  0.00    -0.493 OA
ATOM     16  C   UNL     1       6.095  -5.884  20.678  0.00  0.00    +0.277 C 
ENDBRANCH   5  15
ENDBRANCH   1   4
BRANCH   1  17
ATOM     17  C   UNL     1       7.569  -2.637  22.615  0.00  0.00    +0.237 C 
BRANCH  17  18
ATOM     18  O   UNL     1       8.192  -1.695  23.520  0.00  0.00    -0.461 OA
BRANCH  18  19
ATOM     19  C   UNL     1       7.410  -0.670  23.940  0.00  0.00    +0.343 C 
ATOM     20  O   UNL     1       6.291  -0.755  24.418  0.00  0.00    -0.245 OA
BRANCH  19  21
ATOM     21  C   UNL     1       8.090   0.639  23.767  0.00  0.00    +0.102 A 
ATOM     22  C   UNL     1       7.459   1.712  23.120  0.00  0.00    +0.042 A 
ATOM     23  C   UNL     1       8.130   2.927  22.965  0.00  0.00    +0.083 A 
ATOM     24 CL   UNL     1       7.313   4.219  22.164  0.00  0.00    -0.080 Cl
ATOM     25  C   UNL     1       9.433   3.079  23.451  0.00  0.00    +0.139 A 
ATOM     26  C   UNL     1      10.070   2.019  24.091  0.00  0.00    +0.093 A 
ATOM     27  C   UNL     1       9.400   0.806  24.248  0.00  0.00    +0.134 A 
BRANCH  25  28
ATOM     28  O   UNL     1      10.084   4.273  23.296  0.00  0.00    -0.505 OA
ATOM     29  H   UNL     1      10.666   4.225  22.520  0.00  0.00    +0.292 HD
ENDBRANCH  25  28
BRANCH  27  30
ATOM     30  O   UNL     1      10.102  -0.181  24.890  0.00  0.00    -0.506 OA
ATOM     31  H   UNL     1       9.794  -1.056  24.563  0.00  0.00    +0.292 HD
ENDBRANCH  27  30
ENDBRANCH  19  21
ENDBRANCH  18  19
ENDBRANCH  17  18
ENDBRANCH   1  17
TORSDOF 11
ENDMDL
MODEL 8
REMARK VINA RESULT:      -6.0      3.008      5.993
REMARK  Name = 
REMARK  14 active torsions:
REMARK  status: ('A' for Active; 'I' for Inactive)
REMARK    1  A    between atoms: C_1  and  O_2
REMARK    2  A    between atoms: O_2  and  C_3
REMARK    3  A    between atoms: C_5  and  N_6
REMARK    4  A    between atoms: C_7  and  O_8
REMARK    5  A    between atoms: O_8  and  C_9
REMARK    6  A    between atoms: C_10  and  C_11
REMARK    7  A    between atoms: C_11  and  C_12
REMARK    8  A    between atoms: C_12  and  O_13
REMARK    9  A    between atoms: O_13  and  C_14
REMARK   10  A    between atoms: C_14  and  C_16
REMARK   11  A    between atoms: C_17  and  O_18
REMARK   12  A    between atoms: C_20  and  O_21
REMARK   13  A    between atoms: C_25  and  O_26
REMARK   14  A    between atoms: O_26  and  C_27
REMARK                            x       y       z     vdW  Elec       q    Type
REMARK                         _______ _______ _______ _____ _____    ______ ____
ROOT
ATOM      1  C   UNL     1       6.444  -1.880  26.950  0.00  0.00    +0.084 C 
ENDROOT
BRANCH   1   4
ATOM      2  C   UNL     1       9.166  -2.064  24.281  0.00  0.00    +0.164 A 
ATOM      3  C   UNL     1       8.117  -1.617  25.095  0.00  0.00    +0.168 A 
ATOM      4  C   UNL     1       7.567  -2.484  26.094  0.00  0.00    +0.044 A 
ATOM      5  C   UNL     1       8.078  -3.808  26.246  0.00  0.00    +0.148 A 
ATOM      6  C   UNL     1       9.088  -4.269  25.372  0.00  0.00    +0.071 A 
ATOM      7  C   UNL     1       9.629  -3.370  24.441  0.00  0.00    +0.075 A 
BRANCH   6   8
ATOM      8  N   UNL     1       9.774  -5.499  25.469  0.00  0.00    -0.355 N 
ATOM      9  H   UNL     1       9.622  -6.006  26.327  0.00  0.00    +0.142 HD
ATOM     10  H   UNL     1       9.605  -6.118  24.683  0.00  0.00    +0.142 HD
ENDBRANCH   6   8
BRANCH   2  12
ATOM     11  C   UNL     1       9.396  -1.545  21.967  0.00  0.00    +0.277 C 
ATOM     12  O   UNL     1       9.693  -1.235  23.325  0.00  0.00    -0.491 OA
ENDBRANCH   2  12
BRANCH   3  13
ATOM     13  O   UNL     1       7.544  -0.364  25.068  0.00  0.00    -0.491 OA
ATOM     14  C   UNL     1       6.630  -0.023  24.036  0.00  0.00    +0.277 C 
ENDBRANCH   3  13
BRANCH   5  15
ATOM     15  O   UNL     1       7.518  -4.505  27.281  0.00  0.00    -0.493 OA
ATOM     16  C   UNL     1       6.668  -5.614  27.070  0.00  0.00    +0.277 C 
ENDBRANCH   5  15
ENDBRANCH   1   4
BRANCH   1  17
ATOM     17  C   UNL     1       5.029  -2.464  26.949  0.00  0.00    +0.237 C 
BRANCH  17  18
ATOM     18  O   UNL     1       4.313  -2.060  25.758  0.00  0.00    -0.461 OA
BRANCH  18  19
ATOM     19  C   UNL     1       3.458  -2.977  25.241  0.00  0.00    +0.343 C 
ATOM     20  O   UNL     1       2.244  -2.989  25.360  0.00  0.00    -0.245 OA
BRANCH  19  21
ATOM     21  C   UNL     1       4.179  -4.013  24.459  0.00  0.00    +0.102 A 
ATOM     22  C   UNL     1       5.232  -3.678  23.595  0.00  0.00    +0.042 A 
ATOM     23  C   UNL     1       5.883  -4.676  22.868  0.00  0.00    +0.083 A 
ATOM     24 CL   UNL     1       7.174  -4.216  21.818  0.00  0.00    -0.080 Cl
ATOM     25  C   UNL     1       5.490  -6.012  22.995  0.00  0.00    +0.139 A 
ATOM     26  C   UNL     1       4.442  -6.356  23.848  0.00  0.00    +0.093 A 
ATOM     27  C   UNL     1       3.792  -5.359  24.576  0.00  0.00    +0.134 A 
BRANCH  25  28
ATOM     28  O   UNL     1       6.133  -6.985  22.280  0.00  0.00    -0.505 OA
ATOM     29  H   UNL     1       5.960  -7.852  22.684  0.00  0.00    +0.292 HD
ENDBRANCH  25  28
BRANCH  27  30
ATOM     30  O   UNL     1       2.776  -5.787  25.390  0.00  0.00    -0.506 OA
ATOM     31  H   UNL     1       1.976  -5.244  25.214  0.00  0.00    +0.292 HD
ENDBRANCH  27  30
ENDBRANCH  19  21
ENDBRANCH  18  19
ENDBRANCH  17  18
ENDBRANCH   1  17
TORSDOF 11
ENDMDL
MODEL 9
REMARK VINA RESULT:      -5.9      3.950      8.153
REMARK  Name = 
REMARK  14 active torsions:
REMARK  status: ('A' for Active; 'I' for Inactive)
REMARK    1  A    between atoms: C_1  and  O_2
REMARK    2  A    between atoms: O_2  and  C_3
REMARK    3  A    between atoms: C_5  and  N_6
REMARK    4  A    between atoms: C_7  and  O_8
REMARK    5  A    between atoms: O_8  and  C_9
REMARK    6  A    between atoms: C_10  and  C_11
REMARK    7  A    between atoms: C_11  and  C_12
REMARK    8  A    between atoms: C_12  and  O_13
REMARK    9  A    between atoms: O_13  and  C_14
REMARK   10  A    between atoms: C_14  and  C_16
REMARK   11  A    between atoms: C_17  and  O_18
REMARK   12  A    between atoms: C_20  and  O_21
REMARK   13  A    between atoms: C_25  and  O_26
REMARK   14  A    between atoms: O_26  and  C_27
REMARK                            x       y       z     vdW  Elec       q    Type
REMARK                         _______ _______ _______ _____ _____    ______ ____
ROOT
ATOM      1  C   UNL     1       7.116   0.830  22.944  0.00  0.00    +0.084 C 
ENDROOT
BRANCH   1   4
ATOM      2  C   UNL     1       9.974   3.288  23.540  0.00  0.00    +0.164 A 
ATOM      3  C   UNL     1       9.242   2.142  23.205  0.00  0.00    +0.168 A 
ATOM      4  C   UNL     1       7.820   2.126  23.373  0.00  0.00    +0.044 A 
ATOM      5  C   UNL     1       7.153   3.274  23.897  0.00  0.00    +0.148 A 
ATOM      6  C   UNL     1       7.911   4.398  24.296  0.00  0.00    +0.071 A 
ATOM      7  C   UNL     1       9.295   4.386  24.069  0.00  0.00    +0.075 A 
BRANCH   6   8
ATOM      8  N   UNL     1       7.395   5.642  24.718  0.00  0.00    -0.355 N 
ATOM      9  H   UNL     1       8.071   6.267  25.130  0.00  0.00    +0.142 HD
ATOM     10  H   UNL     1       6.886   6.134  23.991  0.00  0.00    +0.142 HD
ENDBRANCH   6   8
BRANCH   2  12
ATOM     11  C   UNL     1      11.970   4.579  23.375  0.00  0.00    +0.277 C 
ATOM     12  O   UNL     1      11.335   3.304  23.380  0.00  0.00    -0.491 OA
ENDBRANCH   2  12
BRANCH   3  13
ATOM     13  O   UNL     1       9.753   0.976  22.675  0.00  0.00    -0.491 OA
ATOM     14  C   UNL     1      10.510   0.096  23.492  0.00  0.00    +0.277 C 
ENDBRANCH   3  13
BRANCH   5  15
ATOM     15  O   UNL     1       5.791   3.156  23.938  0.00  0.00    -0.493 OA
ATOM     16  C   UNL     1       4.954   3.734  22.958  0.00  0.00    +0.277 C 
ENDBRANCH   5  15
ENDBRANCH   1   4
BRANCH   1  17
ATOM     17  C   UNL     1       6.921  -0.338  23.914  0.00  0.00    +0.237 C 
BRANCH  17  18
ATOM     18  O   UNL     1       6.589  -1.548  23.193  0.00  0.00    -0.461 OA
BRANCH  18  19
ATOM     19  C   UNL     1       7.592  -2.450  23.054  0.00  0.00    +0.343 C 
ATOM     20  O   UNL     1       8.374  -2.532  22.121  0.00  0.00    -0.245 OA
BRANCH  19  21
ATOM     21  C   UNL     1       7.661  -3.371  24.216  0.00  0.00    +0.102 A 
ATOM     22  C   UNL     1       6.499  -3.836  24.851  0.00  0.00    +0.042 A 
ATOM     23  C   UNL     1       6.599  -4.694  25.948  0.00  0.00    +0.083 A 
ATOM     24 CL   UNL     1       5.142  -5.241  26.697  0.00  0.00    -0.080 Cl
ATOM     25  C   UNL     1       7.854  -5.092  26.421  0.00  0.00    +0.139 A 
ATOM     26  C   UNL     1       9.014  -4.633  25.799  0.00  0.00    +0.093 A 
ATOM     27  C   UNL     1       8.914  -3.777  24.702  0.00  0.00    +0.134 A 
BRANCH  25  28
ATOM     28  O   UNL     1       7.944  -5.934  27.496  0.00  0.00    -0.505 OA
ATOM     29  H   UNL     1       8.678  -5.652  28.066  0.00  0.00    +0.292 HD
ENDBRANCH  25  28
BRANCH  27  30
ATOM     30  O   UNL     1      10.106  -3.377  24.153  0.00  0.00    -0.506 OA
ATOM     31  H   UNL     1       9.979  -2.503  23.720  0.00  0.00    +0.292 HD
ENDBRANCH  27  30
ENDBRANCH  19  21
ENDBRANCH  18  19
ENDBRANCH  17  18
ENDBRANCH   1  17
TORSDOF 11
ENDMDL
