MODEL 1
REMARK VINA RESULT:      -6.0      0.000      0.000
REMARK  Name = 
REMARK  11 active torsions:
REMARK  status: ('A' for Active; 'I' for Inactive)
REMARK    1  A    between atoms: C_1  and  C_2
REMARK    2  A    between atoms: C_2  and  O_4
REMARK    3  A    between atoms: O_4  and  C_5
REMARK    4  A    between atoms: C_5  and  C_6
REMARK    5  A    between atoms: C_6  and  C_7
REMARK    6  A    between atoms: C_6  and  C_19
REMARK    7  A    between atoms: C_7  and  C_8
REMARK    8  A    between atoms: C_8  and  N_9
REMARK    9  A    between atoms: C_19  and  O_20
REMARK   10  A    between atoms: O_20  and  C_21
REMARK   11  A    between atoms: C_21  and  C_22
REMARK                            x       y       z     vdW  Elec       q    Type
REMARK                         _______ _______ _______ _____ _____    ______ ____
ROOT
ATOM      1  C   UNL     1       9.702  -1.572  22.248  0.00  0.00    +0.125 C 
ENDROOT
BRANCH   1   2
ATOM      2  N   UNL     1       8.527  -2.230  22.774  0.00  0.00    -0.315 N 
ATOM      3  C   UNL     1       8.534  -3.246  23.691  0.00  0.00    +0.165 A 
ATOM      4  C   UNL     1       7.198  -3.454  23.988  0.00  0.00    +0.126 A 
ATOM      5  C   UNL     1       6.941  -4.441  24.929  0.00  0.00    +0.145 A 
ATOM      6  N   UNL     1       7.981  -5.108  25.497  0.00  0.00    -0.221 NA
ATOM      7  C   UNL     1       9.236  -4.786  25.135  0.00  0.00    +0.215 A 
ATOM      8  N   UNL     1      10.250  -5.474  25.769  0.00  0.00    -0.327 N 
ATOM      9  H   UNL     1      11.077  -5.502  25.192  0.00  0.00    +0.145 HD
ATOM     10  H   UNL     1       9.897  -6.348  26.131  0.00  0.00    +0.145 HD
ATOM     11  N   UNL     1       6.392  -2.600  23.272  0.00  0.00    -0.233 NA
ATOM     12  N   UNL     1       9.594  -3.880  24.213  0.00  0.00    -0.195 NA
ATOM     13  C   UNL     1       7.226  -1.865  22.563  0.00  0.00    +0.201 A 
ENDBRANCH   1   2
BRANCH   1  14
ATOM     14  C   UNL     1       9.381  -0.270  21.515  0.00  0.00    +0.032 C 
BRANCH  14  15
ATOM     15  C   UNL     1      10.009   0.995  22.154  0.00  0.00    +0.066 C 
BRANCH  15  16
ATOM     16  C   UNL     1      10.385   0.714  23.621  0.00  0.00    +0.239 C 
BRANCH  16  17
ATOM     17  O   UNL     1       9.488   1.370  24.535  0.00  0.00    -0.464 OA
BRANCH  17  19
ATOM     18  C   UNL     1       9.191  -0.483  25.948  0.00  0.00    +0.136 C 
ATOM     19  C   UNL     1       8.543   0.571  25.101  0.00  0.00    +0.304 C 
ATOM     20  O   UNL     1       7.337   0.668  24.930  0.00  0.00    -0.251 OA
ENDBRANCH  17  19
ENDBRANCH  16  17
ENDBRANCH  15  16
BRANCH  15  21
ATOM     21  C   UNL     1       9.098   2.241  22.117  0.00  0.00    +0.239 C 
BRANCH  21  22
ATOM     22  O   UNL     1       7.741   1.943  21.755  0.00  0.00    -0.464 OA
BRANCH  22  23
ATOM     23  C   UNL     1       6.782   2.802  22.186  0.00  0.00    +0.304 C 
ATOM     24  O   UNL     1       5.645   2.486  22.509  0.00  0.00    -0.251 OA
ATOM     25  C   UNL     1       7.323   4.198  22.276  0.00  0.00    +0.136 C 
ENDBRANCH  22  23
ENDBRANCH  21  22
ENDBRANCH  15  21
ENDBRANCH  14  15
ENDBRANCH   1  14
TORSDOF 9
ENDMDL
MODEL 2
REMARK VINA RESULT:      -5.8      3.830      7.244
REMARK  Name = 
REMARK  11 active torsions:
REMARK  status: ('A' for Active; 'I' for Inactive)
REMARK    1  A    between atoms: C_1  and  C_2
REMARK    2  A    between atoms: C_2  and  O_4
REMARK    3  A    between atoms: O_4  and  C_5
REMARK    4  A    between atoms: C_5  and  C_6
REMARK    5  A    between atoms: C_6  and  C_7
REMARK    6  A    between atoms: C_6  and  C_19
REMARK    7  A    between atoms: C_7  and  C_8
REMARK    8  A    between atoms: C_8  and  N_9
REMARK    9  A    between atoms: C_19  and  O_20
REMARK   10  A    between atoms: O_20  and  C_21
REMARK   11  A    between atoms: C_21  and  C_22
REMARK                            x       y       z     vdW  Elec       q    Type
REMARK                         _______ _______ _______ _____ _____    ______ ____
ROOT
ATOM      1  C   UNL     1       8.137  -2.446  25.212  0.00  0.00    +0.125 C 
ENDROOT
BRANCH   1   2
ATOM      2  N   UNL     1       8.834  -1.966  24.040  0.00  0.00    -0.315 N 
ATOM      3  C   UNL     1       8.459  -0.890  23.284  0.00  0.00    +0.165 A 
ATOM      4  C   UNL     1       9.486  -0.734  22.369  0.00  0.00    +0.126 A 
ATOM      5  C   UNL     1       9.346   0.327  21.485  0.00  0.00    +0.145 A 
ATOM      6  N   UNL     1       8.256   1.134  21.580  0.00  0.00    -0.221 NA
ATOM      7  C   UNL     1       7.343   0.885  22.537  0.00  0.00    +0.215 A 
ATOM      8  N   UNL     1       6.276   1.757  22.606  0.00  0.00    -0.327 N 
ATOM      9  H   UNL     1       5.472   1.305  23.015  0.00  0.00    +0.145 HD
ATOM     10  H   UNL     1       6.155   2.221  21.717  0.00  0.00    +0.145 HD
ATOM     11  N   UNL     1      10.460  -1.690  22.549  0.00  0.00    -0.233 NA
ATOM     12  N   UNL     1       7.361  -0.131  23.414  0.00  0.00    -0.195 NA
ATOM     13  C   UNL     1      10.043  -2.405  23.575  0.00  0.00    +0.201 A 
ENDBRANCH   1   2
BRANCH   1  14
ATOM     14  C   UNL     1       8.771  -3.701  25.814  0.00  0.00    +0.032 C 
BRANCH  14  15
ATOM     15  C   UNL     1       7.809  -4.910  25.930  0.00  0.00    +0.066 C 
BRANCH  15  16
ATOM     16  C   UNL     1       6.915  -4.996  24.677  0.00  0.00    +0.239 C 
BRANCH  16  17
ATOM     17  O   UNL     1       7.681  -5.295  23.497  0.00  0.00    -0.464 OA
BRANCH  17  19
ATOM     18  C   UNL     1       6.616  -6.146  21.584  0.00  0.00    +0.136 C 
ATOM     19  C   UNL     1       7.105  -4.934  22.318  0.00  0.00    +0.304 C 
ATOM     20  O   UNL     1       7.019  -3.792  21.892  0.00  0.00    -0.251 OA
ENDBRANCH  17  19
ENDBRANCH  16  17
ENDBRANCH  15  16
BRANCH  15  21
ATOM     21  C   UNL     1       6.897  -4.876  27.174  0.00  0.00    +0.239 C 
BRANCH  21  22
ATOM     22  O   UNL     1       7.179  -5.923  28.115  0.00  0.00    -0.464 OA
BRANCH  22  23
ATOM     23  C   UNL     1       6.128  -6.434  28.807  0.00  0.00    +0.304 C 
ATOM     24  O   UNL     1       5.783  -7.607  28.801  0.00  0.00    -0.251 OA
ATOM     25  C   UNL     1       5.475  -5.371  29.640  0.00  0.00    +0.136 C 
ENDBRANCH  22  23
ENDBRANCH  21  22
ENDBRANCH  15  21
ENDBRANCH  14  15
ENDBRANCH   1  14
TORSDOF 9
ENDMDL
MODEL 3
REMARK VINA RESULT:      -5.8      3.842      6.974
REMARK  Name = 
REMARK  11 active torsions:
REMARK  status: ('A' for Active; 'I' for Inactive)
REMARK    1  A    between atoms: C_1  and  C_2
REMARK    2  A    between atoms: C_2  and  O_4
REMARK    3  A    between atoms: O_4  and  C_5
REMARK    4  A    between atoms: C_5  and  C_6
REMARK    5  A    between atoms: C_6  and  C_7
REMARK    6  A    between atoms: C_6  and  C_19
REMARK    7  A    between atoms: C_7  and  C_8
REMARK    8  A    between atoms: C_8  and  N_9
REMARK    9  A    between atoms: C_19  and  O_20
REMARK   10  A    between atoms: O_20  and  C_21
REMARK   11  A    between atoms: C_21  and  C_22
REMARK                            x       y       z     vdW  Elec       q    Type
REMARK                         _______ _______ _______ _____ _____    ______ ____
ROOT
ATOM      1  C   UNL     1       9.473  -2.718  23.977  0.00  0.00    +0.125 C 
ENDROOT
BRANCH   1   2
ATOM      2  N   UNL     1       9.139  -1.517  24.710  0.00  0.00    -0.315 N 
ATOM      3  C   UNL     1       9.243  -0.242  24.227  0.00  0.00    +0.165 A 
ATOM      4  C   UNL     1       8.691   0.551  25.218  0.00  0.00    +0.126 A 
ATOM      5  C   UNL     1       8.661   1.912  24.949  0.00  0.00    +0.145 A 
ATOM      6  N   UNL     1       9.142   2.368  23.762  0.00  0.00    -0.221 NA
ATOM      7  C   UNL     1       9.629   1.483  22.874  0.00  0.00    +0.215 A 
ATOM      8  N   UNL     1      10.073   2.001  21.674  0.00  0.00    -0.327 N 
ATOM      9  H   UNL     1      10.771   1.400  21.262  0.00  0.00    +0.145 HD
ATOM     10  H   UNL     1      10.298   2.978  21.786  0.00  0.00    +0.145 HD
ATOM     11  N   UNL     1       8.265  -0.210  26.282  0.00  0.00    -0.233 NA
ATOM     12  N   UNL     1       9.739   0.156  23.046  0.00  0.00    -0.195 NA
ATOM     13  C   UNL     1       8.535  -1.453  25.936  0.00  0.00    +0.201 A 
ENDBRANCH   1   2
BRANCH   1  14
ATOM     14  C   UNL     1       9.414  -3.980  24.837  0.00  0.00    +0.032 C 
BRANCH  14  15
ATOM     15  C   UNL     1       8.305  -4.982  24.427  0.00  0.00    +0.066 C 
BRANCH  15  16
ATOM     16  C   UNL     1       7.746  -4.612  23.039  0.00  0.00    +0.239 C 
BRANCH  16  17
ATOM     17  O   UNL     1       7.247  -5.768  22.342  0.00  0.00    -0.464 OA
BRANCH  17  19
ATOM     18  C   UNL     1       4.911  -5.788  22.588  0.00  0.00    +0.136 C 
ATOM     19  C   UNL     1       6.079  -5.585  21.670  0.00  0.00    +0.304 C 
ATOM     20  O   UNL     1       5.978  -5.323  20.480  0.00  0.00    -0.251 OA
ENDBRANCH  17  19
ENDBRANCH  16  17
ENDBRANCH  15  16
BRANCH  15  21
ATOM     21  C   UNL     1       7.125  -5.059  25.419  0.00  0.00    +0.239 C 
BRANCH  21  22
ATOM     22  O   UNL     1       7.371  -5.937  26.528  0.00  0.00    -0.464 OA
BRANCH  22  23
ATOM     23  C   UNL     1       6.786  -5.620  27.712  0.00  0.00    +0.304 C 
ATOM     24  O   UNL     1       6.871  -6.277  28.740  0.00  0.00    -0.251 OA
ATOM     25  C   UNL     1       6.064  -4.309  27.611  0.00  0.00    +0.136 C 
ENDBRANCH  22  23
ENDBRANCH  21  22
ENDBRANCH  15  21
ENDBRANCH  14  15
ENDBRANCH   1  14
TORSDOF 9
ENDMDL
MODEL 4
REMARK VINA RESULT:      -5.7      3.461      6.707
REMARK  Name = 
REMARK  11 active torsions:
REMARK  status: ('A' for Active; 'I' for Inactive)
REMARK    1  A    between atoms: C_1  and  C_2
REMARK    2  A    between atoms: C_2  and  O_4
REMARK    3  A    between atoms: O_4  and  C_5
REMARK    4  A    between atoms: C_5  and  C_6
REMARK    5  A    between atoms: C_6  and  C_7
REMARK    6  A    between atoms: C_6  and  C_19
REMARK    7  A    between atoms: C_7  and  C_8
REMARK    8  A    between atoms: C_8  and  N_9
REMARK    9  A    between atoms: C_19  and  O_20
REMARK   10  A    between atoms: O_20  and  C_21
REMARK   11  A    between atoms: C_21  and  C_22
REMARK                            x       y       z     vdW  Elec       q    Type
REMARK                         _______ _______ _______ _____ _____    ______ ____
ROOT
ATOM      1  C   UNL     1       9.710  -2.236  24.146  0.00  0.00    +0.125 C 
ENDROOT
BRANCH   1   2
ATOM      2  N   UNL     1       9.448  -1.222  23.150  0.00  0.00    -0.315 N 
ATOM      3  C   UNL     1       9.078   0.068  23.414  0.00  0.00    +0.165 A 
ATOM      4  C   UNL     1       9.076   0.688  22.177  0.00  0.00    +0.126 A 
ATOM      5  C   UNL     1       8.746   2.036  22.183  0.00  0.00    +0.145 A 
ATOM      6  N   UNL     1       8.472   2.650  23.365  0.00  0.00    -0.221 NA
ATOM      7  C   UNL     1       8.536   1.933  24.501  0.00  0.00    +0.215 A 
ATOM      8  N   UNL     1       8.280   2.617  25.672  0.00  0.00    -0.327 N 
ATOM      9  H   UNL     1       7.939   1.990  26.385  0.00  0.00    +0.145 HD
ATOM     10  H   UNL     1       7.738   3.445  25.473  0.00  0.00    +0.145 HD
ATOM     11  N   UNL     1       9.426  -0.193  21.180  0.00  0.00    -0.233 NA
ATOM     12  N   UNL     1       8.807   0.622  24.605  0.00  0.00    -0.195 NA
ATOM     13  C   UNL     1       9.660  -1.331  21.803  0.00  0.00    +0.201 A 
ENDBRANCH   1   2
BRANCH   1  14
ATOM     14  C   UNL     1       8.460  -3.019  24.548  0.00  0.00    +0.032 C 
BRANCH  14  15
ATOM     15  C   UNL     1       8.612  -4.559  24.453  0.00  0.00    +0.066 C 
BRANCH  15  16
ATOM     16  C   UNL     1       7.357  -5.174  23.805  0.00  0.00    +0.239 C 
BRANCH  16  17
ATOM     17  O   UNL     1       6.554  -4.176  23.149  0.00  0.00    -0.464 OA
BRANCH  17  19
ATOM     18  C   UNL     1       6.699  -5.819  21.476  0.00  0.00    +0.136 C 
ATOM     19  C   UNL     1       6.210  -4.455  21.862  0.00  0.00    +0.304 C 
ATOM     20  O   UNL     1       5.615  -3.700  21.108  0.00  0.00    -0.251 OA
ENDBRANCH  17  19
ENDBRANCH  16  17
ENDBRANCH  15  16
BRANCH  15  21
ATOM     21  C   UNL     1       8.847  -5.255  25.810  0.00  0.00    +0.239 C 
BRANCH  21  22
ATOM     22  O   UNL     1       8.236  -4.570  26.915  0.00  0.00    -0.464 OA
BRANCH  22  23
ATOM     23  C   UNL     1       7.153  -5.157  27.486  0.00  0.00    +0.304 C 
ATOM     24  O   UNL     1       7.177  -6.173  28.166  0.00  0.00    -0.251 OA
ATOM     25  C   UNL     1       5.915  -4.351  27.223  0.00  0.00    +0.136 C 
ENDBRANCH  22  23
ENDBRANCH  21  22
ENDBRANCH  15  21
ENDBRANCH  14  15
ENDBRANCH   1  14
TORSDOF 9
ENDMDL
MODEL 5
REMARK VINA RESULT:      -5.7      3.559      6.351
REMARK  Name = 
REMARK  11 active torsions:
REMARK  status: ('A' for Active; 'I' for Inactive)
REMARK    1  A    between atoms: C_1  and  C_2
REMARK    2  A    between atoms: C_2  and  O_4
REMARK    3  A    between atoms: O_4  and  C_5
REMARK    4  A    between atoms: C_5  and  C_6
REMARK    5  A    between atoms: C_6  and  C_7
REMARK    6  A    between atoms: C_6  and  C_19
REMARK    7  A    between atoms: C_7  and  C_8
REMARK    8  A    between atoms: C_8  and  N_9
REMARK    9  A    between atoms: C_19  and  O_20
REMARK   10  A    between atoms: O_20  and  C_21
REMARK   11  A    between atoms: C_21  and  C_22
REMARK                            x       y       z     vdW  Elec       q    Type
REMARK                         _______ _______ _______ _____ _____    ______ ____
ROOT
ATOM      1  C   UNL     1       9.231  -0.731  21.623  0.00  0.00    +0.125 C 
ENDROOT
BRANCH   1   2
ATOM      2  N   UNL     1       9.647   0.305  22.543  0.00  0.00    -0.315 N 
ATOM      3  C   UNL     1       9.042   1.522  22.688  0.00  0.00    +0.165 A 
ATOM      4  C   UNL     1       9.693   2.108  23.760  0.00  0.00    +0.126 A 
ATOM      5  C   UNL     1       9.236   3.367  24.124  0.00  0.00    +0.145 A 
ATOM      6  N   UNL     1       8.200   3.923  23.441  0.00  0.00    -0.221 NA
ATOM      7  C   UNL     1       7.639   3.231  22.433  0.00  0.00    +0.215 A 
ATOM      8  N   UNL     1       6.571   3.832  21.799  0.00  0.00    -0.327 N 
ATOM      9  H   UNL     1       6.481   3.495  20.852  0.00  0.00    +0.145 HD
ATOM     10  H   UNL     1       6.605   4.831  21.943  0.00  0.00    +0.145 HD
ATOM     11  N   UNL     1      10.674   1.281  24.255  0.00  0.00    -0.233 NA
ATOM     12  N   UNL     1       8.024   2.029  21.977  0.00  0.00    -0.195 NA
ATOM     13  C   UNL     1      10.609   0.196  23.510  0.00  0.00    +0.201 A 
ENDBRANCH   1   2
BRANCH   1  14
ATOM     14  C   UNL     1       8.733  -1.993  22.327  0.00  0.00    +0.032 C 
BRANCH  14  15
ATOM     15  C   UNL     1       7.490  -1.775  23.227  0.00  0.00    +0.066 C 
BRANCH  15  16
ATOM     16  C   UNL     1       7.793  -2.234  24.666  0.00  0.00    +0.239 C 
BRANCH  16  17
ATOM     17  O   UNL     1       7.330  -3.576  24.905  0.00  0.00    -0.464 OA
BRANCH  17  19
ATOM     18  C   UNL     1       8.461  -4.788  26.569  0.00  0.00    +0.136 C 
ATOM     19  C   UNL     1       8.305  -4.503  25.105  0.00  0.00    +0.304 C 
ATOM     20  O   UNL     1       8.985  -5.018  24.230  0.00  0.00    -0.251 OA
ENDBRANCH  17  19
ENDBRANCH  16  17
ENDBRANCH  15  16
BRANCH  15  21
ATOM     21  C   UNL     1       6.222  -2.508  22.741  0.00  0.00    +0.239 C 
BRANCH  21  22
ATOM     22  O   UNL     1       6.483  -3.480  21.717  0.00  0.00    -0.464 OA
BRANCH  22  23
ATOM     23  C   UNL     1       5.937  -4.712  21.878  0.00  0.00    +0.304 C 
ATOM     24  O   UNL     1       4.799  -4.934  22.267  0.00  0.00    -0.251 OA
ATOM     25  C   UNL     1       6.902  -5.779  21.451  0.00  0.00    +0.136 C 
ENDBRANCH  22  23
ENDBRANCH  21  22
ENDBRANCH  15  21
ENDBRANCH  14  15
ENDBRANCH   1  14
TORSDOF 9
ENDMDL
MODEL 6
REMARK VINA RESULT:      -5.7      1.523      1.751
REMARK  Name = 
REMARK  11 active torsions:
REMARK  status: ('A' for Active; 'I' for Inactive)
REMARK    1  A    between atoms: C_1  and  C_2
REMARK    2  A    between atoms: C_2  and  O_4
REMARK    3  A    between atoms: O_4  and  C_5
REMARK    4  A    between atoms: C_5  and  C_6
REMARK    5  A    between atoms: C_6  and  C_7
REMARK    6  A    between atoms: C_6  and  C_19
REMARK    7  A    between atoms: C_7  and  C_8
REMARK    8  A    between atoms: C_8  and  N_9
REMARK    9  A    between atoms: C_19  and  O_20
REMARK   10  A    between atoms: O_20  and  C_21
REMARK   11  A    between atoms: C_21  and  C_22
REMARK                            x       y       z     vdW  Elec       q    Type
REMARK                         _______ _______ _______ _____ _____    ______ ____
ROOT
ATOM      1  C   UNL     1       9.501  -1.669  22.236  0.00  0.00    +0.125 C 
ENDROOT
BRANCH   1   2
ATOM      2  N   UNL     1       8.362  -2.339  22.823  0.00  0.00    -0.315 N 
ATOM      3  C   UNL     1       8.426  -3.342  23.750  0.00  0.00    +0.165 A 
ATOM      4  C   UNL     1       7.109  -3.568  24.110  0.00  0.00    +0.126 A 
ATOM      5  C   UNL     1       6.910  -4.547  25.073  0.00  0.00    +0.145 A 
ATOM      6  N   UNL     1       7.985  -5.191  25.601  0.00  0.00    -0.221 NA
ATOM      7  C   UNL     1       9.218  -4.854  25.179  0.00  0.00    +0.215 A 
ATOM      8  N   UNL     1      10.271  -5.519  25.773  0.00  0.00    -0.327 N 
ATOM      9  H   UNL     1      11.071  -5.541  25.160  0.00  0.00    +0.145 HD
ATOM     10  H   UNL     1       9.948  -6.393  26.161  0.00  0.00    +0.145 HD
ATOM     11  N   UNL     1       6.258  -2.735  23.421  0.00  0.00    -0.233 NA
ATOM     12  N   UNL     1       9.519  -3.954  24.231  0.00  0.00    -0.195 NA
ATOM     13  C   UNL     1       7.047  -1.996  22.667  0.00  0.00    +0.201 A 
ENDBRANCH   1   2
BRANCH   1  14
ATOM     14  C   UNL     1       9.263  -0.177  22.001  0.00  0.00    +0.032 C 
BRANCH  14  15
ATOM     15  C   UNL     1      10.200   0.754  22.811  0.00  0.00    +0.066 C 
BRANCH  15  16
ATOM     16  C   UNL     1       9.925   0.598  24.319  0.00  0.00    +0.239 C 
BRANCH  16  17
ATOM     17  O   UNL     1       8.565   0.932  24.649  0.00  0.00    -0.464 OA
BRANCH  17  19
ATOM     18  C   UNL     1       8.970  -0.706  26.283  0.00  0.00    +0.136 C 
ATOM     19  C   UNL     1       7.951   0.090  25.523  0.00  0.00    +0.304 C 
ATOM     20  O   UNL     1       6.743  -0.034  25.659  0.00  0.00    -0.251 OA
ENDBRANCH  17  19
ENDBRANCH  16  17
ENDBRANCH  15  16
BRANCH  15  21
ATOM     21  C   UNL     1      10.074   2.249  22.448  0.00  0.00    +0.239 C 
BRANCH  21  22
ATOM     22  O   UNL     1      10.793   3.114  23.340  0.00  0.00    -0.464 OA
BRANCH  22  23
ATOM     23  C   UNL     1      10.160   4.241  23.755  0.00  0.00    +0.304 C 
ATOM     24  O   UNL     1       9.005   4.296  24.154  0.00  0.00    -0.251 OA
ATOM     25  C   UNL     1      11.092   5.416  23.720  0.00  0.00    +0.136 C 
ENDBRANCH  22  23
ENDBRANCH  21  22
ENDBRANCH  15  21
ENDBRANCH  14  15
ENDBRANCH   1  14
TORSDOF 9
ENDMDL
MODEL 7
REMARK VINA RESULT:      -5.6      4.942      7.935
REMARK  Name = 
REMARK  11 active torsions:
REMARK  status: ('A' for Active; 'I' for Inactive)
REMARK    1  A    between atoms: C_1  and  C_2
REMARK    2  A    between atoms: C_2  and  O_4
REMARK    3  A    between atoms: O_4  and  C_5
REMARK    4  A    between atoms: C_5  and  C_6
REMARK    5  A    between atoms: C_6  and  C_7
REMARK    6  A    between atoms: C_6  and  C_19
REMARK    7  A    between atoms: C_7  and  C_8
REMARK    8  A    between atoms: C_8  and  N_9
REMARK    9  A    between atoms: C_19  and  O_20
REMARK   10  A    between atoms: O_20  and  C_21
REMARK   11  A    between atoms: C_21  and  C_22
REMARK                            x       y       z     vdW  Elec       q    Type
REMARK                         _______ _______ _______ _____ _____    ______ ____
ROOT
ATOM      1  C   UNL     1       5.365  -5.672  22.977  0.00  0.00    +0.125 C 
ENDROOT
BRANCH   1   2
ATOM      2  N   UNL     1       6.239  -4.522  22.908  0.00  0.00    -0.315 N 
ATOM      3  C   UNL     1       7.430  -4.394  23.567  0.00  0.00    +0.165 A 
ATOM      4  C   UNL     1       7.963  -3.207  23.095  0.00  0.00    +0.126 A 
ATOM      5  C   UNL     1       9.204  -2.861  23.609  0.00  0.00    +0.145 A 
ATOM      6  N   UNL     1       9.811  -3.689  24.500  0.00  0.00    -0.221 NA
ATOM      7  C   UNL     1       9.192  -4.830  24.855  0.00  0.00    +0.215 A 
ATOM      8  N   UNL     1       9.871  -5.645  25.737  0.00  0.00    -0.327 N 
ATOM      9  H   UNL     1       9.227  -6.218  26.262  0.00  0.00    +0.145 HD
ATOM     10  H   UNL     1      10.548  -5.103  26.253  0.00  0.00    +0.145 HD
ATOM     11  N   UNL     1       7.122  -2.617  22.179  0.00  0.00    -0.233 NA
ATOM     12  N   UNL     1       7.980  -5.241  24.450  0.00  0.00    -0.195 NA
ATOM     13  C   UNL     1       6.101  -3.444  22.077  0.00  0.00    +0.201 A 
ENDBRANCH   1   2
BRANCH   1  14
ATOM     14  C   UNL     1       4.271  -5.531  24.035  0.00  0.00    +0.032 C 
BRANCH  14  15
ATOM     15  C   UNL     1       3.997  -6.822  24.847  0.00  0.00    +0.066 C 
BRANCH  15  16
ATOM     16  C   UNL     1       2.515  -7.224  24.715  0.00  0.00    +0.239 C 
BRANCH  16  17
ATOM     17  O   UNL     1       2.342  -8.323  23.803  0.00  0.00    -0.464 OA
BRANCH  17  19
ATOM     18  C   UNL     1       0.942  -6.722  22.806  0.00  0.00    +0.136 C 
ATOM     19  C   UNL     1       1.370  -8.158  22.865  0.00  0.00    +0.304 C 
ATOM     20  O   UNL     1       0.884  -9.047  22.183  0.00  0.00    -0.251 OA
ENDBRANCH  17  19
ENDBRANCH  16  17
ENDBRANCH  15  16
BRANCH  15  21
ATOM     21  C   UNL     1       4.336  -6.709  26.348  0.00  0.00    +0.239 C 
BRANCH  21  22
ATOM     22  O   UNL     1       5.746  -6.748  26.618  0.00  0.00    -0.464 OA
BRANCH  22  23
ATOM     23  C   UNL     1       6.243  -5.807  27.460  0.00  0.00    +0.304 C 
ATOM     24  O   UNL     1       7.406  -5.734  27.830  0.00  0.00    -0.251 OA
ATOM     25  C   UNL     1       5.179  -4.817  27.835  0.00  0.00    +0.136 C 
ENDBRANCH  22  23
ENDBRANCH  21  22
ENDBRANCH  15  21
ENDBRANCH  14  15
ENDBRANCH   1  14
TORSDOF 9
ENDMDL
MODEL 8
REMARK VINA RESULT:      -5.6      2.082      2.781
REMARK  Name = 
REMARK  11 active torsions:
REMARK  status: ('A' for Active; 'I' for Inactive)
REMARK    1  A    between atoms: C_1  and  C_2
REMARK    2  A    between atoms: C_2  and  O_4
REMARK    3  A    between atoms: O_4  and  C_5
REMARK    4  A    between atoms: C_5  and  C_6
REMARK    5  A    between atoms: C_6  and  C_7
REMARK    6  A    between atoms: C_6  and  C_19
REMARK    7  A    between atoms: C_7  and  C_8
REMARK    8  A    between atoms: C_8  and  N_9
REMARK    9  A    between atoms: C_19  and  O_20
REMARK   10  A    between atoms: O_20  and  C_21
REMARK   11  A    between atoms: C_21  and  C_22
REMARK                            x       y       z     vdW  Elec       q    Type
REMARK                         _______ _______ _______ _____ _____    ______ ____
ROOT
ATOM      1  C   UNL     1      10.104  -0.607  23.850  0.00  0.00    +0.125 C 
ENDROOT
BRANCH   1   2
ATOM      2  N   UNL     1       9.162  -1.577  23.340  0.00  0.00    -0.315 N 
ATOM      3  C   UNL     1       9.090  -2.887  23.726  0.00  0.00    +0.165 A 
ATOM      4  C   UNL     1       7.968  -3.378  23.080  0.00  0.00    +0.126 A 
ATOM      5  C   UNL     1       7.665  -4.709  23.334  0.00  0.00    +0.145 A 
ATOM      6  N   UNL     1       8.449  -5.421  24.186  0.00  0.00    -0.221 NA
ATOM      7  C   UNL     1       9.498  -4.811  24.768  0.00  0.00    +0.215 A 
ATOM      8  N   UNL     1      10.238  -5.575  25.647  0.00  0.00    -0.327 N 
ATOM      9  H   UNL     1      11.185  -5.232  25.709  0.00  0.00    +0.145 HD
ATOM     10  H   UNL     1      10.103  -6.555  25.447  0.00  0.00    +0.145 HD
ATOM     11  N   UNL     1       7.371  -2.404  22.314  0.00  0.00    -0.233 NA
ATOM     12  N   UNL     1       9.901  -3.547  24.566  0.00  0.00    -0.195 NA
ATOM     13  C   UNL     1       8.106  -1.327  22.507  0.00  0.00    +0.201 A 
ENDBRANCH   1   2
BRANCH   1  14
ATOM     14  C   UNL     1       9.491   0.780  24.043  0.00  0.00    +0.032 C 
BRANCH  14  15
ATOM     15  C   UNL     1       9.930   1.825  22.986  0.00  0.00    +0.066 C 
BRANCH  15  16
ATOM     16  C   UNL     1      10.265   3.163  23.674  0.00  0.00    +0.239 C 
BRANCH  16  17
ATOM     17  O   UNL     1      11.596   3.606  23.353  0.00  0.00    -0.464 OA
BRANCH  17  19
ATOM     18  C   UNL     1      13.184   5.290  22.950  0.00  0.00    +0.136 C 
ATOM     19  C   UNL     1      11.783   4.954  23.365  0.00  0.00    +0.304 C 
ATOM     20  O   UNL     1      10.947   5.782  23.694  0.00  0.00    -0.251 OA
ENDBRANCH  17  19
ENDBRANCH  16  17
ENDBRANCH  15  16
BRANCH  15  21
ATOM     21  C   UNL     1       8.878   2.095  21.889  0.00  0.00    +0.239 C 
BRANCH  21  22
ATOM     22  O   UNL     1       8.004   3.192  22.196  0.00  0.00    -0.464 OA
BRANCH  22  23
ATOM     23  C   UNL     1       6.704   2.897  22.452  0.00  0.00    +0.304 C 
ATOM     24  O   UNL     1       6.241   1.768  22.542  0.00  0.00    -0.251 OA
ATOM     25  C   UNL     1       5.910   4.150  22.675  0.00  0.00    +0.136 C 
ENDBRANCH  22  23
ENDBRANCH  21  22
ENDBRANCH  15  21
ENDBRANCH  14  15
ENDBRANCH   1  14
TORSDOF 9
ENDMDL
MODEL 9
REMARK VINA RESULT:      -5.6      3.679      7.014
REMARK  Name = 
REMARK  11 active torsions:
REMARK  status: ('A' for Active; 'I' for Inactive)
REMARK    1  A    between atoms: C_1  and  C_2
REMARK    2  A    between atoms: C_2  and  O_4
REMARK    3  A    between atoms: O_4  and  C_5
REMARK    4  A    between atoms: C_5  and  C_6
REMARK    5  A    between atoms: C_6  and  C_7
REMARK    6  A    between atoms: C_6  and  C_19
REMARK    7  A    between atoms: C_7  and  C_8
REMARK    8  A    between atoms: C_8  and  N_9
REMARK    9  A    between atoms: C_19  and  O_20
REMARK   10  A    between atoms: O_20  and  C_21
REMARK   11  A    between atoms: C_21  and  C_22
REMARK                            x       y       z     vdW  Elec       q    Type
REMARK                         _______ _______ _______ _____ _____    ______ ____
ROOT
ATOM      1  C   UNL     1       6.902  -1.566  22.924  0.00  0.00    +0.125 C 
ENDROOT
BRANCH   1   2
ATOM      2  N   UNL     1       8.146  -1.013  23.413  0.00  0.00    -0.315 N 
ATOM      3  C   UNL     1       8.540   0.289  23.274  0.00  0.00    +0.165 A 
ATOM      4  C   UNL     1       9.712   0.376  24.006  0.00  0.00    +0.126 A 
ATOM      5  C   UNL     1      10.306   1.630  24.038  0.00  0.00    +0.145 A 
ATOM      6  N   UNL     1       9.713   2.666  23.386  0.00  0.00    -0.221 NA
ATOM      7  C   UNL     1       8.558   2.448  22.733  0.00  0.00    +0.215 A 
ATOM      8  N   UNL     1       7.986   3.543  22.119  0.00  0.00    -0.327 N 
ATOM      9  H   UNL     1       7.407   3.257  21.344  0.00  0.00    +0.145 HD
ATOM     10  H   UNL     1       8.691   4.246  21.947  0.00  0.00    +0.145 HD
ATOM     11  N   UNL     1      10.034  -0.836  24.572  0.00  0.00    -0.233 NA
ATOM     12  N   UNL     1       7.920   1.274  22.608  0.00  0.00    -0.195 NA
ATOM     13  C   UNL     1       9.061  -1.647  24.208  0.00  0.00    +0.201 A 
ENDBRANCH   1   2
BRANCH   1  14
ATOM     14  C   UNL     1       6.010  -2.112  24.039  0.00  0.00    +0.032 C 
BRANCH  14  15
ATOM     15  C   UNL     1       5.909  -3.658  24.077  0.00  0.00    +0.066 C 
BRANCH  15  16
ATOM     16  C   UNL     1       4.629  -4.121  23.355  0.00  0.00    +0.239 C 
BRANCH  16  17
ATOM     17  O   UNL     1       4.882  -5.244  22.491  0.00  0.00    -0.464 OA
BRANCH  17  19
ATOM     18  C   UNL     1       6.982  -6.010  21.769  0.00  0.00    +0.136 C 
ATOM     19  C   UNL     1       5.847  -5.054  21.552  0.00  0.00    +0.304 C 
ATOM     20  O   UNL     1       5.822  -4.209  20.670  0.00  0.00    -0.251 OA
ENDBRANCH  17  19
ENDBRANCH  16  17
ENDBRANCH  15  16
BRANCH  15  21
ATOM     21  C   UNL     1       5.907  -4.257  25.499  0.00  0.00    +0.239 C 
BRANCH  21  22
ATOM     22  O   UNL     1       6.854  -5.323  25.669  0.00  0.00    -0.464 OA
BRANCH  22  23
ATOM     23  C   UNL     1       7.616  -5.302  26.793  0.00  0.00    +0.304 C 
ATOM     24  O   UNL     1       7.347  -5.876  27.839  0.00  0.00    -0.251 OA
ATOM     25  C   UNL     1       8.878  -4.524  26.562  0.00  0.00    +0.136 C 
ENDBRANCH  22  23
ENDBRANCH  21  22
ENDBRANCH  15  21
ENDBRANCH  14  15
ENDBRANCH   1  14
TORSDOF 9
ENDMDL
