MODEL 1
REMARK VINA RESULT:      -3.5      0.000      0.000
REMARK  Name = 
REMARK  2 active torsions:
REMARK  status: ('A' for Active; 'I' for Inactive)
REMARK    1  A    between atoms: C_2  and  C_4
REMARK    2  A    between atoms: C_4  and  O_5
REMARK                            x       y       z     vdW  Elec       q    Type
REMARK                         _______ _______ _______ _____ _____    ______ ____
ROOT
ATOM      1  N   UNL     1       7.900  -5.909  27.135  0.00  0.00    -0.320 N 
ATOM      2  H   UNL     1       7.933  -6.841  26.733  0.00  0.00    +0.145 HD
ATOM      3  H   UNL     1       7.398  -5.752  27.998  0.00  0.00    +0.145 HD
ATOM      4  C   UNL     1       8.529  -4.870  26.513  0.00  0.00    +0.319 C 
ATOM      5  O   UNL     1       8.549  -3.714  26.914  0.00  0.00    -0.263 OA
ENDROOT
BRANCH   4   6
ATOM      6  C   UNL     1       9.265  -5.217  25.204  0.00  0.00    +0.392 C 
ATOM      7  O   UNL     1       8.718  -5.215  24.118  0.00  0.00    -0.240 OA
BRANCH   6   8
ATOM      8  O   UNL     1      10.555  -5.509  25.450  0.00  0.00    -0.474 OA
ATOM      9  H   UNL     1      10.824  -5.070  26.291  0.00  0.00    +0.296 HD
ENDBRANCH   6   8
ENDBRANCH   4   6
TORSDOF 2
ENDMDL
MODEL 2
REMARK VINA RESULT:      -3.3      1.591      2.697
REMARK  Name = 
REMARK  2 active torsions:
REMARK  status: ('A' for Active; 'I' for Inactive)
REMARK    1  A    between atoms: C_2  and  C_4
REMARK    2  A    between atoms: C_4  and  O_5
REMARK                            x       y       z     vdW  Elec       q    Type
REMARK                         _______ _______ _______ _____ _____    ______ ____
ROOT
ATOM      1  N   UNL     1      10.174  -5.603  25.683  0.00  0.00    -0.320 N 
ATOM      2  H   UNL     1      10.528  -5.603  26.635  0.00  0.00    +0.145 HD
ATOM      3  H   UNL     1      10.783  -5.865  24.921  0.00  0.00    +0.145 HD
ATOM      4  C   UNL     1       8.880  -5.249  25.431  0.00  0.00    +0.319 C 
ATOM      5  O   UNL     1       8.359  -5.216  24.325  0.00  0.00    -0.263 OA
ENDROOT
BRANCH   4   6
ATOM      6  C   UNL     1       8.037  -4.867  26.663  0.00  0.00    +0.392 C 
ATOM      7  O   UNL     1       7.557  -3.760  26.819  0.00  0.00    -0.240 OA
BRANCH   6   8
ATOM      8  O   UNL     1       7.923  -5.913  27.501  0.00  0.00    -0.474 OA
ATOM      9  H   UNL     1       8.540  -5.780  28.259  0.00  0.00    +0.296 HD
ENDBRANCH   6   8
ENDBRANCH   4   6
TORSDOF 2
ENDMDL
MODEL 3
REMARK VINA RESULT:      -3.2      7.145      7.364
REMARK  Name = 
REMARK  2 active torsions:
REMARK  status: ('A' for Active; 'I' for Inactive)
REMARK    1  A    between atoms: C_2  and  C_4
REMARK    2  A    between atoms: C_4  and  O_5
REMARK                            x       y       z     vdW  Elec       q    Type
REMARK                         _______ _______ _______ _____ _____    ______ ____
ROOT
ATOM      1  N   UNL     1       9.673  -1.007  21.219  0.00  0.00    -0.320 N 
ATOM      2  H   UNL     1       9.157  -0.852  20.357  0.00  0.00    +0.145 HD
ATOM      3  H   UNL     1      10.018  -1.931  21.437  0.00  0.00    +0.145 HD
ATOM      4  C   UNL     1       9.900   0.027  22.079  0.00  0.00    +0.319 C 
ATOM      5  O   UNL     1      10.508  -0.055  23.138  0.00  0.00    -0.263 OA
ENDROOT
BRANCH   4   6
ATOM      6  C   UNL     1       9.331   1.394  21.651  0.00  0.00    +0.392 C 
ATOM      7  O   UNL     1       8.158   1.568  21.383  0.00  0.00    -0.240 OA
BRANCH   6   8
ATOM      8  O   UNL     1      10.304   2.324  21.626  0.00  0.00    -0.474 OA
ATOM      9  H   UNL     1      11.001   2.070  22.276  0.00  0.00    +0.296 HD
ENDBRANCH   6   8
ENDBRANCH   4   6
TORSDOF 2
ENDMDL
MODEL 4
REMARK VINA RESULT:      -3.2      7.134      7.430
REMARK  Name = 
REMARK  2 active torsions:
REMARK  status: ('A' for Active; 'I' for Inactive)
REMARK    1  A    between atoms: C_2  and  C_4
REMARK    2  A    between atoms: C_4  and  O_5
REMARK                            x       y       z     vdW  Elec       q    Type
REMARK                         _______ _______ _______ _____ _____    ______ ____
ROOT
ATOM      1  N   UNL     1      10.260   2.355  21.799  0.00  0.00    -0.320 N 
ATOM      2  H   UNL     1      11.204   2.144  22.111  0.00  0.00    +0.145 HD
ATOM      3  H   UNL     1      10.003   3.309  21.592  0.00  0.00    +0.145 HD
ATOM      4  C   UNL     1       9.343   1.355  21.659  0.00  0.00    +0.319 C 
ATOM      5  O   UNL     1       8.186   1.503  21.290  0.00  0.00    -0.263 OA
ENDROOT
BRANCH   4   6
ATOM      6  C   UNL     1       9.840  -0.064  21.999  0.00  0.00    +0.392 C 
ATOM      7  O   UNL     1      10.440  -0.327  23.024  0.00  0.00    -0.240 OA
BRANCH   6   8
ATOM      8  O   UNL     1       9.513  -0.927  21.020  0.00  0.00    -0.474 OA
ATOM      9  H   UNL     1      10.107  -1.712  21.079  0.00  0.00    +0.296 HD
ENDBRANCH   6   8
ENDBRANCH   4   6
TORSDOF 2
ENDMDL
MODEL 5
REMARK VINA RESULT:      -3.0      6.872      7.235
REMARK  Name = 
REMARK  2 active torsions:
REMARK  status: ('A' for Active; 'I' for Inactive)
REMARK    1  A    between atoms: C_2  and  C_4
REMARK    2  A    between atoms: C_4  and  O_5
REMARK                            x       y       z     vdW  Elec       q    Type
REMARK                         _______ _______ _______ _____ _____    ______ ____
ROOT
ATOM      1  N   UNL     1      10.076   2.189  21.685  0.00  0.00    -0.320 N 
ATOM      2  H   UNL     1      10.458   2.854  22.351  0.00  0.00    +0.145 HD
ATOM      3  H   UNL     1       9.804   2.501  20.764  0.00  0.00    +0.145 HD
ATOM      4  C   UNL     1       9.929   0.877  22.033  0.00  0.00    +0.319 C 
ATOM      5  O   UNL     1       9.481  -0.000  21.307  0.00  0.00    -0.263 OA
ENDROOT
BRANCH   4   6
ATOM      6  C   UNL     1      10.376   0.507  23.461  0.00  0.00    +0.392 C 
ATOM      7  O   UNL     1      10.279  -0.618  23.913  0.00  0.00    -0.240 OA
BRANCH   6   8
ATOM      8  O   UNL     1      10.870   1.585  24.097  0.00  0.00    -0.474 OA
ATOM      9  H   UNL     1      11.831   1.441  24.263  0.00  0.00    +0.296 HD
ENDBRANCH   6   8
ENDBRANCH   4   6
TORSDOF 2
ENDMDL
MODEL 6
REMARK VINA RESULT:      -3.0      1.194      1.194
REMARK  Name = 
REMARK  2 active torsions:
REMARK  status: ('A' for Active; 'I' for Inactive)
REMARK    1  A    between atoms: C_2  and  C_4
REMARK    2  A    between atoms: C_4  and  O_5
REMARK                            x       y       z     vdW  Elec       q    Type
REMARK                         _______ _______ _______ _____ _____    ______ ____
ROOT
ATOM      1  N   UNL     1       6.607  -5.491  25.543  0.00  0.00    -0.320 N 
ATOM      2  H   UNL     1       6.544  -5.572  24.532  0.00  0.00    +0.145 HD
ATOM      3  H   UNL     1       5.772  -5.572  26.105  0.00  0.00    +0.145 HD
ATOM      4  C   UNL     1       7.814  -5.271  26.140  0.00  0.00    +0.319 C 
ATOM      5  O   UNL     1       7.995  -5.159  27.345  0.00  0.00    -0.263 OA
ENDROOT
BRANCH   4   6
ATOM      6  C   UNL     1       9.024  -5.164  25.192  0.00  0.00    +0.392 C 
ATOM      7  O   UNL     1       8.960  -4.640  24.096  0.00  0.00    -0.240 OA
BRANCH   6   8
ATOM      8  O   UNL     1      10.114  -5.719  25.751  0.00  0.00    -0.474 OA
ATOM      9  H   UNL     1      10.902  -5.486  25.206  0.00  0.00    +0.296 HD
ENDBRANCH   6   8
ENDBRANCH   4   6
TORSDOF 2
ENDMDL
MODEL 7
REMARK VINA RESULT:      -3.0      6.963      7.148
REMARK  Name = 
REMARK  2 active torsions:
REMARK  status: ('A' for Active; 'I' for Inactive)
REMARK    1  A    between atoms: C_2  and  C_4
REMARK    2  A    between atoms: C_4  and  O_5
REMARK                            x       y       z     vdW  Elec       q    Type
REMARK                         _______ _______ _______ _____ _____    ______ ____
ROOT
ATOM      1  N   UNL     1      10.267   1.854  24.184  0.00  0.00    -0.320 N 
ATOM      2  H   UNL     1      10.046   2.769  23.800  0.00  0.00    +0.145 HD
ATOM      3  H   UNL     1      10.510   1.766  25.160  0.00  0.00    +0.145 HD
ATOM      4  C   UNL     1      10.236   0.748  23.385  0.00  0.00    +0.319 C 
ATOM      5  O   UNL     1      10.484  -0.393  23.750  0.00  0.00    -0.263 OA
ENDROOT
BRANCH   4   6
ATOM      6  C   UNL     1       9.852   0.993  21.913  0.00  0.00    +0.392 C 
ATOM      7  O   UNL     1       9.368   0.131  21.204  0.00  0.00    -0.240 OA
BRANCH   6   8
ATOM      8  O   UNL     1      10.126   2.261  21.557  0.00  0.00    -0.474 OA
ATOM      9  H   UNL     1       9.976   2.847  22.336  0.00  0.00    +0.296 HD
ENDBRANCH   6   8
ENDBRANCH   4   6
TORSDOF 2
ENDMDL
MODEL 8
REMARK VINA RESULT:      -3.0      5.382      5.598
REMARK  Name = 
REMARK  2 active torsions:
REMARK  status: ('A' for Active; 'I' for Inactive)
REMARK    1  A    between atoms: C_2  and  C_4
REMARK    2  A    between atoms: C_4  and  O_5
REMARK                            x       y       z     vdW  Elec       q    Type
REMARK                         _______ _______ _______ _____ _____    ______ ____
ROOT
ATOM      1  N   UNL     1      10.100   0.790  22.518  0.00  0.00    -0.320 N 
ATOM      2  H   UNL     1       9.900   0.585  21.543  0.00  0.00    +0.145 HD
ATOM      3  H   UNL     1      10.133   1.750  22.831  0.00  0.00    +0.145 HD
ATOM      4  C   UNL     1      10.326  -0.225  23.401  0.00  0.00    +0.319 C 
ATOM      5  O   UNL     1      10.574  -0.084  24.591  0.00  0.00    -0.263 OA
ENDROOT
BRANCH   4   6
ATOM      6  C   UNL     1      10.252  -1.650  22.820  0.00  0.00    +0.392 C 
ATOM      7  O   UNL     1      10.255  -2.649  23.515  0.00  0.00    -0.240 OA
BRANCH   6   8
ATOM      8  O   UNL     1      10.184  -1.611  21.477  0.00  0.00    -0.474 OA
ATOM      9  H   UNL     1       9.577  -0.881  21.213  0.00  0.00    +0.296 HD
ENDBRANCH   6   8
ENDBRANCH   4   6
TORSDOF 2
ENDMDL
MODEL 9
REMARK VINA RESULT:      -2.9      4.350      4.705
REMARK  Name = 
REMARK  2 active torsions:
REMARK  status: ('A' for Active; 'I' for Inactive)
REMARK    1  A    between atoms: C_2  and  C_4
REMARK    2  A    between atoms: C_4  and  O_5
REMARK                            x       y       z     vdW  Elec       q    Type
REMARK                         _______ _______ _______ _____ _____    ______ ____
ROOT
ATOM      1  N   UNL     1       8.082  -2.568  23.343  0.00  0.00    -0.320 N 
ATOM      2  H   UNL     1       7.592  -1.853  22.812  0.00  0.00    +0.145 HD
ATOM      3  H   UNL     1       7.561  -3.318  23.774  0.00  0.00    +0.145 HD
ATOM      4  C   UNL     1       9.439  -2.516  23.474  0.00  0.00    +0.319 C 
ATOM      5  O   UNL     1      10.121  -3.324  24.090  0.00  0.00    -0.263 OA
ENDROOT
BRANCH   4   6
ATOM      6  C   UNL     1      10.136  -1.331  22.777  0.00  0.00    +0.392 C 
ATOM      7  O   UNL     1      10.542  -0.355  23.379  0.00  0.00    -0.240 OA
BRANCH   6   8
ATOM      8  O   UNL     1      10.220  -1.545  21.451  0.00  0.00    -0.474 OA
ATOM      9  H   UNL     1      10.793  -0.848  21.054  0.00  0.00    +0.296 HD
ENDBRANCH   6   8
ENDBRANCH   4   6
TORSDOF 2
ENDMDL
