MODEL 1
REMARK VINA RESULT:      -5.2      0.000      0.000
REMARK  Name = 
REMARK  2 active torsions:
REMARK  status: ('A' for Active; 'I' for Inactive)
REMARK    1  A    between atoms: N_2  and  N_4
REMARK    2  A    between atoms: C_9  and  C_12
REMARK                            x       y       z     vdW  Elec       q    Type
REMARK                         _______ _______ _______ _____ _____    ______ ____
ROOT
ATOM      1  N   UNL     1       8.403  -5.813  26.334  0.00  0.00    -0.266 N 
ATOM      2  C   UNL     1       8.746  -4.657  25.603  0.00  0.00    +0.155 A 
ATOM      3  C   UNL     1       7.949  -3.517  25.617  0.00  0.00    +0.049 A 
ATOM      4  C   UNL     1       8.323  -2.405  24.868  0.00  0.00    +0.038 A 
ATOM      5  C   UNL     1       9.482  -2.487  24.119  0.00  0.00    +0.148 A 
ATOM      6  N   UNL     1      10.250  -3.603  24.100  0.00  0.00    -0.143 NA
ATOM      7  N   UNL     1       9.870  -4.692  24.850  0.00  0.00    -0.132 NA
ATOM      8  H   UNL     1       9.183  -6.474  26.271  0.00  0.00    +0.167 HD
ENDROOT
BRANCH   5   9
ATOM      9  C   UNL     1       9.933  -1.343  23.278  0.00  0.00    +0.262 C 
ATOM     10  N   UNL     1       9.869  -1.523  21.922  0.00  0.00    -0.324 N 
ATOM     11  H   UNL     1      10.143  -0.764  21.314  0.00  0.00    +0.145 HD
ATOM     12  H   UNL     1       9.516  -2.386  21.525  0.00  0.00    +0.145 HD
ATOM     13  O   UNL     1      10.336  -0.294  23.766  0.00  0.00    -0.269 OA
ENDBRANCH   5   9
BRANCH   1  15
ATOM     14  H   UNL     1       7.249  -6.568  27.795  0.00  0.00    +0.140 HD
ATOM     15  N   UNL     1       7.707  -5.686  27.551  0.00  0.00    -0.255 NA
ATOM     16  H   UNL     1       8.352  -5.475  28.318  0.00  0.00    +0.140 HD
ENDBRANCH   1  15
TORSDOF 2
ENDMDL
MODEL 2
REMARK VINA RESULT:      -5.0      2.561      5.556
REMARK  Name = 
REMARK  2 active torsions:
REMARK  status: ('A' for Active; 'I' for Inactive)
REMARK    1  A    between atoms: N_2  and  N_4
REMARK    2  A    between atoms: C_9  and  C_12
REMARK                            x       y       z     vdW  Elec       q    Type
REMARK                         _______ _______ _______ _____ _____    ______ ____
ROOT
ATOM      1  N   UNL     1      10.287   2.128  21.883  0.00  0.00    -0.266 N 
ATOM      2  C   UNL     1      10.023   0.856  22.431  0.00  0.00    +0.155 A 
ATOM      3  C   UNL     1      10.278   0.565  23.767  0.00  0.00    +0.049 A 
ATOM      4  C   UNL     1      10.013  -0.710  24.258  0.00  0.00    +0.038 A 
ATOM      5  C   UNL     1       9.512  -1.653  23.380  0.00  0.00    +0.148 A 
ATOM      6  N   UNL     1       9.275  -1.368  22.077  0.00  0.00    -0.143 NA
ATOM      7  N   UNL     1       9.536  -0.102  21.607  0.00  0.00    -0.132 NA
ATOM      8  H   UNL     1       9.916   2.148  20.929  0.00  0.00    +0.167 HD
ENDROOT
BRANCH   5   9
ATOM      9  C   UNL     1       9.224  -3.043  23.831  0.00  0.00    +0.262 C 
ATOM     10  N   UNL     1       7.948  -3.496  23.626  0.00  0.00    -0.324 N 
ATOM     11  H   UNL     1       7.715  -4.441  23.895  0.00  0.00    +0.145 HD
ATOM     12  H   UNL     1       7.252  -2.913  23.176  0.00  0.00    +0.145 HD
ATOM     13  O   UNL     1      10.078  -3.750  24.352  0.00  0.00    -0.269 OA
ENDBRANCH   5   9
BRANCH   1  15
ATOM     14  H   UNL     1      10.644   3.136  23.584  0.00  0.00    +0.140 HD
ATOM     15  N   UNL     1      10.163   3.274  22.692  0.00  0.00    -0.255 NA
ATOM     16  H   UNL     1      10.607   4.082  22.248  0.00  0.00    +0.140 HD
ENDBRANCH   1  15
TORSDOF 2
ENDMDL
MODEL 3
REMARK VINA RESULT:      -4.8      3.499      4.194
REMARK  Name = 
REMARK  2 active torsions:
REMARK  status: ('A' for Active; 'I' for Inactive)
REMARK    1  A    between atoms: N_2  and  N_4
REMARK    2  A    between atoms: C_9  and  C_12
REMARK                            x       y       z     vdW  Elec       q    Type
REMARK                         _______ _______ _______ _____ _____    ______ ____
ROOT
ATOM      1  N   UNL     1       4.457  -6.278  22.640  0.00  0.00    -0.266 N 
ATOM      2  C   UNL     1       5.673  -5.891  23.239  0.00  0.00    +0.155 A 
ATOM      3  C   UNL     1       5.741  -5.493  24.570  0.00  0.00    +0.049 A 
ATOM      4  C   UNL     1       6.964  -5.106  25.113  0.00  0.00    +0.038 A 
ATOM      5  C   UNL     1       8.073  -5.121  24.289  0.00  0.00    +0.148 A 
ATOM      6  N   UNL     1       8.000  -5.500  22.991  0.00  0.00    -0.143 NA
ATOM      7  N   UNL     1       6.787  -5.885  22.470  0.00  0.00    -0.132 NA
ATOM      8  H   UNL     1       4.663  -6.639  21.704  0.00  0.00    +0.167 HD
ENDROOT
BRANCH   5   9
ATOM      9  C   UNL     1       9.409  -4.702  24.796  0.00  0.00    +0.262 C 
ATOM     10  N   UNL     1       9.989  -5.518  25.730  0.00  0.00    -0.324 N 
ATOM     11  H   UNL     1      10.905  -5.284  26.084  0.00  0.00    +0.145 HD
ATOM     12  H   UNL     1       9.530  -6.368  26.039  0.00  0.00    +0.145 HD
ATOM     13  O   UNL     1       9.968  -3.686  24.400  0.00  0.00    -0.269 OA
ENDBRANCH   5   9
BRANCH   1  15
ATOM     14  H   UNL     1       3.579  -7.927  23.380  0.00  0.00    +0.140 HD
ATOM     15  N   UNL     1       3.468  -6.911  23.418  0.00  0.00    -0.255 NA
ATOM     16  H   UNL     1       3.558  -6.648  24.403  0.00  0.00    +0.140 HD
ENDBRANCH   1  15
TORSDOF 2
ENDMDL
MODEL 4
REMARK VINA RESULT:      -4.8      4.009      5.839
REMARK  Name = 
REMARK  2 active torsions:
REMARK  status: ('A' for Active; 'I' for Inactive)
REMARK    1  A    between atoms: N_2  and  N_4
REMARK    2  A    between atoms: C_9  and  C_12
REMARK                            x       y       z     vdW  Elec       q    Type
REMARK                         _______ _______ _______ _____ _____    ______ ____
ROOT
ATOM      1  N   UNL     1       9.452  -5.028  26.382  0.00  0.00    -0.266 N 
ATOM      2  C   UNL     1       8.085  -5.374  26.381  0.00  0.00    +0.155 A 
ATOM      3  C   UNL     1       7.294  -5.236  25.245  0.00  0.00    +0.049 A 
ATOM      4  C   UNL     1       5.946  -5.578  25.297  0.00  0.00    +0.038 A 
ATOM      5  C   UNL     1       5.439  -6.035  26.499  0.00  0.00    +0.148 A 
ATOM      6  N   UNL     1       6.210  -6.158  27.606  0.00  0.00    -0.143 NA
ATOM      7  N   UNL     1       7.542  -5.821  27.537  0.00  0.00    -0.132 NA
ATOM      8  H   UNL     1       9.855  -5.320  27.277  0.00  0.00    +0.167 HD
ENDROOT
BRANCH   5   9
ATOM      9  C   UNL     1       4.001  -6.400  26.634  0.00  0.00    +0.262 C 
ATOM     10  N   UNL     1       3.600  -7.539  25.988  0.00  0.00    -0.324 N 
ATOM     11  H   UNL     1       2.639  -7.837  26.073  0.00  0.00    +0.145 HD
ATOM     12  H   UNL     1       4.260  -8.103  25.464  0.00  0.00    +0.145 HD
ATOM     13  O   UNL     1       3.215  -5.727  27.290  0.00  0.00    -0.269 OA
ENDBRANCH   5   9
BRANCH   1  15
ATOM     14  H   UNL     1      10.079  -4.377  24.588  0.00  0.00    +0.140 HD
ATOM     15  N   UNL     1      10.210  -5.181  25.205  0.00  0.00    -0.255 NA
ATOM     16  H   UNL     1      11.210  -5.219  25.420  0.00  0.00    +0.140 HD
ENDBRANCH   1  15
TORSDOF 2
ENDMDL
MODEL 5
REMARK VINA RESULT:      -4.7      2.462      3.514
REMARK  Name = 
REMARK  2 active torsions:
REMARK  status: ('A' for Active; 'I' for Inactive)
REMARK    1  A    between atoms: N_2  and  N_4
REMARK    2  A    between atoms: C_9  and  C_12
REMARK                            x       y       z     vdW  Elec       q    Type
REMARK                         _______ _______ _______ _____ _____    ______ ____
ROOT
ATOM      1  N   UNL     1       9.356  -3.363  24.614  0.00  0.00    -0.266 N 
ATOM      2  C   UNL     1       9.558  -2.070  24.090  0.00  0.00    +0.155 A 
ATOM      3  C   UNL     1       9.736  -1.849  22.728  0.00  0.00    +0.049 A 
ATOM      4  C   UNL     1       9.945  -0.554  22.261  0.00  0.00    +0.038 A 
ATOM      5  C   UNL     1       9.982   0.472  23.187  0.00  0.00    +0.148 A 
ATOM      6  N   UNL     1       9.818   0.251  24.513  0.00  0.00    -0.143 NA
ATOM      7  N   UNL     1       9.606  -1.033  24.959  0.00  0.00    -0.132 NA
ATOM      8  H   UNL     1       9.133  -3.273  25.609  0.00  0.00    +0.167 HD
ENDROOT
BRANCH   5   9
ATOM      9  C   UNL     1      10.221   1.879  22.761  0.00  0.00    +0.262 C 
ATOM     10  N   UNL     1       9.806   2.211  21.499  0.00  0.00    -0.324 N 
ATOM     11  H   UNL     1       9.928   3.161  21.178  0.00  0.00    +0.145 HD
ATOM     12  H   UNL     1       9.347   1.532  20.903  0.00  0.00    +0.145 HD
ATOM     13  O   UNL     1      10.755   2.701  23.496  0.00  0.00    -0.269 OA
ENDBRANCH   5   9
BRANCH   1  15
ATOM     14  H   UNL     1       9.259  -4.625  23.053  0.00  0.00    +0.140 HD
ATOM     15  N   UNL     1       8.680  -4.329  23.843  0.00  0.00    -0.255 NA
ATOM     16  H   UNL     1       8.496  -5.170  24.396  0.00  0.00    +0.140 HD
ENDBRANCH   1  15
TORSDOF 2
ENDMDL
MODEL 6
REMARK VINA RESULT:      -4.7      3.683      5.199
REMARK  Name = 
REMARK  2 active torsions:
REMARK  status: ('A' for Active; 'I' for Inactive)
REMARK    1  A    between atoms: N_2  and  N_4
REMARK    2  A    between atoms: C_9  and  C_12
REMARK                            x       y       z     vdW  Elec       q    Type
REMARK                         _______ _______ _______ _____ _____    ______ ____
ROOT
ATOM      1  N   UNL     1       5.600  -6.188  21.510  0.00  0.00    -0.266 N 
ATOM      2  C   UNL     1       6.165  -5.858  22.758  0.00  0.00    +0.155 A 
ATOM      3  C   UNL     1       7.468  -5.384  22.872  0.00  0.00    +0.049 A 
ATOM      4  C   UNL     1       7.986  -5.085  24.129  0.00  0.00    +0.038 A 
ATOM      5  C   UNL     1       7.176  -5.288  25.230  0.00  0.00    +0.148 A 
ATOM      6  N   UNL     1       5.911  -5.759  25.116  0.00  0.00    -0.143 NA
ATOM      7  N   UNL     1       5.411  -6.045  23.867  0.00  0.00    -0.132 NA
ATOM      8  H   UNL     1       4.608  -6.399  21.654  0.00  0.00    +0.167 HD
ENDROOT
BRANCH   5   9
ATOM      9  C   UNL     1       7.671  -5.008  26.607  0.00  0.00    +0.262 C 
ATOM     10  N   UNL     1       7.541  -6.022  27.517  0.00  0.00    -0.324 N 
ATOM     11  H   UNL     1       7.885  -5.884  28.457  0.00  0.00    +0.145 HD
ATOM     12  H   UNL     1       7.144  -6.916  27.252  0.00  0.00    +0.145 HD
ATOM     13  O   UNL     1       8.173  -3.933  26.914  0.00  0.00    -0.269 OA
ENDBRANCH   5   9
BRANCH   1  15
ATOM     14  H   UNL     1       5.364  -5.688  19.578  0.00  0.00    +0.140 HD
ATOM     15  N   UNL     1       5.991  -5.477  20.359  0.00  0.00    -0.255 NA
ATOM     16  H   UNL     1       5.925  -4.468  20.516  0.00  0.00    +0.140 HD
ENDBRANCH   1  15
TORSDOF 2
ENDMDL
MODEL 7
REMARK VINA RESULT:      -4.7      3.029      4.552
REMARK  Name = 
REMARK  2 active torsions:
REMARK  status: ('A' for Active; 'I' for Inactive)
REMARK    1  A    between atoms: N_2  and  N_4
REMARK    2  A    between atoms: C_9  and  C_12
REMARK                            x       y       z     vdW  Elec       q    Type
REMARK                         _______ _______ _______ _____ _____    ______ ____
ROOT
ATOM      1  N   UNL     1       4.255  -7.303  28.002  0.00  0.00    -0.266 N 
ATOM      2  C   UNL     1       5.354  -6.625  27.435  0.00  0.00    +0.155 A 
ATOM      3  C   UNL     1       5.359  -6.220  26.104  0.00  0.00    +0.049 A 
ATOM      4  C   UNL     1       6.474  -5.565  25.586  0.00  0.00    +0.038 A 
ATOM      5  C   UNL     1       7.551  -5.355  26.426  0.00  0.00    +0.148 A 
ATOM      6  N   UNL     1       7.546  -5.760  27.719  0.00  0.00    -0.143 NA
ATOM      7  N   UNL     1       6.436  -6.401  28.218  0.00  0.00    -0.132 NA
ATOM      8  H   UNL     1       4.422  -7.395  29.008  0.00  0.00    +0.167 HD
ENDROOT
BRANCH   5   9
ATOM      9  C   UNL     1       8.784  -4.679  25.935  0.00  0.00    +0.262 C 
ATOM     10  N   UNL     1       9.883  -5.476  25.756  0.00  0.00    -0.324 N 
ATOM     11  H   UNL     1      10.735  -5.063  25.402  0.00  0.00    +0.145 HD
ATOM     12  H   UNL     1       9.842  -6.473  25.935  0.00  0.00    +0.145 HD
ATOM     13  O   UNL     1       8.819  -3.478  25.698  0.00  0.00    -0.269 OA
ENDBRANCH   5   9
BRANCH   1  15
ATOM     14  H   UNL     1       2.468  -6.408  28.200  0.00  0.00    +0.140 HD
ATOM     15  N   UNL     1       2.953  -7.024  27.544  0.00  0.00    -0.255 NA
ATOM     16  H   UNL     1       2.982  -6.525  26.650  0.00  0.00    +0.140 HD
ENDBRANCH   1  15
TORSDOF 2
ENDMDL
MODEL 8
REMARK VINA RESULT:      -4.6      2.877      4.696
REMARK  Name = 
REMARK  2 active torsions:
REMARK  status: ('A' for Active; 'I' for Inactive)
REMARK    1  A    between atoms: N_2  and  N_4
REMARK    2  A    between atoms: C_9  and  C_12
REMARK                            x       y       z     vdW  Elec       q    Type
REMARK                         _______ _______ _______ _____ _____    ______ ____
ROOT
ATOM      1  N   UNL     1       8.999   0.493  25.482  0.00  0.00    -0.266 N 
ATOM      2  C   UNL     1       9.026  -0.913  25.387  0.00  0.00    +0.155 A 
ATOM      3  C   UNL     1       9.576  -1.565  24.288  0.00  0.00    +0.049 A 
ATOM      4  C   UNL     1       9.566  -2.956  24.235  0.00  0.00    +0.038 A 
ATOM      5  C   UNL     1       8.989  -3.642  25.287  0.00  0.00    +0.148 A 
ATOM      6  N   UNL     1       8.445  -3.003  26.351  0.00  0.00    -0.143 NA
ATOM      7  N   UNL     1       8.467  -1.629  26.392  0.00  0.00    -0.132 NA
ATOM      8  H   UNL     1       8.660   0.744  26.415  0.00  0.00    +0.167 HD
ENDROOT
BRANCH   5   9
ATOM      9  C   UNL     1       8.925  -5.130  25.288  0.00  0.00    +0.262 C 
ATOM     10  N   UNL     1       8.513  -5.720  26.453  0.00  0.00    -0.324 N 
ATOM     11  H   UNL     1       8.433  -6.726  26.491  0.00  0.00    +0.145 HD
ATOM     12  H   UNL     1       8.252  -5.162  27.258  0.00  0.00    +0.145 HD
ATOM     13  O   UNL     1       9.219  -5.796  24.303  0.00  0.00    -0.269 OA
ENDBRANCH   5   9
BRANCH   1  15
ATOM     14  H   UNL     1       9.935   2.238  25.143  0.00  0.00    +0.140 HD
ATOM     15  N   UNL     1      10.034   1.250  24.900  0.00  0.00    -0.255 NA
ATOM     16  H   UNL     1      10.946   0.955  25.261  0.00  0.00    +0.140 HD
ENDBRANCH   1  15
TORSDOF 2
ENDMDL
MODEL 9
REMARK VINA RESULT:      -4.6      4.849      5.327
REMARK  Name = 
REMARK  2 active torsions:
REMARK  status: ('A' for Active; 'I' for Inactive)
REMARK    1  A    between atoms: N_2  and  N_4
REMARK    2  A    between atoms: C_9  and  C_12
REMARK                            x       y       z     vdW  Elec       q    Type
REMARK                         _______ _______ _______ _____ _____    ______ ____
ROOT
ATOM      1  N   UNL     1       4.921  -7.276  27.922  0.00  0.00    -0.266 N 
ATOM      2  C   UNL     1       5.045  -6.788  26.605  0.00  0.00    +0.155 A 
ATOM      3  C   UNL     1       5.999  -5.835  26.261  0.00  0.00    +0.049 A 
ATOM      4  C   UNL     1       6.073  -5.375  24.950  0.00  0.00    +0.038 A 
ATOM      5  C   UNL     1       5.171  -5.881  24.032  0.00  0.00    +0.148 A 
ATOM      6  N   UNL     1       4.237  -6.801  24.373  0.00  0.00    -0.143 NA
ATOM      7  N   UNL     1       4.180  -7.251  25.672  0.00  0.00    -0.132 NA
ATOM      8  H   UNL     1       4.243  -8.044  27.915  0.00  0.00    +0.167 HD
ENDROOT
BRANCH   5   9
ATOM      9  C   UNL     1       5.179  -5.419  22.616  0.00  0.00    +0.262 C 
ATOM     10  N   UNL     1       5.676  -6.299  21.693  0.00  0.00    -0.324 N 
ATOM     11  H   UNL     1       5.679  -6.036  20.717  0.00  0.00    +0.145 HD
ATOM     12  H   UNL     1       6.003  -7.218  21.968  0.00  0.00    +0.145 HD
ATOM     13  O   UNL     1       4.759  -4.316  22.288  0.00  0.00    -0.269 OA
ENDBRANCH   5   9
BRANCH   1  15
ATOM     14  H   UNL     1       5.799  -7.596  29.700  0.00  0.00    +0.140 HD
ATOM     15  N   UNL     1       6.064  -7.375  28.737  0.00  0.00    -0.255 NA
ATOM     16  H   UNL     1       6.669  -8.139  28.423  0.00  0.00    +0.140 HD
ENDBRANCH   1  15
TORSDOF 2
ENDMDL
