MODEL 1
REMARK VINA RESULT:      -3.5      0.000      0.000
REMARK  Name = 
REMARK  5 active torsions:
REMARK  status: ('A' for Active; 'I' for Inactive)
REMARK    1  A    between atoms: N_1  and  CA_2
REMARK    2  A    between atoms: CA_2  and  CB_4
REMARK    3  A    between atoms: CA_2  and  C_6
REMARK    4  A    between atoms: CB_4  and  OG_5
REMARK    5  A    between atoms: C_6  and  O_7
REMARK                            x       y       z     vdW  Elec       q    Type
REMARK                         _______ _______ _______ _____ _____    ______ ____
ROOT
ATOM      1  CA  SER A   1       8.775  -4.245  26.573  0.00  0.00    +0.186 C 
ENDROOT
BRANCH   1   2
ATOM      2  N   SER A   1       8.458  -2.797  26.319  0.00  0.00    -0.317 NA
ATOM      3  H1  SER A   1       9.276  -2.386  25.848  0.00  0.00    +0.119 HD
ATOM      4  H2  SER A   1       7.765  -2.793  25.558  0.00  0.00    +0.119 HD
ENDBRANCH   1   2
BRANCH   1   5
ATOM      5  C   SER A   1       9.602  -4.789  25.408  0.00  0.00    +0.324 C 
ATOM      6  OXT SER A   1      10.010  -4.128  24.467  0.00  0.00    -0.249 OA
BRANCH   5   7
ATOM      7  O   SER A   1       9.816  -6.125  25.538  0.00  0.00    -0.479 OA
ATOM      8  H   SER A   1       9.406  -6.544  24.736  0.00  0.00    +0.295 HD
ENDBRANCH   5   7
ENDBRANCH   1   5
BRANCH   1   9
ATOM      9  CB  SER A   1       7.501  -5.075  26.741  0.00  0.00    +0.185 C 
BRANCH   9  10
ATOM     10  OG  SER A   1       7.702  -6.082  27.736  0.00  0.00    -0.393 OA
ATOM     11  H   SER A   1       8.172  -5.663  28.479  0.00  0.00    +0.209 HD
ENDBRANCH   9  10
ENDBRANCH   1   9
TORSDOF 5
ENDMDL
MODEL 2
REMARK VINA RESULT:      -3.4      1.944      2.263
REMARK  Name = 
REMARK  5 active torsions:
REMARK  status: ('A' for Active; 'I' for Inactive)
REMARK    1  A    between atoms: N_1  and  CA_2
REMARK    2  A    between atoms: CA_2  and  CB_4
REMARK    3  A    between atoms: CA_2  and  C_6
REMARK    4  A    between atoms: CB_4  and  OG_5
REMARK    5  A    between atoms: C_6  and  O_7
REMARK                            x       y       z     vdW  Elec       q    Type
REMARK                         _______ _______ _______ _____ _____    ______ ____
ROOT
ATOM      1  CA  SER A   1       7.825  -4.950  26.157  0.00  0.00    +0.186 C 
ENDROOT
BRANCH   1   2
ATOM      2  N   SER A   1       7.954  -5.769  27.411  0.00  0.00    -0.317 NA
ATOM      3  H1  SER A   1       7.013  -6.107  27.650  0.00  0.00    +0.119 HD
ATOM      4  H2  SER A   1       8.416  -6.643  27.126  0.00  0.00    +0.119 HD
ENDBRANCH   1   2
BRANCH   1   5
ATOM      5  C   SER A   1       8.955  -5.322  25.196  0.00  0.00    +0.324 C 
ATOM      6  OXT SER A   1       8.840  -5.433  23.987  0.00  0.00    -0.249 OA
BRANCH   5   7
ATOM      7  O   SER A   1      10.119  -5.535  25.864  0.00  0.00    -0.479 OA
ATOM      8  H   SER A   1       9.986  -5.150  26.769  0.00  0.00    +0.295 HD
ENDBRANCH   5   7
ENDBRANCH   1   5
BRANCH   1   9
ATOM      9  CB  SER A   1       7.871  -3.451  26.460  0.00  0.00    +0.185 C 
BRANCH   9  10
ATOM     10  OG  SER A   1       8.808  -2.805  25.596  0.00  0.00    -0.393 OA
ATOM     11  H   SER A   1       9.626  -3.334  25.611  0.00  0.00    +0.209 HD
ENDBRANCH   9  10
ENDBRANCH   1   9
TORSDOF 5
ENDMDL
MODEL 3
REMARK VINA RESULT:      -3.4      2.187      2.791
REMARK  Name = 
REMARK  5 active torsions:
REMARK  status: ('A' for Active; 'I' for Inactive)
REMARK    1  A    between atoms: N_1  and  CA_2
REMARK    2  A    between atoms: CA_2  and  CB_4
REMARK    3  A    between atoms: CA_2  and  C_6
REMARK    4  A    between atoms: CB_4  and  OG_5
REMARK    5  A    between atoms: C_6  and  O_7
REMARK                            x       y       z     vdW  Elec       q    Type
REMARK                         _______ _______ _______ _____ _____    ______ ____
ROOT
ATOM      1  CA  SER A   1       9.068  -4.636  25.301  0.00  0.00    +0.186 C 
ENDROOT
BRANCH   1   2
ATOM      2  N   SER A   1      10.214  -5.606  25.377  0.00  0.00    -0.317 NA
ATOM      3  H1  SER A   1      10.158  -6.070  26.294  0.00  0.00    +0.119 HD
ATOM      4  H2  SER A   1       9.967  -6.379  24.745  0.00  0.00    +0.119 HD
ENDBRANCH   1   2
BRANCH   1   5
ATOM      5  C   SER A   1       8.216  -4.765  26.564  0.00  0.00    +0.324 C 
ATOM      6  OXT SER A   1       7.640  -3.845  27.120  0.00  0.00    -0.249 OA
BRANCH   5   7
ATOM      7  O   SER A   1       8.192  -6.048  27.013  0.00  0.00    -0.479 OA
ATOM      8  H   SER A   1       8.879  -6.097  27.729  0.00  0.00    +0.295 HD
ENDBRANCH   5   7
ENDBRANCH   1   5
BRANCH   1   9
ATOM      9  CB  SER A   1       8.205  -4.885  24.063  0.00  0.00    +0.185 C 
BRANCH   9  10
ATOM     10  OG  SER A   1       6.863  -5.183  24.454  0.00  0.00    -0.393 OA
ATOM     11  H   SER A   1       6.781  -6.153  24.490  0.00  0.00    +0.209 HD
ENDBRANCH   9  10
ENDBRANCH   1   9
TORSDOF 5
ENDMDL
MODEL 4
REMARK VINA RESULT:      -3.4      1.775      2.169
REMARK  Name = 
REMARK  5 active torsions:
REMARK  status: ('A' for Active; 'I' for Inactive)
REMARK    1  A    between atoms: N_1  and  CA_2
REMARK    2  A    between atoms: CA_2  and  CB_4
REMARK    3  A    between atoms: CA_2  and  C_6
REMARK    4  A    between atoms: CB_4  and  OG_5
REMARK    5  A    between atoms: C_6  and  O_7
REMARK                            x       y       z     vdW  Elec       q    Type
REMARK                         _______ _______ _______ _____ _____    ______ ____
ROOT
ATOM      1  CA  SER A   1       8.891  -5.139  25.318  0.00  0.00    +0.186 C 
ENDROOT
BRANCH   1   2
ATOM      2  N   SER A   1      10.334  -5.539  25.460  0.00  0.00    -0.317 NA
ATOM      3  H1  SER A   1      10.463  -6.404  24.919  0.00  0.00    +0.119 HD
ATOM      4  H2  SER A   1      10.865  -4.865  24.891  0.00  0.00    +0.119 HD
ENDBRANCH   1   2
BRANCH   1   5
ATOM      5  C   SER A   1       8.784  -3.992  24.314  0.00  0.00    +0.324 C 
ATOM      6  OXT SER A   1       7.760  -3.651  23.744  0.00  0.00    -0.249 OA
BRANCH   5   7
ATOM      7  O   SER A   1       9.989  -3.399  24.112  0.00  0.00    -0.479 OA
ATOM      8  H   SER A   1      10.203  -3.538  23.152  0.00  0.00    +0.295 HD
ENDBRANCH   5   7
ENDBRANCH   1   5
BRANCH   1   9
ATOM      9  CB  SER A   1       8.294  -4.714  26.661  0.00  0.00    +0.185 C 
BRANCH   9  10
ATOM     10  OG  SER A   1       7.992  -5.868  27.449  0.00  0.00    -0.393 OA
ATOM     11  H   SER A   1       7.361  -5.590  28.137  0.00  0.00    +0.209 HD
ENDBRANCH   9  10
ENDBRANCH   1   9
TORSDOF 5
ENDMDL
MODEL 5
REMARK VINA RESULT:      -3.3      5.566      6.810
REMARK  Name = 
REMARK  5 active torsions:
REMARK  status: ('A' for Active; 'I' for Inactive)
REMARK    1  A    between atoms: N_1  and  CA_2
REMARK    2  A    between atoms: CA_2  and  CB_4
REMARK    3  A    between atoms: CA_2  and  C_6
REMARK    4  A    between atoms: CB_4  and  OG_5
REMARK    5  A    between atoms: C_6  and  O_7
REMARK                            x       y       z     vdW  Elec       q    Type
REMARK                         _______ _______ _______ _____ _____    ______ ____
ROOT
ATOM      1  CA  SER A   1       9.816   0.405  22.941  0.00  0.00    +0.186 C 
ENDROOT
BRANCH   1   2
ATOM      2  N   SER A   1      10.635   0.305  24.199  0.00  0.00    -0.317 NA
ATOM      3  H1  SER A   1      11.384   1.006  24.128  0.00  0.00    +0.119 HD
ATOM      4  H2  SER A   1      10.051   0.710  24.943  0.00  0.00    +0.119 HD
ENDBRANCH   1   2
BRANCH   1   5
ATOM      5  C   SER A   1      10.028  -0.856  22.103  0.00  0.00    +0.324 C 
ATOM      6  OXT SER A   1      10.654  -1.840  22.462  0.00  0.00    -0.249 OA
BRANCH   5   7
ATOM      7  O   SER A   1       9.443  -0.741  20.883  0.00  0.00    -0.479 OA
ATOM      8  H   SER A   1       9.484   0.225  20.653  0.00  0.00    +0.295 HD
ENDBRANCH   5   7
ENDBRANCH   1   5
BRANCH   1   9
ATOM      9  CB  SER A   1      10.191   1.643  22.126  0.00  0.00    +0.185 C 
BRANCH   9  10
ATOM     10  OG  SER A   1       9.076   2.066  21.338  0.00  0.00    -0.393 OA
ATOM     11  H   SER A   1       8.273   1.721  21.767  0.00  0.00    +0.209 HD
ENDBRANCH   9  10
ENDBRANCH   1   9
TORSDOF 5
ENDMDL
MODEL 6
REMARK VINA RESULT:      -3.3      7.732      8.379
REMARK  Name = 
REMARK  5 active torsions:
REMARK  status: ('A' for Active; 'I' for Inactive)
REMARK    1  A    between atoms: N_1  and  CA_2
REMARK    2  A    between atoms: CA_2  and  CB_4
REMARK    3  A    between atoms: CA_2  and  C_6
REMARK    4  A    between atoms: CB_4  and  OG_5
REMARK    5  A    between atoms: C_6  and  O_7
REMARK                            x       y       z     vdW  Elec       q    Type
REMARK                         _______ _______ _______ _____ _____    ______ ____
ROOT
ATOM      1  CA  SER A   1      10.478   1.869  23.744  0.00  0.00    +0.186 C 
ENDROOT
BRANCH   1   2
ATOM      2  N   SER A   1       9.658   1.432  24.926  0.00  0.00    -0.317 NA
ATOM      3  H1  SER A   1       8.822   2.031  24.952  0.00  0.00    +0.119 HD
ATOM      4  H2  SER A   1       9.248   0.526  24.661  0.00  0.00    +0.119 HD
ENDBRANCH   1   2
BRANCH   1   5
ATOM      5  C   SER A   1      10.321   3.377  23.553  0.00  0.00    +0.324 C 
ATOM      6  OXT SER A   1       9.321   4.019  23.828  0.00  0.00    -0.249 OA
BRANCH   5   7
ATOM      7  O   SER A   1      11.441   3.925  23.015  0.00  0.00    -0.479 OA
ATOM      8  H   SER A   1      11.924   3.177  22.575  0.00  0.00    +0.295 HD
ENDBRANCH   5   7
ENDBRANCH   1   5
BRANCH   1   9
ATOM      9  CB  SER A   1      10.056   1.135  22.469  0.00  0.00    +0.185 C 
BRANCH   9  10
ATOM     10  OG  SER A   1       9.771   2.078  21.434  0.00  0.00    -0.393 OA
ATOM     11  H   SER A   1       9.337   2.843  21.853  0.00  0.00    +0.209 HD
ENDBRANCH   9  10
ENDBRANCH   1   9
TORSDOF 5
ENDMDL
MODEL 7
REMARK VINA RESULT:      -3.3      5.614      6.844
REMARK  Name = 
REMARK  5 active torsions:
REMARK  status: ('A' for Active; 'I' for Inactive)
REMARK    1  A    between atoms: N_1  and  CA_2
REMARK    2  A    between atoms: CA_2  and  CB_4
REMARK    3  A    between atoms: CA_2  and  C_6
REMARK    4  A    between atoms: CB_4  and  OG_5
REMARK    5  A    between atoms: C_6  and  O_7
REMARK                            x       y       z     vdW  Elec       q    Type
REMARK                         _______ _______ _______ _____ _____    ______ ____
ROOT
ATOM      1  CA  SER A   1      10.328   0.372  23.051  0.00  0.00    +0.186 C 
ENDROOT
BRANCH   1   2
ATOM      2  N   SER A   1       9.788   0.934  24.338  0.00  0.00    -0.317 NA
ATOM      3  H1  SER A   1       9.760   0.162  25.017  0.00  0.00    +0.119 HD
ATOM      4  H2  SER A   1      10.543   1.515  24.725  0.00  0.00    +0.119 HD
ENDBRANCH   1   2
BRANCH   1   5
ATOM      5  C   SER A   1       9.732   1.146  21.876  0.00  0.00    +0.324 C 
ATOM      6  OXT SER A   1       8.810   0.760  21.177  0.00  0.00    -0.249 OA
BRANCH   5   7
ATOM      7  O   SER A   1      10.374   2.329  21.688  0.00  0.00    -0.479 OA
ATOM      8  H   SER A   1       9.919   2.764  20.920  0.00  0.00    +0.295 HD
ENDBRANCH   5   7
ENDBRANCH   1   5
BRANCH   1   9
ATOM      9  CB  SER A   1      10.006  -1.117  22.913  0.00  0.00    +0.185 C 
BRANCH   9  10
ATOM     10  OG  SER A   1      10.297  -1.558  21.584  0.00  0.00    -0.393 OA
ATOM     11  H   SER A   1      11.015  -2.214  21.649  0.00  0.00    +0.209 HD
ENDBRANCH   9  10
ENDBRANCH   1   9
TORSDOF 5
ENDMDL
MODEL 8
REMARK VINA RESULT:      -3.2      6.177      6.778
REMARK  Name = 
REMARK  5 active torsions:
REMARK  status: ('A' for Active; 'I' for Inactive)
REMARK    1  A    between atoms: N_1  and  CA_2
REMARK    2  A    between atoms: CA_2  and  CB_4
REMARK    3  A    between atoms: CA_2  and  C_6
REMARK    4  A    between atoms: CB_4  and  OG_5
REMARK    5  A    between atoms: C_6  and  O_7
REMARK                            x       y       z     vdW  Elec       q    Type
REMARK                         _______ _______ _______ _____ _____    ______ ____
ROOT
ATOM      1  CA  SER A   1       9.277  -0.324  21.666  0.00  0.00    +0.186 C 
ENDROOT
BRANCH   1   2
ATOM      2  N   SER A   1      10.260  -1.462  21.641  0.00  0.00    -0.317 NA
ATOM      3  H1  SER A   1      10.261  -1.839  20.684  0.00  0.00    +0.119 HD
ATOM      4  H2  SER A   1      11.191  -1.026  21.686  0.00  0.00    +0.119 HD
ENDBRANCH   1   2
BRANCH   1   5
ATOM      5  C   SER A   1       9.969   0.925  22.211  0.00  0.00    +0.324 C 
ATOM      6  OXT SER A   1      10.624   0.973  23.239  0.00  0.00    -0.249 OA
BRANCH   5   7
ATOM      7  O   SER A   1       9.747   2.001  21.410  0.00  0.00    -0.479 OA
ATOM      8  H   SER A   1       9.692   2.784  22.018  0.00  0.00    +0.295 HD
ENDBRANCH   5   7
ENDBRANCH   1   5
BRANCH   1   9
ATOM      9  CB  SER A   1       8.054  -0.659  22.522  0.00  0.00    +0.185 C 
BRANCH   9  10
ATOM     10  OG  SER A   1       7.639   0.496  23.255  0.00  0.00    -0.393 OA
ATOM     11  H   SER A   1       8.423   1.062  23.368  0.00  0.00    +0.209 HD
ENDBRANCH   9  10
ENDBRANCH   1   9
TORSDOF 5
ENDMDL
MODEL 9
REMARK VINA RESULT:      -3.2      5.478      6.700
REMARK  Name = 
REMARK  5 active torsions:
REMARK  status: ('A' for Active; 'I' for Inactive)
REMARK    1  A    between atoms: N_1  and  CA_2
REMARK    2  A    between atoms: CA_2  and  CB_4
REMARK    3  A    between atoms: CA_2  and  C_6
REMARK    4  A    between atoms: CB_4  and  OG_5
REMARK    5  A    between atoms: C_6  and  O_7
REMARK                            x       y       z     vdW  Elec       q    Type
REMARK                         _______ _______ _______ _____ _____    ______ ____
ROOT
ATOM      1  CA  SER A   1      10.200  -0.249  22.004  0.00  0.00    +0.186 C 
ENDROOT
BRANCH   1   2
ATOM      2  N   SER A   1       9.747  -1.633  21.629  0.00  0.00    -0.317 NA
ATOM      3  H1  SER A   1      10.591  -2.184  21.426  0.00  0.00    +0.119 HD
ATOM      4  H2  SER A   1       9.430  -2.069  22.506  0.00  0.00    +0.119 HD
ENDBRANCH   1   2
BRANCH   1   5
ATOM      5  C   SER A   1      10.370  -0.171  23.521  0.00  0.00    +0.324 C 
ATOM      6  OXT SER A   1      10.778   0.803  24.132  0.00  0.00    -0.249 OA
BRANCH   5   7
ATOM      7  O   SER A   1      10.024  -1.342  24.117  0.00  0.00    -0.479 OA
ATOM      8  H   SER A   1       9.072  -1.240  24.380  0.00  0.00    +0.295 HD
ENDBRANCH   5   7
ENDBRANCH   1   5
BRANCH   1   9
ATOM      9  CB  SER A   1       9.203   0.812  21.535  0.00  0.00    +0.185 C 
BRANCH   9  10
ATOM     10  OG  SER A   1       9.834   2.094  21.502  0.00  0.00    -0.393 OA
ATOM     11  H   SER A   1       9.742   2.438  20.596  0.00  0.00    +0.209 HD
ENDBRANCH   9  10
ENDBRANCH   1   9
TORSDOF 5
ENDMDL
