MODEL 1
REMARK VINA RESULT:      -6.2      0.000      0.000
REMARK  Name = 
REMARK  17 active torsions:
REMARK  status: ('A' for Active; 'I' for Inactive)
REMARK    1  A    between atoms: C_2  and  C_3
REMARK    2  A    between atoms: C_2  and  N_7
REMARK    3  A    between atoms: C_2  and  C_21
REMARK    4  A    between atoms: C_3  and  C_4
REMARK    5  A    between atoms: C_4  and  C_5
REMARK    6  A    between atoms: C_4  and  C_6
REMARK    7  A    between atoms: C_8  and  C_10
REMARK    8  A    between atoms: C_10  and  C_12
REMARK    9  A    between atoms: C_10  and  O_16
REMARK   10  A    between atoms: C_12  and  C_13
REMARK   11  A    between atoms: C_13  and  C_14
REMARK   12  A    between atoms: C_14  and  C_15
REMARK   13  A    between atoms: O_16  and  P_17
REMARK   14  A    between atoms: P_17  and  O_18
REMARK   15  A    between atoms: P_17  and  O_19
REMARK   16  A    between atoms: N_23  and  C_24
REMARK   17  A    between atoms: C_27  and  N_30
REMARK                            x       y       z     vdW  Elec       q    Type
REMARK                         _______ _______ _______ _____ _____    ______ ____
ROOT
ATOM      1  C   UNL     1       6.200  -1.470  25.504  0.00  0.00    +0.159 C 
ENDROOT
BRANCH   1   2
ATOM      2  C   UNL     1       5.024  -2.448  25.211  0.00  0.00    +0.238 C 
ATOM      3  N   UNL     1       5.425  -3.668  24.672  0.00  0.00    -0.284 N 
ATOM      4  H   UNL     1       6.417  -3.827  24.586  0.00  0.00    +0.155 HD
ATOM      5  O   UNL     1       3.862  -2.157  25.507  0.00  0.00    -0.273 OA
BRANCH   3   6
ATOM      6  C   UNL     1       4.631  -4.799  24.435  0.00  0.00    +0.034 A 
ATOM      7  C   UNL     1       4.747  -5.879  25.329  0.00  0.00    +0.030 A 
ATOM      8  C   UNL     1       3.947  -7.017  25.175  0.00  0.00    +0.086 A 
ATOM      9  C   UNL     1       3.058  -7.088  24.097  0.00  0.00    +0.273 A 
ATOM     10  C   UNL     1       2.978  -6.042  23.174  0.00  0.00    +0.086 A 
ATOM     11  C   UNL     1       3.759  -4.896  23.354  0.00  0.00    +0.030 A 
BRANCH   9  12
ATOM     12  N   UNL     1       2.190  -8.264  23.938  0.00  0.00    +0.080 N 
ATOM     13  O   UNL     1       2.220  -9.124  24.829  0.00  0.00    +0.041 OA
ATOM     14  O   UNL     1       1.479  -8.320  22.929  0.00  0.00    -0.576 OA
ENDBRANCH   9  12
ENDBRANCH   3   6
ENDBRANCH   1   2
BRANCH   1  15
ATOM     15  N   UNL     1       7.388  -1.890  24.719  0.00  0.00    -0.302 N 
ATOM     16  H   UNL     1       7.227  -2.407  23.859  0.00  0.00    +0.150 HD
ATOM     17  C   UNL     1       8.652  -1.961  25.271  0.00  0.00    +0.243 C 
ATOM     18  O   UNL     1       8.875  -1.584  26.421  0.00  0.00    -0.273 OA
BRANCH  17  19
ATOM     19  C   UNL     1       9.792  -2.543  24.374  0.00  0.00    +0.216 C 
BRANCH  19  20
ATOM     20  O   UNL     1       9.815  -3.957  24.315  0.00  0.00    -0.274 OA
BRANCH  20  21
ATOM     21  P   UNL     1       8.864  -4.837  25.462  0.00  0.00    +0.473 P 
ATOM     22  O   UNL     1       8.013  -5.625  26.488  0.00  0.00    -0.227 OA
BRANCH  21  23
ATOM     23  O   UNL     1       9.868  -6.104  25.219  0.00  0.00    -0.303 OA
ATOM     24  H   UNL     1      10.041  -6.474  26.109  0.00  0.00    +0.222 HD
ENDBRANCH  21  23
BRANCH  21  25
ATOM     25  O   UNL     1       7.929  -5.193  24.168  0.00  0.00    -0.303 OA
ATOM     26  H   UNL     1       8.286  -5.999  23.751  0.00  0.00    +0.222 HD
ENDBRANCH  21  25
ENDBRANCH  20  21
ENDBRANCH  19  20
BRANCH  19  27
ATOM     27  C   UNL     1       9.718  -1.928  22.963  0.00  0.00    +0.042 C 
BRANCH  27  28
ATOM     28  C   UNL     1      10.284  -0.503  22.871  0.00  0.00    +0.003 C 
BRANCH  28  29
ATOM     29  C   UNL     1       9.585   0.297  21.766  0.00  0.00    -0.003 C 
ATOM     30  C   UNL     1       9.819   1.793  21.915  0.00  0.00    +0.004 C 
ENDBRANCH  28  29
ENDBRANCH  27  28
ENDBRANCH  19  27
ENDBRANCH  17  19
ENDBRANCH   1  15
BRANCH   1  31
ATOM     31  C   UNL     1       5.849   0.010  25.189  0.00  0.00    +0.034 C 
BRANCH  31  32
ATOM     32  C   UNL     1       6.873   0.825  24.356  0.00  0.00    -0.015 C 
ATOM     33  C   UNL     1       7.772   1.686  25.249  0.00  0.00    +0.007 C 
ATOM     34  C   UNL     1       6.218   1.727  23.304  0.00  0.00    +0.007 C 
ENDBRANCH  31  32
ENDBRANCH   1  31
TORSDOF 14
ENDMDL
MODEL 2
REMARK VINA RESULT:      -6.1      3.210      7.977
REMARK  Name = 
REMARK  17 active torsions:
REMARK  status: ('A' for Active; 'I' for Inactive)
REMARK    1  A    between atoms: C_2  and  C_3
REMARK    2  A    between atoms: C_2  and  N_7
REMARK    3  A    between atoms: C_2  and  C_21
REMARK    4  A    between atoms: C_3  and  C_4
REMARK    5  A    between atoms: C_4  and  C_5
REMARK    6  A    between atoms: C_4  and  C_6
REMARK    7  A    between atoms: C_8  and  C_10
REMARK    8  A    between atoms: C_10  and  C_12
REMARK    9  A    between atoms: C_10  and  O_16
REMARK   10  A    between atoms: C_12  and  C_13
REMARK   11  A    between atoms: C_13  and  C_14
REMARK   12  A    between atoms: C_14  and  C_15
REMARK   13  A    between atoms: O_16  and  P_17
REMARK   14  A    between atoms: P_17  and  O_18
REMARK   15  A    between atoms: P_17  and  O_19
REMARK   16  A    between atoms: N_23  and  C_24
REMARK   17  A    between atoms: C_27  and  N_30
REMARK                            x       y       z     vdW  Elec       q    Type
REMARK                         _______ _______ _______ _____ _____    ______ ____
ROOT
ATOM      1  C   UNL     1       7.938  -3.916  23.364  0.00  0.00    +0.159 C 
ENDROOT
BRANCH   1   2
ATOM      2  C   UNL     1       8.853  -2.668  23.537  0.00  0.00    +0.238 C 
ATOM      3  N   UNL     1       8.354  -1.515  22.933  0.00  0.00    -0.284 N 
ATOM      4  H   UNL     1       7.441  -1.578  22.510  0.00  0.00    +0.155 HD
ATOM      5  O   UNL     1       9.885  -2.719  24.212  0.00  0.00    -0.273 OA
BRANCH   3   6
ATOM      6  C   UNL     1       8.865  -0.213  23.029  0.00  0.00    +0.034 A 
ATOM      7  C   UNL     1       8.617   0.501  24.216  0.00  0.00    +0.030 A 
ATOM      8  C   UNL     1       9.140   1.788  24.393  0.00  0.00    +0.086 A 
ATOM      9  C   UNL     1       9.878   2.374  23.359  0.00  0.00    +0.273 A 
ATOM     10  C   UNL     1      10.080   1.693  22.156  0.00  0.00    +0.086 A 
ATOM     11  C   UNL     1       9.580   0.396  22.000  0.00  0.00    +0.030 A 
BRANCH   9  12
ATOM     12  N   UNL     1      10.458   3.713  23.540  0.00  0.00    +0.080 N 
ATOM     13  O   UNL     1      11.655   3.863  23.257  0.00  0.00    +0.041 OA
ATOM     14  O   UNL     1       9.716   4.608  23.959  0.00  0.00    -0.576 OA
ENDBRANCH   9  12
ENDBRANCH   3   6
ENDBRANCH   1   2
BRANCH   1  15
ATOM     15  N   UNL     1       7.097  -4.074  24.577  0.00  0.00    -0.302 N 
ATOM     16  H   UNL     1       6.434  -3.335  24.791  0.00  0.00    +0.150 HD
ATOM     17  C   UNL     1       7.430  -4.941  25.599  0.00  0.00    +0.243 C 
ATOM     18  O   UNL     1       8.394  -5.701  25.512  0.00  0.00    -0.273 OA
BRANCH  17  19
ATOM     19  C   UNL     1       6.530  -4.915  26.878  0.00  0.00    +0.216 C 
BRANCH  19  20
ATOM     20  O   UNL     1       7.013  -5.717  27.939  0.00  0.00    -0.274 OA
BRANCH  20  21
ATOM     21  P   UNL     1       5.859  -6.438  29.007  0.00  0.00    +0.473 P 
ATOM     22  O   UNL     1       4.825  -7.083  29.964  0.00  0.00    -0.227 OA
BRANCH  21  23
ATOM     23  O   UNL     1       6.985  -7.571  29.351  0.00  0.00    -0.303 OA
ATOM     24  H   UNL     1       7.764  -7.074  29.677  0.00  0.00    +0.222 HD
ENDBRANCH  21  23
BRANCH  21  25
ATOM     25  O   UNL     1       5.339  -7.210  27.662  0.00  0.00    -0.303 OA
ATOM     26  H   UNL     1       4.396  -6.994  27.538  0.00  0.00    +0.222 HD
ENDBRANCH  21  25
ENDBRANCH  20  21
ENDBRANCH  19  20
BRANCH  19  27
ATOM     27  C   UNL     1       6.306  -3.462  27.335  0.00  0.00    +0.042 C 
BRANCH  27  28
ATOM     28  C   UNL     1       4.828  -3.053  27.424  0.00  0.00    +0.003 C 
BRANCH  28  29
ATOM     29  C   UNL     1       4.373  -2.348  26.142  0.00  0.00    -0.003 C 
ATOM     30  C   UNL     1       3.624  -3.291  25.211  0.00  0.00    +0.004 C 
ENDBRANCH  28  29
ENDBRANCH  27  28
ENDBRANCH  19  27
ENDBRANCH  17  19
ENDBRANCH   1  15
BRANCH   1  31
ATOM     31  C   UNL     1       7.040  -3.838  22.098  0.00  0.00    +0.034 C 
BRANCH  31  32
ATOM     32  C   UNL     1       6.319  -5.138  21.654  0.00  0.00    -0.015 C 
ATOM     33  C   UNL     1       4.972  -5.308  22.364  0.00  0.00    +0.007 C 
ATOM     34  C   UNL     1       7.156  -6.402  21.879  0.00  0.00    +0.007 C 
ENDBRANCH  31  32
ENDBRANCH   1  31
TORSDOF 14
ENDMDL
MODEL 3
REMARK VINA RESULT:      -6.0      3.290      7.482
REMARK  Name = 
REMARK  17 active torsions:
REMARK  status: ('A' for Active; 'I' for Inactive)
REMARK    1  A    between atoms: C_2  and  C_3
REMARK    2  A    between atoms: C_2  and  N_7
REMARK    3  A    between atoms: C_2  and  C_21
REMARK    4  A    between atoms: C_3  and  C_4
REMARK    5  A    between atoms: C_4  and  C_5
REMARK    6  A    between atoms: C_4  and  C_6
REMARK    7  A    between atoms: C_8  and  C_10
REMARK    8  A    between atoms: C_10  and  C_12
REMARK    9  A    between atoms: C_10  and  O_16
REMARK   10  A    between atoms: C_12  and  C_13
REMARK   11  A    between atoms: C_13  and  C_14
REMARK   12  A    between atoms: C_14  and  C_15
REMARK   13  A    between atoms: O_16  and  P_17
REMARK   14  A    between atoms: P_17  and  O_18
REMARK   15  A    between atoms: P_17  and  O_19
REMARK   16  A    between atoms: N_23  and  C_24
REMARK   17  A    between atoms: C_27  and  N_30
REMARK                            x       y       z     vdW  Elec       q    Type
REMARK                         _______ _______ _______ _____ _____    ______ ____
ROOT
ATOM      1  C   UNL     1       5.690  -1.119  24.985  0.00  0.00    +0.159 C 
ENDROOT
BRANCH   1   2
ATOM      2  C   UNL     1       5.759   0.427  24.816  0.00  0.00    +0.238 C 
ATOM      3  N   UNL     1       7.005   0.895  24.405  0.00  0.00    -0.284 N 
ATOM      4  H   UNL     1       7.708   0.203  24.195  0.00  0.00    +0.155 HD
ATOM      5  O   UNL     1       4.760   1.134  24.977  0.00  0.00    -0.273 OA
BRANCH   3   6
ATOM      6  C   UNL     1       7.345   2.203  24.031  0.00  0.00    +0.034 A 
ATOM      7  C   UNL     1       6.984   2.629  22.740  0.00  0.00    +0.030 A 
ATOM      8  C   UNL     1       7.252   3.938  22.324  0.00  0.00    +0.086 A 
ATOM      9  C   UNL     1       7.921   4.809  23.191  0.00  0.00    +0.273 A 
ATOM     10  C   UNL     1       8.332   4.375  24.454  0.00  0.00    +0.086 A 
ATOM     11  C   UNL     1       8.032   3.074  24.873  0.00  0.00    +0.030 A 
BRANCH   9  12
ATOM     12  N   UNL     1       8.183   6.195  22.780  0.00  0.00    +0.080 N 
ATOM     13  O   UNL     1       7.486   6.667  21.870  0.00  0.00    +0.041 OA
ATOM     14  O   UNL     1       9.080   6.809  23.370  0.00  0.00    -0.576 OA
ENDBRANCH   9  12
ENDBRANCH   3   6
ENDBRANCH   1   2
BRANCH   1  15
ATOM     15  N   UNL     1       7.066  -1.655  25.133  0.00  0.00    -0.302 N 
ATOM     16  H   UNL     1       7.628  -1.306  25.905  0.00  0.00    +0.150 HD
ATOM     17  C   UNL     1       7.735  -2.273  24.095  0.00  0.00    +0.243 C 
ATOM     18  O   UNL     1       7.184  -2.501  23.018  0.00  0.00    -0.273 OA
BRANCH  17  19
ATOM     19  C   UNL     1       9.226  -2.673  24.343  0.00  0.00    +0.216 C 
BRANCH  19  20
ATOM     20  O   UNL     1       9.461  -4.068  24.318  0.00  0.00    -0.274 OA
BRANCH  20  21
ATOM     21  P   UNL     1       8.650  -5.054  25.485  0.00  0.00    +0.473 P 
ATOM     22  O   UNL     1       7.924  -5.938  26.530  0.00  0.00    -0.227 OA
BRANCH  21  23
ATOM     23  O   UNL     1       8.918  -3.867  26.576  0.00  0.00    -0.303 OA
ATOM     24  H   UNL     1       9.439  -4.284  27.293  0.00  0.00    +0.222 HD
ENDBRANCH  21  23
BRANCH  21  25
ATOM     25  O   UNL     1      10.124  -5.730  25.698  0.00  0.00    -0.303 OA
ATOM     26  H   UNL     1      10.752  -5.272  25.109  0.00  0.00    +0.222 HD
ENDBRANCH  21  25
ENDBRANCH  20  21
ENDBRANCH  19  20
BRANCH  19  27
ATOM     27  C   UNL     1      10.141  -1.935  23.348  0.00  0.00    +0.042 C 
BRANCH  27  28
ATOM     28  C   UNL     1      10.371  -0.455  23.686  0.00  0.00    +0.003 C 
BRANCH  28  29
ATOM     29  C   UNL     1      10.136   0.434  22.460  0.00  0.00    -0.003 C 
ATOM     30  C   UNL     1       9.347  -0.289  21.378  0.00  0.00    +0.004 C 
ENDBRANCH  28  29
ENDBRANCH  27  28
ENDBRANCH  19  27
ENDBRANCH  17  19
ENDBRANCH   1  15
BRANCH   1  31
ATOM     31  C   UNL     1       4.814  -1.558  26.191  0.00  0.00    +0.034 C 
BRANCH  31  32
ATOM     32  C   UNL     1       4.172  -2.969  26.131  0.00  0.00    -0.015 C 
ATOM     33  C   UNL     1       4.969  -3.988  26.953  0.00  0.00    +0.007 C 
ATOM     34  C   UNL     1       4.018  -3.504  24.703  0.00  0.00    +0.007 C 
ENDBRANCH  31  32
ENDBRANCH   1  31
TORSDOF 14
ENDMDL
MODEL 4
REMARK VINA RESULT:      -5.9      3.090      8.170
REMARK  Name = 
REMARK  17 active torsions:
REMARK  status: ('A' for Active; 'I' for Inactive)
REMARK    1  A    between atoms: C_2  and  C_3
REMARK    2  A    between atoms: C_2  and  N_7
REMARK    3  A    between atoms: C_2  and  C_21
REMARK    4  A    between atoms: C_3  and  C_4
REMARK    5  A    between atoms: C_4  and  C_5
REMARK    6  A    between atoms: C_4  and  C_6
REMARK    7  A    between atoms: C_8  and  C_10
REMARK    8  A    between atoms: C_10  and  C_12
REMARK    9  A    between atoms: C_10  and  O_16
REMARK   10  A    between atoms: C_12  and  C_13
REMARK   11  A    between atoms: C_13  and  C_14
REMARK   12  A    between atoms: C_14  and  C_15
REMARK   13  A    between atoms: O_16  and  P_17
REMARK   14  A    between atoms: P_17  and  O_18
REMARK   15  A    between atoms: P_17  and  O_19
REMARK   16  A    between atoms: N_23  and  C_24
REMARK   17  A    between atoms: C_27  and  N_30
REMARK                            x       y       z     vdW  Elec       q    Type
REMARK                         _______ _______ _______ _____ _____    ______ ____
ROOT
ATOM      1  C   UNL     1       8.259  -4.281  24.264  0.00  0.00    +0.159 C 
ENDROOT
BRANCH   1   2
ATOM      2  C   UNL     1       9.090  -3.004  23.943  0.00  0.00    +0.238 C 
ATOM      3  N   UNL     1       8.327  -1.841  23.858  0.00  0.00    -0.284 N 
ATOM      4  H   UNL     1       7.345  -1.922  24.071  0.00  0.00    +0.155 HD
ATOM      5  O   UNL     1      10.320  -3.048  23.848  0.00  0.00    -0.273 OA
BRANCH   3   6
ATOM      6  C   UNL     1       8.789  -0.525  23.725  0.00  0.00    +0.034 A 
ATOM      7  C   UNL     1       8.603   0.346  24.814  0.00  0.00    +0.030 A 
ATOM      8  C   UNL     1       9.085   1.659  24.763  0.00  0.00    +0.086 A 
ATOM      9  C   UNL     1       9.719   2.111  23.600  0.00  0.00    +0.273 A 
ATOM     10  C   UNL     1       9.857   1.268  22.495  0.00  0.00    +0.086 A 
ATOM     11  C   UNL     1       9.400  -0.052  22.566  0.00  0.00    +0.030 A 
BRANCH   9  12
ATOM     12  N   UNL     1      10.256   3.478  23.542  0.00  0.00    +0.080 N 
ATOM     13  O   UNL     1      11.473   3.609  23.348  0.00  0.00    +0.041 OA
ATOM     14  O   UNL     1       9.461   4.414  23.683  0.00  0.00    -0.576 OA
ENDBRANCH   9  12
ENDBRANCH   3   6
ENDBRANCH   1   2
BRANCH   1  15
ATOM     15  N   UNL     1       7.126  -3.916  25.150  0.00  0.00    -0.302 N 
ATOM     16  H   UNL     1       6.422  -3.283  24.780  0.00  0.00    +0.150 HD
ATOM     17  C   UNL     1       7.182  -4.065  26.522  0.00  0.00    +0.243 C 
ATOM     18  O   UNL     1       8.142  -4.603  27.073  0.00  0.00    -0.273 OA
BRANCH  17  19
ATOM     19  C   UNL     1       5.973  -3.519  27.349  0.00  0.00    +0.216 C 
BRANCH  19  20
ATOM     20  O   UNL     1       4.974  -2.893  26.567  0.00  0.00    -0.274 OA
BRANCH  20  21
ATOM     21  P   UNL     1       5.046  -1.175  26.373  0.00  0.00    +0.473 P 
ATOM     22  O   UNL     1       5.112   0.363  26.199  0.00  0.00    -0.227 OA
BRANCH  21  23
ATOM     23  O   UNL     1       3.415  -1.185  26.274  0.00  0.00    -0.303 OA
ATOM     24  H   UNL     1       3.171  -2.116  26.091  0.00  0.00    +0.222 HD
ENDBRANCH  21  23
BRANCH  21  25
ATOM     25  O   UNL     1       5.251  -1.526  24.789  0.00  0.00    -0.303 OA
ATOM     26  H   UNL     1       6.058  -1.072  24.482  0.00  0.00    +0.222 HD
ENDBRANCH  21  25
ENDBRANCH  20  21
ENDBRANCH  19  20
BRANCH  19  27
ATOM     27  C   UNL     1       5.378  -4.644  28.217  0.00  0.00    +0.042 C 
BRANCH  27  28
ATOM     28  C   UNL     1       4.282  -5.461  27.518  0.00  0.00    +0.003 C 
BRANCH  28  29
ATOM     29  C   UNL     1       4.861  -6.731  26.883  0.00  0.00    -0.003 C 
ATOM     30  C   UNL     1       4.667  -6.750  25.374  0.00  0.00    +0.004 C 
ENDBRANCH  28  29
ENDBRANCH  27  28
ENDBRANCH  19  27
ENDBRANCH  17  19
ENDBRANCH   1  15
BRANCH   1  31
ATOM     31  C   UNL     1       7.731  -4.995  22.989  0.00  0.00    +0.034 C 
BRANCH  31  32
ATOM     32  C   UNL     1       6.250  -4.748  22.595  0.00  0.00    -0.015 C 
ATOM     33  C   UNL     1       5.663  -5.938  21.827  0.00  0.00    +0.007 C 
ATOM     34  C   UNL     1       6.048  -3.478  21.761  0.00  0.00    +0.007 C 
ENDBRANCH  31  32
ENDBRANCH   1  31
TORSDOF 14
ENDMDL
MODEL 5
REMARK VINA RESULT:      -5.8      3.617      8.469
REMARK  Name = 
REMARK  17 active torsions:
REMARK  status: ('A' for Active; 'I' for Inactive)
REMARK    1  A    between atoms: C_2  and  C_3
REMARK    2  A    between atoms: C_2  and  N_7
REMARK    3  A    between atoms: C_2  and  C_21
REMARK    4  A    between atoms: C_3  and  C_4
REMARK    5  A    between atoms: C_4  and  C_5
REMARK    6  A    between atoms: C_4  and  C_6
REMARK    7  A    between atoms: C_8  and  C_10
REMARK    8  A    between atoms: C_10  and  C_12
REMARK    9  A    between atoms: C_10  and  O_16
REMARK   10  A    between atoms: C_12  and  C_13
REMARK   11  A    between atoms: C_13  and  C_14
REMARK   12  A    between atoms: C_14  and  C_15
REMARK   13  A    between atoms: O_16  and  P_17
REMARK   14  A    between atoms: P_17  and  O_18
REMARK   15  A    between atoms: P_17  and  O_19
REMARK   16  A    between atoms: N_23  and  C_24
REMARK   17  A    between atoms: C_27  and  N_30
REMARK                            x       y       z     vdW  Elec       q    Type
REMARK                         _______ _______ _______ _____ _____    ______ ____
ROOT
ATOM      1  C   UNL     1       6.943  -0.425  24.045  0.00  0.00    +0.159 C 
ENDROOT
BRANCH   1   2
ATOM      2  C   UNL     1       8.153   0.498  24.375  0.00  0.00    +0.238 C 
ATOM      3  N   UNL     1       8.297   1.574  23.501  0.00  0.00    -0.284 N 
ATOM      4  H   UNL     1       7.585   1.689  22.796  0.00  0.00    +0.155 HD
ATOM      5  O   UNL     1       8.856   0.300  25.369  0.00  0.00    -0.273 OA
BRANCH   3   6
ATOM      6  C   UNL     1       9.189   2.649  23.611  0.00  0.00    +0.034 A 
ATOM      7  C   UNL     1      10.537   2.417  23.283  0.00  0.00    +0.030 A 
ATOM      8  C   UNL     1      11.468   3.461  23.326  0.00  0.00    +0.086 A 
ATOM      9  C   UNL     1      11.053   4.732  23.738  0.00  0.00    +0.273 A 
ATOM     10  C   UNL     1       9.727   4.956  24.118  0.00  0.00    +0.086 A 
ATOM     11  C   UNL     1       8.797   3.914  24.043  0.00  0.00    +0.030 A 
BRANCH   9  12
ATOM     12  N   UNL     1      12.012   5.846  23.761  0.00  0.00    +0.080 N 
ATOM     13  O   UNL     1      11.942   6.645  24.705  0.00  0.00    +0.041 OA
ATOM     14  O   UNL     1      12.834   5.914  22.840  0.00  0.00    -0.576 OA
ENDBRANCH   9  12
ENDBRANCH   3   6
ENDBRANCH   1   2
BRANCH   1  15
ATOM     15  N   UNL     1       7.333  -1.839  24.276  0.00  0.00    -0.302 N 
ATOM     16  H   UNL     1       7.421  -2.153  25.239  0.00  0.00    +0.150 HD
ATOM     17  C   UNL     1       7.942  -2.607  23.304  0.00  0.00    +0.243 C 
ATOM     18  O   UNL     1       8.105  -2.186  22.158  0.00  0.00    -0.273 OA
BRANCH  17  19
ATOM     19  C   UNL     1       8.421  -4.036  23.718  0.00  0.00    +0.216 C 
BRANCH  19  20
ATOM     20  O   UNL     1       8.966  -4.107  25.021  0.00  0.00    -0.274 OA
BRANCH  20  21
ATOM     21  P   UNL     1       8.125  -5.043  26.209  0.00  0.00    +0.473 P 
ATOM     22  O   UNL     1       7.372  -5.882  27.271  0.00  0.00    -0.227 OA
BRANCH  21  23
ATOM     23  O   UNL     1       7.493  -3.643  26.767  0.00  0.00    -0.303 OA
ATOM     24  H   UNL     1       7.279  -3.811  27.708  0.00  0.00    +0.222 HD
ENDBRANCH  21  23
BRANCH  21  25
ATOM     25  O   UNL     1       9.505  -4.888  27.072  0.00  0.00    -0.303 OA
ATOM     26  H   UNL     1      10.055  -4.207  26.641  0.00  0.00    +0.222 HD
ENDBRANCH  21  25
ENDBRANCH  20  21
ENDBRANCH  19  20
BRANCH  19  27
ATOM     27  C   UNL     1       7.274  -5.048  23.538  0.00  0.00    +0.042 C 
BRANCH  27  28
ATOM     28  C   UNL     1       7.300  -5.793  22.195  0.00  0.00    +0.003 C 
BRANCH  28  29
ATOM     29  C   UNL     1       5.884  -5.981  21.641  0.00  0.00    -0.003 C 
ATOM     30  C   UNL     1       4.820  -5.635  22.672  0.00  0.00    +0.004 C 
ENDBRANCH  28  29
ENDBRANCH  27  28
ENDBRANCH  19  27
ENDBRANCH  17  19
ENDBRANCH   1  15
BRANCH   1  31
ATOM     31  C   UNL     1       5.674  -0.079  24.872  0.00  0.00    +0.034 C 
BRANCH  31  32
ATOM     32  C   UNL     1       5.571   1.356  25.453  0.00  0.00    -0.015 C 
ATOM     33  C   UNL     1       4.869   1.365  26.816  0.00  0.00    +0.007 C 
ATOM     34  C   UNL     1       4.848   2.336  24.523  0.00  0.00    +0.007 C 
ENDBRANCH  31  32
ENDBRANCH   1  31
TORSDOF 14
ENDMDL
MODEL 6
REMARK VINA RESULT:      -5.7      3.018      8.174
REMARK  Name = 
REMARK  17 active torsions:
REMARK  status: ('A' for Active; 'I' for Inactive)
REMARK    1  A    between atoms: C_2  and  C_3
REMARK    2  A    between atoms: C_2  and  N_7
REMARK    3  A    between atoms: C_2  and  C_21
REMARK    4  A    between atoms: C_3  and  C_4
REMARK    5  A    between atoms: C_4  and  C_5
REMARK    6  A    between atoms: C_4  and  C_6
REMARK    7  A    between atoms: C_8  and  C_10
REMARK    8  A    between atoms: C_10  and  C_12
REMARK    9  A    between atoms: C_10  and  O_16
REMARK   10  A    between atoms: C_12  and  C_13
REMARK   11  A    between atoms: C_13  and  C_14
REMARK   12  A    between atoms: C_14  and  C_15
REMARK   13  A    between atoms: O_16  and  P_17
REMARK   14  A    between atoms: P_17  and  O_18
REMARK   15  A    between atoms: P_17  and  O_19
REMARK   16  A    between atoms: N_23  and  C_24
REMARK   17  A    between atoms: C_27  and  N_30
REMARK                            x       y       z     vdW  Elec       q    Type
REMARK                         _______ _______ _______ _____ _____    ______ ____
ROOT
ATOM      1  C   UNL     1       8.190  -4.311  25.213  0.00  0.00    +0.159 C 
ENDROOT
BRANCH   1   2
ATOM      2  C   UNL     1       8.454  -2.788  25.398  0.00  0.00    +0.238 C 
ATOM      3  N   UNL     1       9.109  -2.194  24.321  0.00  0.00    -0.284 N 
ATOM      4  H   UNL     1       9.288  -2.775  23.517  0.00  0.00    +0.155 HD
ATOM      5  O   UNL     1       8.044  -2.183  26.392  0.00  0.00    -0.273 OA
BRANCH   3   6
ATOM      6  C   UNL     1       9.361  -0.829  24.122  0.00  0.00    +0.034 A 
ATOM      7  C   UNL     1       8.463  -0.110  23.311  0.00  0.00    +0.030 A 
ATOM      8  C   UNL     1       8.631   1.264  23.112  0.00  0.00    +0.086 A 
ATOM      9  C   UNL     1       9.726   1.912  23.696  0.00  0.00    +0.273 A 
ATOM     10  C   UNL     1      10.652   1.193  24.457  0.00  0.00    +0.086 A 
ATOM     11  C   UNL     1      10.459  -0.175  24.675  0.00  0.00    +0.030 A 
BRANCH   9  12
ATOM     12  N   UNL     1       9.900   3.361  23.521  0.00  0.00    +0.080 N 
ATOM     13  O   UNL     1       8.881   4.066  23.520  0.00  0.00    +0.041 OA
ATOM     14  O   UNL     1      11.053   3.789  23.391  0.00  0.00    -0.576 OA
ENDBRANCH   9  12
ENDBRANCH   3   6
ENDBRANCH   1   2
BRANCH   1  15
ATOM     15  N   UNL     1       6.845  -4.640  25.748  0.00  0.00    -0.302 N 
ATOM     16  H   UNL     1       6.053  -4.115  25.388  0.00  0.00    +0.150 HD
ATOM     17  C   UNL     1       6.667  -5.314  26.940  0.00  0.00    +0.243 C 
ATOM     18  O   UNL     1       7.621  -5.765  27.574  0.00  0.00    -0.273 OA
BRANCH  17  19
ATOM     19  C   UNL     1       5.201  -5.481  27.454  0.00  0.00    +0.216 C 
BRANCH  19  20
ATOM     20  O   UNL     1       4.330  -4.436  27.064  0.00  0.00    -0.274 OA
BRANCH  20  21
ATOM     21  P   UNL     1       4.200  -3.053  28.096  0.00  0.00    +0.473 P 
ATOM     22  O   UNL     1       4.084  -1.816  29.021  0.00  0.00    -0.227 OA
BRANCH  21  23
ATOM     23  O   UNL     1       2.809  -2.688  27.319  0.00  0.00    -0.303 OA
ATOM     24  H   UNL     1       2.276  -2.180  27.964  0.00  0.00    +0.222 HD
ENDBRANCH  21  23
BRANCH  21  25
ATOM     25  O   UNL     1       5.143  -2.329  26.973  0.00  0.00    -0.303 OA
ATOM     26  H   UNL     1       5.685  -3.019  26.547  0.00  0.00    +0.222 HD
ENDBRANCH  21  25
ENDBRANCH  20  21
ENDBRANCH  19  20
BRANCH  19  27
ATOM     27  C   UNL     1       4.647  -6.855  27.031  0.00  0.00    +0.042 C 
BRANCH  27  28
ATOM     28  C   UNL     1       3.600  -6.790  25.910  0.00  0.00    +0.003 C 
BRANCH  28  29
ATOM     29  C   UNL     1       4.257  -6.935  24.532  0.00  0.00    -0.003 C 
ATOM     30  C   UNL     1       3.562  -6.084  23.480  0.00  0.00    +0.004 C 
ENDBRANCH  28  29
ENDBRANCH  27  28
ENDBRANCH  19  27
ENDBRANCH  17  19
ENDBRANCH   1  15
BRANCH   1  31
ATOM     31  C   UNL     1       8.304  -4.770  23.733  0.00  0.00    +0.034 C 
BRANCH  31  32
ATOM     32  C   UNL     1       6.985  -4.912  22.927  0.00  0.00    -0.015 C 
ATOM     33  C   UNL     1       7.085  -6.015  21.869  0.00  0.00    +0.007 C 
ATOM     34  C   UNL     1       6.551  -3.612  22.241  0.00  0.00    +0.007 C 
ENDBRANCH  31  32
ENDBRANCH   1  31
TORSDOF 14
ENDMDL
MODEL 7
REMARK VINA RESULT:      -5.6      3.666      8.417
REMARK  Name = 
REMARK  17 active torsions:
REMARK  status: ('A' for Active; 'I' for Inactive)
REMARK    1  A    between atoms: C_2  and  C_3
REMARK    2  A    between atoms: C_2  and  N_7
REMARK    3  A    between atoms: C_2  and  C_21
REMARK    4  A    between atoms: C_3  and  C_4
REMARK    5  A    between atoms: C_4  and  C_5
REMARK    6  A    between atoms: C_4  and  C_6
REMARK    7  A    between atoms: C_8  and  C_10
REMARK    8  A    between atoms: C_10  and  C_12
REMARK    9  A    between atoms: C_10  and  O_16
REMARK   10  A    between atoms: C_12  and  C_13
REMARK   11  A    between atoms: C_13  and  C_14
REMARK   12  A    between atoms: C_14  and  C_15
REMARK   13  A    between atoms: O_16  and  P_17
REMARK   14  A    between atoms: P_17  and  O_18
REMARK   15  A    between atoms: P_17  and  O_19
REMARK   16  A    between atoms: N_23  and  C_24
REMARK   17  A    between atoms: C_27  and  N_30
REMARK                            x       y       z     vdW  Elec       q    Type
REMARK                         _______ _______ _______ _____ _____    ______ ____
ROOT
ATOM      1  C   UNL     1       6.449  -0.060  24.159  0.00  0.00    +0.159 C 
ENDROOT
BRANCH   1   2
ATOM      2  C   UNL     1       7.315   1.065  23.520  0.00  0.00    +0.238 C 
ATOM      3  N   UNL     1       8.169   1.699  24.420  0.00  0.00    -0.284 N 
ATOM      4  H   UNL     1       8.196   1.335  25.360  0.00  0.00    +0.155 HD
ATOM      5  O   UNL     1       7.268   1.299  22.309  0.00  0.00    -0.273 OA
BRANCH   3   6
ATOM      6  C   UNL     1       9.165   2.642  24.131  0.00  0.00    +0.034 A 
ATOM      7  C   UNL     1       8.864   3.999  24.349  0.00  0.00    +0.030 A 
ATOM      8  C   UNL     1       9.830   4.986  24.126  0.00  0.00    +0.086 A 
ATOM      9  C   UNL     1      11.090   4.613  23.643  0.00  0.00    +0.273 A 
ATOM     10  C   UNL     1      11.377   3.273  23.371  0.00  0.00    +0.086 A 
ATOM     11  C   UNL     1      10.415   2.291  23.626  0.00  0.00    +0.030 A 
BRANCH   9  12
ATOM     12  N   UNL     1      12.125   5.635  23.431  0.00  0.00    +0.080 N 
ATOM     13  O   UNL     1      12.318   6.455  24.339  0.00  0.00    +0.041 OA
ATOM     14  O   UNL     1      12.746   5.610  22.362  0.00  0.00    -0.576 OA
ENDBRANCH   9  12
ENDBRANCH   3   6
ENDBRANCH   1   2
BRANCH   1  15
ATOM     15  N   UNL     1       6.893  -1.375  23.632  0.00  0.00    -0.302 N 
ATOM     16  H   UNL     1       6.181  -2.005  23.273  0.00  0.00    +0.150 HD
ATOM     17  C   UNL     1       8.118  -1.925  23.954  0.00  0.00    +0.243 C 
ATOM     18  O   UNL     1       8.948  -1.305  24.618  0.00  0.00    -0.273 OA
BRANCH  17  19
ATOM     19  C   UNL     1       8.408  -3.372  23.440  0.00  0.00    +0.216 C 
BRANCH  19  20
ATOM     20  O   UNL     1       9.232  -4.136  24.300  0.00  0.00    -0.274 OA
BRANCH  20  21
ATOM     21  P   UNL     1       8.474  -5.036  25.569  0.00  0.00    +0.473 P 
ATOM     22  O   UNL     1       7.795  -5.843  26.704  0.00  0.00    -0.227 OA
BRANCH  21  23
ATOM     23  O   UNL     1       8.934  -3.850  26.594  0.00  0.00    -0.303 OA
ATOM     24  H   UNL     1       9.349  -4.309  27.354  0.00  0.00    +0.222 HD
ENDBRANCH  21  23
BRANCH  21  25
ATOM     25  O   UNL     1       9.910  -5.814  25.654  0.00  0.00    -0.303 OA
ATOM     26  H   UNL     1      10.618  -5.145  25.593  0.00  0.00    +0.222 HD
ENDBRANCH  21  25
ENDBRANCH  20  21
ENDBRANCH  19  20
BRANCH  19  27
ATOM     27  C   UNL     1       7.084  -4.102  23.143  0.00  0.00    +0.042 C 
BRANCH  27  28
ATOM     28  C   UNL     1       7.123  -4.986  21.888  0.00  0.00    +0.003 C 
BRANCH  28  29
ATOM     29  C   UNL     1       6.280  -6.251  22.079  0.00  0.00    -0.003 C 
ATOM     30  C   UNL     1       5.370  -6.149  23.295  0.00  0.00    +0.004 C 
ENDBRANCH  28  29
ENDBRANCH  27  28
ENDBRANCH  19  27
ENDBRANCH  17  19
ENDBRANCH   1  15
BRANCH   1  31
ATOM     31  C   UNL     1       6.507  -0.061  25.712  0.00  0.00    +0.034 C 
BRANCH  31  32
ATOM     32  C   UNL     1       5.312   0.576  26.470  0.00  0.00    -0.015 C 
ATOM     33  C   UNL     1       4.702   1.742  25.687  0.00  0.00    +0.007 C 
ATOM     34  C   UNL     1       5.678   1.067  27.875  0.00  0.00    +0.007 C 
ENDBRANCH  31  32
ENDBRANCH   1  31
TORSDOF 14
ENDMDL
MODEL 8
REMARK VINA RESULT:      -5.6      3.099      8.036
REMARK  Name = 
REMARK  17 active torsions:
REMARK  status: ('A' for Active; 'I' for Inactive)
REMARK    1  A    between atoms: C_2  and  C_3
REMARK    2  A    between atoms: C_2  and  N_7
REMARK    3  A    between atoms: C_2  and  C_21
REMARK    4  A    between atoms: C_3  and  C_4
REMARK    5  A    between atoms: C_4  and  C_5
REMARK    6  A    between atoms: C_4  and  C_6
REMARK    7  A    between atoms: C_8  and  C_10
REMARK    8  A    between atoms: C_10  and  C_12
REMARK    9  A    between atoms: C_10  and  O_16
REMARK   10  A    between atoms: C_12  and  C_13
REMARK   11  A    between atoms: C_13  and  C_14
REMARK   12  A    between atoms: C_14  and  C_15
REMARK   13  A    between atoms: O_16  and  P_17
REMARK   14  A    between atoms: P_17  and  O_18
REMARK   15  A    between atoms: P_17  and  O_19
REMARK   16  A    between atoms: N_23  and  C_24
REMARK   17  A    between atoms: C_27  and  N_30
REMARK                            x       y       z     vdW  Elec       q    Type
REMARK                         _______ _______ _______ _____ _____    ______ ____
ROOT
ATOM      1  C   UNL     1       5.976  -1.351  24.518  0.00  0.00    +0.159 C 
ENDROOT
BRANCH   1   2
ATOM      2  C   UNL     1       7.140  -0.354  24.796  0.00  0.00    +0.238 C 
ATOM      3  N   UNL     1       7.571   0.339  23.667  0.00  0.00    -0.284 N 
ATOM      4  H   UNL     1       7.060   0.184  22.812  0.00  0.00    +0.155 HD
ATOM      5  O   UNL     1       7.568  -0.172  25.939  0.00  0.00    -0.273 OA
BRANCH   3   6
ATOM      6  C   UNL     1       8.491   1.395  23.613  0.00  0.00    +0.034 A 
ATOM      7  C   UNL     1       7.981   2.705  23.550  0.00  0.00    +0.030 A 
ATOM      8  C   UNL     1       8.847   3.804  23.543  0.00  0.00    +0.086 A 
ATOM      9  C   UNL     1      10.229   3.587  23.557  0.00  0.00    +0.273 A 
ATOM     10  C   UNL     1      10.743   2.288  23.563  0.00  0.00    +0.086 A 
ATOM     11  C   UNL     1       9.870   1.196  23.601  0.00  0.00    +0.030 A 
BRANCH   9  12
ATOM     12  N   UNL     1      11.151   4.732  23.579  0.00  0.00    +0.080 N 
ATOM     13  O   UNL     1      10.679   5.844  23.856  0.00  0.00    +0.041 OA
ATOM     14  O   UNL     1      12.341   4.515  23.327  0.00  0.00    -0.576 OA
ENDBRANCH   9  12
ENDBRANCH   3   6
ENDBRANCH   1   2
BRANCH   1  15
ATOM     15  N   UNL     1       6.537  -2.712  24.327  0.00  0.00    -0.302 N 
ATOM     16  H   UNL     1       6.751  -3.256  25.158  0.00  0.00    +0.150 HD
ATOM     17  C   UNL     1       7.129  -3.108  23.144  0.00  0.00    +0.243 C 
ATOM     18  O   UNL     1       7.134  -2.382  22.150  0.00  0.00    -0.273 OA
BRANCH  17  19
ATOM     19  C   UNL     1       7.797  -4.521  23.118  0.00  0.00    +0.216 C 
BRANCH  19  20
ATOM     20  O   UNL     1       8.835  -4.687  24.065  0.00  0.00    -0.274 OA
BRANCH  20  21
ATOM     21  P   UNL     1       8.413  -5.242  25.649  0.00  0.00    +0.473 P 
ATOM     22  O   UNL     1       8.035  -5.739  27.067  0.00  0.00    -0.227 OA
BRANCH  21  23
ATOM     23  O   UNL     1       8.716  -3.728  26.187  0.00  0.00    -0.303 OA
ATOM     24  H   UNL     1       9.603  -3.501  25.839  0.00  0.00    +0.222 HD
ENDBRANCH  21  23
BRANCH  21  25
ATOM     25  O   UNL     1       9.981  -5.699  25.729  0.00  0.00    -0.303 OA
ATOM     26  H   UNL     1      10.006  -6.650  25.945  0.00  0.00    +0.222 HD
ENDBRANCH  21  25
ENDBRANCH  20  21
ENDBRANCH  19  20
BRANCH  19  27
ATOM     27  C   UNL     1       6.723  -5.615  23.271  0.00  0.00    +0.042 C 
BRANCH  27  28
ATOM     28  C   UNL     1       5.501  -5.424  22.361  0.00  0.00    +0.003 C 
BRANCH  28  29
ATOM     29  C   UNL     1       4.199  -5.481  23.167  0.00  0.00    -0.003 C 
ATOM     30  C   UNL     1       4.418  -6.055  24.559  0.00  0.00    +0.004 C 
ENDBRANCH  28  29
ENDBRANCH  27  28
ENDBRANCH  19  27
ENDBRANCH  17  19
ENDBRANCH   1  15
BRANCH   1  31
ATOM     31  C   UNL     1       4.911  -1.367  25.649  0.00  0.00    +0.034 C 
BRANCH  31  32
ATOM     32  C   UNL     1       4.425  -2.753  26.152  0.00  0.00    -0.015 C 
ATOM     33  C   UNL     1       2.902  -2.888  26.055  0.00  0.00    +0.007 C 
ATOM     34  C   UNL     1       4.855  -3.060  27.591  0.00  0.00    +0.007 C 
ENDBRANCH  31  32
ENDBRANCH   1  31
TORSDOF 14
ENDMDL
MODEL 9
REMARK VINA RESULT:      -5.6      3.724      5.518
REMARK  Name = 
REMARK  17 active torsions:
REMARK  status: ('A' for Active; 'I' for Inactive)
REMARK    1  A    between atoms: C_2  and  C_3
REMARK    2  A    between atoms: C_2  and  N_7
REMARK    3  A    between atoms: C_2  and  C_21
REMARK    4  A    between atoms: C_3  and  C_4
REMARK    5  A    between atoms: C_4  and  C_5
REMARK    6  A    between atoms: C_4  and  C_6
REMARK    7  A    between atoms: C_8  and  C_10
REMARK    8  A    between atoms: C_10  and  C_12
REMARK    9  A    between atoms: C_10  and  O_16
REMARK   10  A    between atoms: C_12  and  C_13
REMARK   11  A    between atoms: C_13  and  C_14
REMARK   12  A    between atoms: C_14  and  C_15
REMARK   13  A    between atoms: O_16  and  P_17
REMARK   14  A    between atoms: P_17  and  O_18
REMARK   15  A    between atoms: P_17  and  O_19
REMARK   16  A    between atoms: N_23  and  C_24
REMARK   17  A    between atoms: C_27  and  N_30
REMARK                            x       y       z     vdW  Elec       q    Type
REMARK                         _______ _______ _______ _____ _____    ______ ____
ROOT
ATOM      1  C   UNL     1       7.507   0.196  23.487  0.00  0.00    +0.159 C 
ENDROOT
BRANCH   1   2
ATOM      2  C   UNL     1       6.493  -0.894  23.942  0.00  0.00    +0.238 C 
ATOM      3  N   UNL     1       6.844  -2.187  23.559  0.00  0.00    -0.284 N 
ATOM      4  H   UNL     1       7.731  -2.301  23.093  0.00  0.00    +0.155 HD
ATOM      5  O   UNL     1       5.514  -0.607  24.637  0.00  0.00    -0.273 OA
BRANCH   3   6
ATOM      6  C   UNL     1       6.222  -3.386  23.932  0.00  0.00    +0.034 A 
ATOM      7  C   UNL     1       6.749  -4.080  25.037  0.00  0.00    +0.030 A 
ATOM      8  C   UNL     1       6.145  -5.258  25.490  0.00  0.00    +0.086 A 
ATOM      9  C   UNL     1       5.034  -5.763  24.806  0.00  0.00    +0.273 A 
ATOM     10  C   UNL     1       4.539  -5.110  23.675  0.00  0.00    +0.086 A 
ATOM     11  C   UNL     1       5.131  -3.916  23.248  0.00  0.00    +0.030 A 
BRANCH   9  12
ATOM     12  N   UNL     1       4.370  -6.984  25.286  0.00  0.00    +0.080 N 
ATOM     13  O   UNL     1       3.874  -7.740  24.439  0.00  0.00    +0.041 OA
ATOM     14  O   UNL     1       4.352  -7.186  26.506  0.00  0.00    -0.576 OA
ENDBRANCH   9  12
ENDBRANCH   3   6
ENDBRANCH   1   2
BRANCH   1  15
ATOM     15  N   UNL     1       6.848   1.525  23.538  0.00  0.00    -0.302 N 
ATOM     16  H   UNL     1       6.115   1.663  24.229  0.00  0.00    +0.150 HD
ATOM     17  C   UNL     1       6.896   2.416  22.483  0.00  0.00    +0.243 C 
ATOM     18  O   UNL     1       7.574   2.192  21.481  0.00  0.00    -0.273 OA
BRANCH  17  19
ATOM     19  C   UNL     1       6.050   3.724  22.614  0.00  0.00    +0.216 C 
BRANCH  19  20
ATOM     20  O   UNL     1       5.295   3.806  23.808  0.00  0.00    -0.274 OA
BRANCH  20  21
ATOM     21  P   UNL     1       3.629   3.343  23.754  0.00  0.00    +0.473 P 
ATOM     22  O   UNL     1       2.137   2.930  23.706  0.00  0.00    -0.227 OA
BRANCH  21  23
ATOM     23  O   UNL     1       4.068   1.934  24.455  0.00  0.00    -0.303 OA
ATOM     24  H   UNL     1       4.162   1.295  23.718  0.00  0.00    +0.222 HD
ENDBRANCH  21  23
BRANCH  21  25
ATOM     25  O   UNL     1       3.989   2.828  22.244  0.00  0.00    -0.303 OA
ATOM     26  H   UNL     1       4.759   2.232  22.306  0.00  0.00    +0.222 HD
ENDBRANCH  21  25
ENDBRANCH  20  21
ENDBRANCH  19  20
BRANCH  19  27
ATOM     27  C   UNL     1       6.957   4.957  22.442  0.00  0.00    +0.042 C 
BRANCH  27  28
ATOM     28  C   UNL     1       8.078   5.061  23.488  0.00  0.00    +0.003 C 
BRANCH  28  29
ATOM     29  C   UNL     1       8.916   6.326  23.273  0.00  0.00    -0.003 C 
ATOM     30  C   UNL     1      10.359   6.132  23.716  0.00  0.00    +0.004 C 
ENDBRANCH  28  29
ENDBRANCH  27  28
ENDBRANCH  19  27
ENDBRANCH  17  19
ENDBRANCH   1  15
BRANCH   1  31
ATOM     31  C   UNL     1       8.804   0.211  24.341  0.00  0.00    +0.034 C 
BRANCH  31  32
ATOM     32  C   UNL     1      10.137   0.525  23.610  0.00  0.00    -0.015 C 
ATOM     33  C   UNL     1      10.477   2.017  23.670  0.00  0.00    +0.007 C 
ATOM     34  C   UNL     1      10.142   0.079  22.143  0.00  0.00    +0.007 C 
ENDBRANCH  31  32
ENDBRANCH   1  31
TORSDOF 14
ENDMDL
