MODEL 1
REMARK VINA RESULT:      -7.9      0.000      0.000
REMARK  Name = 
REMARK  13 active torsions:
REMARK  status: ('A' for Active; 'I' for Inactive)
REMARK    1  A    between atoms: N_1  and  C_2
REMARK    2  A    between atoms: C_4  and  C_5
REMARK    3  A    between atoms: C_5  and  N_6
REMARK    4  A    between atoms: C_7  and  O_8
REMARK    5  A    between atoms: N_9  and  C_10
REMARK    6  A    between atoms: C_10  and  C_11
REMARK    7  A    between atoms: C_13  and  N_14
REMARK    8  A    between atoms: C_18  and  C_20
REMARK    9  A    between atoms: C_20  and  C_21
REMARK   10  A    between atoms: C_27  and  O_29
REMARK   11  A    between atoms: C_30  and  O_32
REMARK   12  A    between atoms: C_33  and  C_35
REMARK   13  A    between atoms: C_35  and  C_36
REMARK                            x       y       z     vdW  Elec       q    Type
REMARK                         _______ _______ _______ _____ _____    ______ ____
ROOT
ATOM      1  N   UNL     1       7.033  -1.823  24.099  0.00  0.00    -0.255 NA
ATOM      2  C   UNL     1       8.007  -2.675  23.350  0.00  0.00    +0.096 C 
ATOM      3  C   UNL     1       8.814  -3.479  24.425  0.00  0.00    +0.162 C 
ATOM      4  C   UNL     1       8.180  -4.854  24.744  0.00  0.00    +0.162 C 
ATOM      5  C   UNL     1       6.626  -4.885  24.912  0.00  0.00    +0.096 C 
ATOM      6  N   UNL     1       6.038  -3.644  25.448  0.00  0.00    -0.255 NA
ATOM      7  C   UNL     1       5.826  -2.527  24.565  0.00  0.00    +0.264 C 
ENDROOT
BRANCH   3   8
ATOM      8  O   UNL     1      10.212  -3.629  24.137  0.00  0.00    -0.388 OA
ATOM      9  H   UNL     1      10.583  -4.312  24.721  0.00  0.00    +0.210 HD
ENDBRANCH   3   8
BRANCH   4  10
ATOM     10  O   UNL     1       8.810  -5.357  25.940  0.00  0.00    -0.388 OA
ATOM     11  H   UNL     1       9.328  -6.146  25.707  0.00  0.00    +0.210 HD
ENDBRANCH   4  10
BRANCH   7  12
ATOM     12  O   UNL     1       4.974  -2.876  23.499  0.00  0.00    -0.364 OA
ATOM     13  H   UNL     1       5.385  -3.623  23.048  0.00  0.00    +0.213 HD
ENDBRANCH   7  12
BRANCH   1  14
ATOM     14  C   UNL     1       6.575  -0.536  23.554  0.00  0.00    +0.123 C 
BRANCH  14  19
ATOM     15  C   UNL     1       7.322   1.684  26.525  0.00  0.00    +0.025 A 
ATOM     16  C   UNL     1       7.271   2.951  25.947  0.00  0.00    +0.023 A 
ATOM     17  C   UNL     1       7.013   3.107  24.580  0.00  0.00    +0.002 A 
ATOM     18  C   UNL     1       6.773   1.992  23.777  0.00  0.00    +0.005 A 
ATOM     19  C   UNL     1       6.749   0.722  24.356  0.00  0.00    -0.031 A 
ATOM     20  C   UNL     1       6.997   0.588  25.734  0.00  0.00    +0.027 A 
BRANCH  15  21
ATOM     21  N   UNL     1       7.483   1.518  27.904  0.00  0.00    -0.358 N 
ATOM     22  H   UNL     1       8.206   0.849  28.145  0.00  0.00    +0.142 HD
ATOM     23  H   UNL     1       6.613   1.327  28.394  0.00  0.00    +0.142 HD
ENDBRANCH  15  21
ENDBRANCH  14  19
ENDBRANCH   1  14
BRANCH   2  24
ATOM     24  C   UNL     1       8.946  -2.029  22.291  0.00  0.00    +0.056 C 
BRANCH  24  25
ATOM     25  C   UNL     1       9.496  -0.653  22.653  0.00  0.00    -0.046 A 
ATOM     26  C   UNL     1       9.421   0.391  21.717  0.00  0.00    +0.004 A 
ATOM     27  C   UNL     1       9.940   1.653  22.008  0.00  0.00    +0.000 A 
ATOM     28  C   UNL     1      10.549   1.887  23.237  0.00  0.00    +0.000 A 
ATOM     29  C   UNL     1      10.630   0.863  24.178  0.00  0.00    +0.000 A 
ATOM     30  C   UNL     1      10.109  -0.401  23.889  0.00  0.00    +0.004 A 
ENDBRANCH  24  25
ENDBRANCH   2  24
BRANCH   5  31
ATOM     31  C   UNL     1       5.965  -5.498  23.624  0.00  0.00    +0.056 C 
BRANCH  31  32
ATOM     32  C   UNL     1       4.606  -6.169  23.705  0.00  0.00    -0.046 A 
ATOM     33  C   UNL     1       4.376  -7.076  24.757  0.00  0.00    +0.004 A 
ATOM     34  C   UNL     1       3.149  -7.728  24.889  0.00  0.00    +0.000 A 
ATOM     35  C   UNL     1       2.132  -7.482  23.973  0.00  0.00    +0.000 A 
ATOM     36  C   UNL     1       2.344  -6.588  22.926  0.00  0.00    +0.000 A 
ATOM     37  C   UNL     1       3.572  -5.934  22.795  0.00  0.00    +0.004 A 
ENDBRANCH  31  32
ENDBRANCH   5  31
BRANCH   6  38
ATOM     38  C   UNL     1       6.508  -3.271  26.797  0.00  0.00    +0.123 C 
BRANCH  38  39
ATOM     39  C   UNL     1       5.903  -4.133  27.891  0.00  0.00    -0.031 A 
ATOM     40  C   UNL     1       4.695  -3.774  28.502  0.00  0.00    +0.005 A 
ATOM     41  C   UNL     1       4.121  -4.605  29.465  0.00  0.00    +0.002 A 
ATOM     42  C   UNL     1       4.742  -5.811  29.805  0.00  0.00    +0.023 A 
ATOM     43  C   UNL     1       5.915  -6.213  29.163  0.00  0.00    +0.025 A 
ATOM     44  C   UNL     1       6.522  -5.338  28.260  0.00  0.00    +0.027 A 
BRANCH  43  45
ATOM     45  N   UNL     1       6.585  -7.375  29.570  0.00  0.00    -0.358 N 
ATOM     46  H   UNL     1       7.220  -7.735  28.864  0.00  0.00    +0.142 HD
ATOM     47  H   UNL     1       7.041  -7.272  30.471  0.00  0.00    +0.142 HD
ENDBRANCH  43  45
ENDBRANCH  38  39
ENDBRANCH   6  38
TORSDOF 13
ENDMDL
MODEL 2
REMARK VINA RESULT:      -7.7      2.152      6.226
REMARK  Name = 
REMARK  13 active torsions:
REMARK  status: ('A' for Active; 'I' for Inactive)
REMARK    1  A    between atoms: N_1  and  C_2
REMARK    2  A    between atoms: C_4  and  C_5
REMARK    3  A    between atoms: C_5  and  N_6
REMARK    4  A    between atoms: C_7  and  O_8
REMARK    5  A    between atoms: N_9  and  C_10
REMARK    6  A    between atoms: C_10  and  C_11
REMARK    7  A    between atoms: C_13  and  N_14
REMARK    8  A    between atoms: C_18  and  C_20
REMARK    9  A    between atoms: C_20  and  C_21
REMARK   10  A    between atoms: C_27  and  O_29
REMARK   11  A    between atoms: C_30  and  O_32
REMARK   12  A    between atoms: C_33  and  C_35
REMARK   13  A    between atoms: C_35  and  C_36
REMARK                            x       y       z     vdW  Elec       q    Type
REMARK                         _______ _______ _______ _____ _____    ______ ____
ROOT
ATOM      1  N   UNL     1       7.094  -1.398  25.073  0.00  0.00    -0.255 NA
ATOM      2  C   UNL     1       6.073  -2.485  24.973  0.00  0.00    +0.096 C 
ATOM      3  C   UNL     1       6.261  -3.146  23.565  0.00  0.00    +0.162 C 
ATOM      4  C   UNL     1       7.233  -4.351  23.596  0.00  0.00    +0.162 C 
ATOM      5  C   UNL     1       8.541  -4.173  24.433  0.00  0.00    +0.096 C 
ATOM      6  N   UNL     1       9.054  -2.792  24.490  0.00  0.00    -0.255 NA
ATOM      7  C   UNL     1       8.454  -1.856  25.404  0.00  0.00    +0.264 C 
ENDROOT
BRANCH   3   8
ATOM      8  O   UNL     1       5.041  -3.506  22.902  0.00  0.00    -0.388 OA
ATOM      9  H   UNL     1       4.292  -3.306  23.488  0.00  0.00    +0.210 HD
ENDBRANCH   3   8
BRANCH   4  10
ATOM     10  O   UNL     1       7.568  -4.674  22.231  0.00  0.00    -0.388 OA
ATOM     11  H   UNL     1       7.533  -3.858  21.703  0.00  0.00    +0.210 HD
ENDBRANCH   4  10
BRANCH   7  12
ATOM     12  O   UNL     1       8.548  -2.311  26.734  0.00  0.00    -0.364 OA
ATOM     13  H   UNL     1       7.671  -2.624  26.984  0.00  0.00    +0.213 HD
ENDBRANCH   7  12
BRANCH   1  14
ATOM     14  C   UNL     1       6.850  -0.202  25.893  0.00  0.00    +0.123 C 
BRANCH  14  19
ATOM     15  C   UNL     1       5.771   2.628  23.625  0.00  0.00    +0.025 A 
ATOM     16  C   UNL     1       6.581   3.670  24.073  0.00  0.00    +0.023 A 
ATOM     17  C   UNL     1       7.477   3.479  25.131  0.00  0.00    +0.002 A 
ATOM     18  C   UNL     1       7.594   2.228  25.738  0.00  0.00    +0.005 A 
ATOM     19  C   UNL     1       6.843   1.157  25.252  0.00  0.00    -0.031 A 
ATOM     20  C   UNL     1       5.959   1.367  24.178  0.00  0.00    +0.027 A 
BRANCH  15  21
ATOM     21  N   UNL     1       4.944   2.778  22.507  0.00  0.00    -0.358 N 
ATOM     22  H   UNL     1       4.290   3.549  22.595  0.00  0.00    +0.142 HD
ATOM     23  H   UNL     1       4.479   1.918  22.229  0.00  0.00    +0.142 HD
ENDBRANCH  15  21
ENDBRANCH  14  19
ENDBRANCH   1  14
BRANCH   2  24
ATOM     24  C   UNL     1       4.577  -2.171  25.264  0.00  0.00    +0.056 C 
BRANCH  24  25
ATOM     25  C   UNL     1       4.024  -2.753  26.561  0.00  0.00    -0.046 A 
ATOM     26  C   UNL     1       2.819  -3.473  26.539  0.00  0.00    +0.004 A 
ATOM     27  C   UNL     1       2.274  -3.994  27.713  0.00  0.00    +0.000 A 
ATOM     28  C   UNL     1       2.922  -3.795  28.928  0.00  0.00    +0.000 A 
ATOM     29  C   UNL     1       4.120  -3.085  28.968  0.00  0.00    +0.000 A 
ATOM     30  C   UNL     1       4.669  -2.565  27.793  0.00  0.00    +0.004 A 
ENDBRANCH  24  25
ENDBRANCH   2  24
BRANCH   5  31
ATOM     31  C   UNL     1       8.410  -4.951  25.793  0.00  0.00    +0.056 C 
BRANCH  31  32
ATOM     32  C   UNL     1       7.080  -5.552  26.207  0.00  0.00    -0.046 A 
ATOM     33  C   UNL     1       6.793  -5.642  27.582  0.00  0.00    +0.004 A 
ATOM     34  C   UNL     1       5.588  -6.185  28.032  0.00  0.00    +0.000 A 
ATOM     35  C   UNL     1       4.650  -6.644  27.112  0.00  0.00    +0.000 A 
ATOM     36  C   UNL     1       4.920  -6.562  25.748  0.00  0.00    +0.000 A 
ATOM     37  C   UNL     1       6.125  -6.017  25.299  0.00  0.00    +0.004 A 
ENDBRANCH  31  32
ENDBRANCH   5  31
BRANCH   6  38
ATOM     38  C   UNL     1       9.420  -2.215  23.182  0.00  0.00    +0.123 C 
BRANCH  38  39
ATOM     39  C   UNL     1       9.703  -0.724  23.253  0.00  0.00    -0.031 A 
ATOM     40  C   UNL     1      10.651  -0.215  24.149  0.00  0.00    +0.005 A 
ATOM     41  C   UNL     1      10.943   1.149  24.162  0.00  0.00    +0.002 A 
ATOM     42  C   UNL     1      10.303   2.008  23.262  0.00  0.00    +0.023 A 
ATOM     43  C   UNL     1       9.400   1.509  22.323  0.00  0.00    +0.025 A 
ATOM     44  C   UNL     1       9.056   0.156  22.371  0.00  0.00    +0.027 A 
BRANCH  43  45
ATOM     45  N   UNL     1       8.692   2.382  21.485  0.00  0.00    -0.358 N 
ATOM     46  H   UNL     1       8.635   2.052  20.526  0.00  0.00    +0.142 HD
ATOM     47  H   UNL     1       7.778   2.628  21.855  0.00  0.00    +0.142 HD
ENDBRANCH  43  45
ENDBRANCH  38  39
ENDBRANCH   6  38
TORSDOF 13
ENDMDL
MODEL 3
REMARK VINA RESULT:      -7.6      2.950      8.942
REMARK  Name = 
REMARK  13 active torsions:
REMARK  status: ('A' for Active; 'I' for Inactive)
REMARK    1  A    between atoms: N_1  and  C_2
REMARK    2  A    between atoms: C_4  and  C_5
REMARK    3  A    between atoms: C_5  and  N_6
REMARK    4  A    between atoms: C_7  and  O_8
REMARK    5  A    between atoms: N_9  and  C_10
REMARK    6  A    between atoms: C_10  and  C_11
REMARK    7  A    between atoms: C_13  and  N_14
REMARK    8  A    between atoms: C_18  and  C_20
REMARK    9  A    between atoms: C_20  and  C_21
REMARK   10  A    between atoms: C_27  and  O_29
REMARK   11  A    between atoms: C_30  and  O_32
REMARK   12  A    between atoms: C_33  and  C_35
REMARK   13  A    between atoms: C_35  and  C_36
REMARK                            x       y       z     vdW  Elec       q    Type
REMARK                         _______ _______ _______ _____ _____    ______ ____
ROOT
ATOM      1  N   UNL     1       8.168  -0.421  24.478  0.00  0.00    -0.255 NA
ATOM      2  C   UNL     1       9.291  -0.834  23.582  0.00  0.00    +0.096 C 
ATOM      3  C   UNL     1       8.845  -0.492  22.120  0.00  0.00    +0.162 C 
ATOM      4  C   UNL     1       9.290   0.922  21.674  0.00  0.00    +0.162 C 
ATOM      5  C   UNL     1       9.108   2.073  22.718  0.00  0.00    +0.096 C 
ATOM      6  N   UNL     1       7.970   1.898  23.637  0.00  0.00    -0.255 NA
ATOM      7  C   UNL     1       8.108   1.021  24.770  0.00  0.00    +0.264 C 
ENDROOT
BRANCH   3   8
ATOM      8  O   UNL     1       9.218  -1.465  21.134  0.00  0.00    -0.388 OA
ATOM      9  H   UNL     1      10.118  -1.778  21.324  0.00  0.00    +0.210 HD
ENDBRANCH   3   8
BRANCH   4  10
ATOM     10  O   UNL     1       8.573   1.244  20.465  0.00  0.00    -0.388 OA
ATOM     11  H   UNL     1       8.984   2.028  20.062  0.00  0.00    +0.210 HD
ENDBRANCH   4  10
BRANCH   7  12
ATOM     12  O   UNL     1       9.164   1.434  25.607  0.00  0.00    -0.364 OA
ATOM     13  H   UNL     1       9.406   2.325  25.330  0.00  0.00    +0.213 HD
ENDBRANCH   7  12
BRANCH   1  14
ATOM     14  C   UNL     1       7.921  -1.111  25.752  0.00  0.00    +0.123 C 
BRANCH  14  19
ATOM     15  C   UNL     1       5.503  -3.568  27.312  0.00  0.00    +0.025 A 
ATOM     16  C   UNL     1       4.375  -3.398  26.511  0.00  0.00    +0.023 A 
ATOM     17  C   UNL     1       4.373  -2.469  25.463  0.00  0.00    +0.002 A 
ATOM     18  C   UNL     1       5.514  -1.717  25.186  0.00  0.00    +0.005 A 
ATOM     19  C   UNL     1       6.674  -1.929  25.933  0.00  0.00    -0.031 A 
ATOM     20  C   UNL     1       6.660  -2.877  26.972  0.00  0.00    +0.027 A 
BRANCH  15  21
ATOM     21  N   UNL     1       5.554  -4.559  28.298  0.00  0.00    -0.358 N 
ATOM     22  H   UNL     1       5.891  -4.217  29.191  0.00  0.00    +0.142 HD
ATOM     23  H   UNL     1       6.045  -5.399  28.004  0.00  0.00    +0.142 HD
ENDBRANCH  15  21
ENDBRANCH  14  19
ENDBRANCH   1  14
BRANCH   2  24
ATOM     24  C   UNL     1       9.872  -2.274  23.682  0.00  0.00    +0.056 C 
BRANCH  24  25
ATOM     25  C   UNL     1       8.842  -3.389  23.828  0.00  0.00    -0.046 A 
ATOM     26  C   UNL     1       9.012  -4.363  24.825  0.00  0.00    +0.004 A 
ATOM     27  C   UNL     1       8.101  -5.412  24.965  0.00  0.00    +0.000 A 
ATOM     28  C   UNL     1       7.012  -5.506  24.105  0.00  0.00    +0.000 A 
ATOM     29  C   UNL     1       6.827  -4.547  23.111  0.00  0.00    +0.000 A 
ATOM     30  C   UNL     1       7.737  -3.495  22.971  0.00  0.00    +0.004 A 
ENDBRANCH  24  25
ENDBRANCH   2  24
BRANCH   5  31
ATOM     31  C   UNL     1      10.499   2.437  23.353  0.00  0.00    +0.056 C 
BRANCH  31  32
ATOM     32  C   UNL     1      10.838   3.880  23.680  0.00  0.00    -0.046 A 
ATOM     33  C   UNL     1      12.152   4.323  23.438  0.00  0.00    +0.004 A 
ATOM     34  C   UNL     1      12.531   5.638  23.717  0.00  0.00    +0.000 A 
ATOM     35  C   UNL     1      11.601   6.530  24.239  0.00  0.00    +0.000 A 
ATOM     36  C   UNL     1      10.297   6.107  24.485  0.00  0.00    +0.000 A 
ATOM     37  C   UNL     1       9.917   4.791  24.204  0.00  0.00    +0.004 A 
ENDBRANCH  31  32
ENDBRANCH   5  31
BRANCH   6  38
ATOM     38  C   UNL     1       6.649   1.839  22.981  0.00  0.00    +0.123 C 
BRANCH  38  39
ATOM     39  C   UNL     1       6.022   3.208  22.789  0.00  0.00    -0.031 A 
ATOM     40  C   UNL     1       4.712   3.463  23.212  0.00  0.00    +0.005 A 
ATOM     41  C   UNL     1       4.169   4.742  23.084  0.00  0.00    +0.002 A 
ATOM     42  C   UNL     1       4.943   5.778  22.552  0.00  0.00    +0.023 A 
ATOM     43  C   UNL     1       6.270   5.556  22.180  0.00  0.00    +0.025 A 
ATOM     44  C   UNL     1       6.777   4.256  22.239  0.00  0.00    +0.027 A 
BRANCH  43  45
ATOM     45  N   UNL     1       7.014   6.571  21.563  0.00  0.00    -0.358 N 
ATOM     46  H   UNL     1       7.941   6.267  21.279  0.00  0.00    +0.142 HD
ATOM     47  H   UNL     1       6.514   7.017  20.800  0.00  0.00    +0.142 HD
ENDBRANCH  43  45
ENDBRANCH  38  39
ENDBRANCH   6  38
TORSDOF 13
ENDMDL
MODEL 4
REMARK VINA RESULT:      -7.2      1.716      5.884
REMARK  Name = 
REMARK  13 active torsions:
REMARK  status: ('A' for Active; 'I' for Inactive)
REMARK    1  A    between atoms: N_1  and  C_2
REMARK    2  A    between atoms: C_4  and  C_5
REMARK    3  A    between atoms: C_5  and  N_6
REMARK    4  A    between atoms: C_7  and  O_8
REMARK    5  A    between atoms: N_9  and  C_10
REMARK    6  A    between atoms: C_10  and  C_11
REMARK    7  A    between atoms: C_13  and  N_14
REMARK    8  A    between atoms: C_18  and  C_20
REMARK    9  A    between atoms: C_20  and  C_21
REMARK   10  A    between atoms: C_27  and  O_29
REMARK   11  A    between atoms: C_30  and  O_32
REMARK   12  A    between atoms: C_33  and  C_35
REMARK   13  A    between atoms: C_35  and  C_36
REMARK                            x       y       z     vdW  Elec       q    Type
REMARK                         _______ _______ _______ _____ _____    ______ ____
ROOT
ATOM      1  N   UNL     1       5.984  -2.547  24.800  0.00  0.00    -0.255 NA
ATOM      2  C   UNL     1       7.056  -1.576  25.176  0.00  0.00    +0.096 C 
ATOM      3  C   UNL     1       8.343  -2.422  25.463  0.00  0.00    +0.162 C 
ATOM      4  C   UNL     1       9.235  -2.599  24.210  0.00  0.00    +0.162 C 
ATOM      5  C   UNL     1       8.500  -2.931  22.870  0.00  0.00    +0.096 C 
ATOM      6  N   UNL     1       7.258  -3.709  23.024  0.00  0.00    -0.255 NA
ATOM      7  C   UNL     1       6.047  -3.033  23.411  0.00  0.00    +0.264 C 
ENDROOT
BRANCH   3   8
ATOM      8  O   UNL     1       9.129  -1.963  26.572  0.00  0.00    -0.388 OA
ATOM      9  H   UNL     1       8.536  -1.592  27.247  0.00  0.00    +0.210 HD
ENDBRANCH   3   8
BRANCH   4  10
ATOM     10  O   UNL     1      10.200  -3.629  24.504  0.00  0.00    -0.388 OA
ATOM     11  H   UNL     1      10.269  -4.217  23.733  0.00  0.00    +0.210 HD
ENDBRANCH   4  10
BRANCH   7  12
ATOM     12  O   UNL     1       5.708  -2.027  22.485  0.00  0.00    -0.364 OA
ATOM     13  H   UNL     1       6.386  -1.345  22.554  0.00  0.00    +0.213 HD
ENDBRANCH   7  12
BRANCH   1  14
ATOM     14  C   UNL     1       4.568  -2.256  25.071  0.00  0.00    +0.123 C 
BRANCH  14  19
ATOM     15  C   UNL     1       3.741  -3.894  28.380  0.00  0.00    +0.025 A 
ATOM     16  C   UNL     1       2.473  -4.416  28.125  0.00  0.00    +0.023 A 
ATOM     17  C   UNL     1       1.857  -4.228  26.882  0.00  0.00    +0.002 A 
ATOM     18  C   UNL     1       2.517  -3.537  25.866  0.00  0.00    +0.005 A 
ATOM     19  C   UNL     1       3.815  -3.073  26.082  0.00  0.00    -0.031 A 
ATOM     20  C   UNL     1       4.422  -3.285  27.333  0.00  0.00    +0.027 A 
BRANCH  15  21
ATOM     21  N   UNL     1       4.408  -4.156  29.581  0.00  0.00    -0.358 N 
ATOM     22  H   UNL     1       4.792  -5.094  29.628  0.00  0.00    +0.142 HD
ATOM     23  H   UNL     1       3.860  -3.930  30.407  0.00  0.00    +0.142 HD
ENDBRANCH  15  21
ENDBRANCH  14  19
ENDBRANCH   1  14
BRANCH   2  24
ATOM     24  C   UNL     1       6.796  -0.529  26.296  0.00  0.00    +0.056 C 
BRANCH  24  25
ATOM     25  C   UNL     1       6.674   0.917  25.828  0.00  0.00    -0.046 A 
ATOM     26  C   UNL     1       5.731   1.249  24.843  0.00  0.00    +0.004 A 
ATOM     27  C   UNL     1       5.614   2.558  24.374  0.00  0.00    +0.000 A 
ATOM     28  C   UNL     1       6.446   3.553  24.878  0.00  0.00    +0.000 A 
ATOM     29  C   UNL     1       7.386   3.242  25.858  0.00  0.00    +0.000 A 
ATOM     30  C   UNL     1       7.502   1.931  26.331  0.00  0.00    +0.004 A 
ENDBRANCH  24  25
ENDBRANCH   2  24
BRANCH   5  31
ATOM     31  C   UNL     1       8.439  -1.646  21.966  0.00  0.00    +0.056 C 
BRANCH  31  32
ATOM     32  C   UNL     1       8.989  -0.326  22.472  0.00  0.00    -0.046 A 
ATOM     33  C   UNL     1       8.327   0.857  22.093  0.00  0.00    +0.004 A 
ATOM     34  C   UNL     1       8.781   2.105  22.523  0.00  0.00    +0.000 A 
ATOM     35  C   UNL     1       9.903   2.189  23.342  0.00  0.00    +0.000 A 
ATOM     36  C   UNL     1      10.569   1.028  23.725  0.00  0.00    +0.000 A 
ATOM     37  C   UNL     1      10.113  -0.221  23.296  0.00  0.00    +0.004 A 
ENDBRANCH  31  32
ENDBRANCH   5  31
BRANCH   6  38
ATOM     38  C   UNL     1       7.434  -5.039  23.641  0.00  0.00    +0.123 C 
BRANCH  38  39
ATOM     39  C   UNL     1       6.133  -5.630  24.153  0.00  0.00    -0.031 A 
ATOM     40  C   UNL     1       5.037  -5.802  23.298  0.00  0.00    +0.005 A 
ATOM     41  C   UNL     1       3.868  -6.401  23.767  0.00  0.00    +0.002 A 
ATOM     42  C   UNL     1       3.797  -6.850  25.090  0.00  0.00    +0.023 A 
ATOM     43  C   UNL     1       4.899  -6.740  25.939  0.00  0.00    +0.025 A 
ATOM     44  C   UNL     1       6.036  -6.069  25.483  0.00  0.00    +0.027 A 
BRANCH  43  45
ATOM     45  N   UNL     1       4.796  -7.106  27.288  0.00  0.00    -0.358 N 
ATOM     46  H   UNL     1       5.699  -7.192  27.746  0.00  0.00    +0.142 HD
ATOM     47  H   UNL     1       4.163  -6.509  27.811  0.00  0.00    +0.142 HD
ENDBRANCH  43  45
ENDBRANCH  38  39
ENDBRANCH   6  38
TORSDOF 13
ENDMDL
MODEL 5
REMARK VINA RESULT:      -7.2      2.310      7.592
REMARK  Name = 
REMARK  13 active torsions:
REMARK  status: ('A' for Active; 'I' for Inactive)
REMARK    1  A    between atoms: N_1  and  C_2
REMARK    2  A    between atoms: C_4  and  C_5
REMARK    3  A    between atoms: C_5  and  N_6
REMARK    4  A    between atoms: C_7  and  O_8
REMARK    5  A    between atoms: N_9  and  C_10
REMARK    6  A    between atoms: C_10  and  C_11
REMARK    7  A    between atoms: C_13  and  N_14
REMARK    8  A    between atoms: C_18  and  C_20
REMARK    9  A    between atoms: C_20  and  C_21
REMARK   10  A    between atoms: C_27  and  O_29
REMARK   11  A    between atoms: C_30  and  O_32
REMARK   12  A    between atoms: C_33  and  C_35
REMARK   13  A    between atoms: C_35  and  C_36
REMARK                            x       y       z     vdW  Elec       q    Type
REMARK                         _______ _______ _______ _____ _____    ______ ____
ROOT
ATOM      1  N   UNL     1       6.681  -1.404  25.322  0.00  0.00    -0.255 NA
ATOM      2  C   UNL     1       7.052  -0.301  26.260  0.00  0.00    +0.096 C 
ATOM      3  C   UNL     1       8.613  -0.332  26.390  0.00  0.00    +0.162 C 
ATOM      4  C   UNL     1       9.318   0.589  25.365  0.00  0.00    +0.162 C 
ATOM      5  C   UNL     1       8.766   0.555  23.902  0.00  0.00    +0.096 C 
ATOM      6  N   UNL     1       8.201  -0.741  23.485  0.00  0.00    -0.255 NA
ATOM      7  C   UNL     1       6.867  -1.091  23.895  0.00  0.00    +0.264 C 
ENDROOT
BRANCH   3   8
ATOM      8  O   UNL     1       9.111  -0.078  27.712  0.00  0.00    -0.388 OA
ATOM      9  H   UNL     1       8.879   0.830  27.968  0.00  0.00    +0.210 HD
ENDBRANCH   3   8
BRANCH   4  10
ATOM     10  O   UNL     1      10.719   0.249  25.365  0.00  0.00    -0.388 OA
ATOM     11  H   UNL     1      10.895  -0.334  26.123  0.00  0.00    +0.210 HD
ENDBRANCH   4  10
BRANCH   7  12
ATOM     12  O   UNL     1       5.928  -0.145  23.436  0.00  0.00    -0.364 OA
ATOM     13  H   UNL     1       6.421   0.658  23.231  0.00  0.00    +0.213 HD
ENDBRANCH   7  12
BRANCH   1  14
ATOM     14  C   UNL     1       5.384  -2.087  25.429  0.00  0.00    +0.123 C 
BRANCH  14  19
ATOM     15  C   UNL     1       6.055  -5.488  26.945  0.00  0.00    +0.025 A 
ATOM     16  C   UNL     1       5.223  -6.304  26.181  0.00  0.00    +0.023 A 
ATOM     17  C   UNL     1       4.415  -5.763  25.174  0.00  0.00    +0.002 A 
ATOM     18  C   UNL     1       4.452  -4.396  24.900  0.00  0.00    +0.005 A 
ATOM     19  C   UNL     1       5.334  -3.578  25.607  0.00  0.00    -0.031 A 
ATOM     20  C   UNL     1       6.148  -4.143  26.605  0.00  0.00    +0.027 A 
BRANCH  15  21
ATOM     21  N   UNL     1       6.938  -6.026  27.887  0.00  0.00    -0.358 N 
ATOM     22  H   UNL     1       6.729  -6.990  28.125  0.00  0.00    +0.142 HD
ATOM     23  H   UNL     1       7.050  -5.447  28.715  0.00  0.00    +0.142 HD
ENDBRANCH  15  21
ENDBRANCH  14  19
ENDBRANCH   1  14
BRANCH   2  24
ATOM     24  C   UNL     1       6.362  -0.202  27.651  0.00  0.00    +0.056 C 
BRANCH  24  25
ATOM     25  C   UNL     1       5.883   1.191  28.049  0.00  0.00    -0.046 A 
ATOM     26  C   UNL     1       4.743   1.733  27.435  0.00  0.00    +0.004 A 
ATOM     27  C   UNL     1       4.296   3.015  27.757  0.00  0.00    +0.000 A 
ATOM     28  C   UNL     1       4.989   3.777  28.692  0.00  0.00    +0.000 A 
ATOM     29  C   UNL     1       6.122   3.254  29.312  0.00  0.00    +0.000 A 
ATOM     30  C   UNL     1       6.569   1.969  28.993  0.00  0.00    +0.004 A 
ENDBRANCH  24  25
ENDBRANCH   2  24
BRANCH   5  31
ATOM     31  C   UNL     1       7.902   1.840  23.631  0.00  0.00    +0.056 C 
BRANCH  31  32
ATOM     32  C   UNL     1       8.210   3.138  24.355  0.00  0.00    -0.046 A 
ATOM     33  C   UNL     1       7.441   3.463  25.488  0.00  0.00    +0.004 A 
ATOM     34  C   UNL     1       7.672   4.642  26.199  0.00  0.00    +0.000 A 
ATOM     35  C   UNL     1       8.677   5.512  25.790  0.00  0.00    +0.000 A 
ATOM     36  C   UNL     1       9.446   5.205  24.670  0.00  0.00    +0.000 A 
ATOM     37  C   UNL     1       9.216   4.024  23.959  0.00  0.00    +0.004 A 
ENDBRANCH  31  32
ENDBRANCH   5  31
BRANCH   6  38
ATOM     38  C   UNL     1       9.157  -1.865  23.502  0.00  0.00    +0.123 C 
BRANCH  38  39
ATOM     39  C   UNL     1       8.496  -3.206  23.236  0.00  0.00    -0.031 A 
ATOM     40  C   UNL     1       8.710  -4.294  24.092  0.00  0.00    +0.005 A 
ATOM     41  C   UNL     1       8.050  -5.503  23.869  0.00  0.00    +0.002 A 
ATOM     42  C   UNL     1       7.155  -5.622  22.802  0.00  0.00    +0.023 A 
ATOM     43  C   UNL     1       6.884  -4.531  21.975  0.00  0.00    +0.025 A 
ATOM     44  C   UNL     1       7.609  -3.352  22.158  0.00  0.00    +0.027 A 
BRANCH  43  45
ATOM     45  N   UNL     1       6.058  -4.678  20.851  0.00  0.00    -0.358 N 
ATOM     46  H   UNL     1       6.533  -5.110  20.064  0.00  0.00    +0.142 HD
ATOM     47  H   UNL     1       5.182  -5.144  21.066  0.00  0.00    +0.142 HD
ENDBRANCH  43  45
ENDBRANCH  38  39
ENDBRANCH   6  38
TORSDOF 13
ENDMDL
MODEL 6
REMARK VINA RESULT:      -7.2      2.577      6.951
REMARK  Name = 
REMARK  13 active torsions:
REMARK  status: ('A' for Active; 'I' for Inactive)
REMARK    1  A    between atoms: N_1  and  C_2
REMARK    2  A    between atoms: C_4  and  C_5
REMARK    3  A    between atoms: C_5  and  N_6
REMARK    4  A    between atoms: C_7  and  O_8
REMARK    5  A    between atoms: N_9  and  C_10
REMARK    6  A    between atoms: C_10  and  C_11
REMARK    7  A    between atoms: C_13  and  N_14
REMARK    8  A    between atoms: C_18  and  C_20
REMARK    9  A    between atoms: C_20  and  C_21
REMARK   10  A    between atoms: C_27  and  O_29
REMARK   11  A    between atoms: C_30  and  O_32
REMARK   12  A    between atoms: C_33  and  C_35
REMARK   13  A    between atoms: C_35  and  C_36
REMARK                            x       y       z     vdW  Elec       q    Type
REMARK                         _______ _______ _______ _____ _____    ______ ____
ROOT
ATOM      1  N   UNL     1       7.528  -0.351  24.495  0.00  0.00    -0.255 NA
ATOM      2  C   UNL     1       7.398   1.093  24.129  0.00  0.00    +0.096 C 
ATOM      3  C   UNL     1       5.863   1.400  24.065  0.00  0.00    +0.162 C 
ATOM      4  C   UNL     1       5.298   1.908  25.413  0.00  0.00    +0.162 C 
ATOM      5  C   UNL     1       5.778   1.159  26.699  0.00  0.00    +0.096 C 
ATOM      6  N   UNL     1       6.084  -0.270  26.503  0.00  0.00    -0.255 NA
ATOM      7  C   UNL     1       7.348  -0.646  25.926  0.00  0.00    +0.264 C 
ENDROOT
BRANCH   3   8
ATOM      8  O   UNL     1       5.470   2.275  22.998  0.00  0.00    -0.388 OA
ATOM      9  H   UNL     1       4.560   2.063  22.734  0.00  0.00    +0.210 HD
ENDBRANCH   3   8
BRANCH   4  10
ATOM     10  O   UNL     1       3.859   1.858  25.329  0.00  0.00    -0.388 OA
ATOM     11  H   UNL     1       3.551   2.646  24.850  0.00  0.00    +0.210 HD
ENDBRANCH   4  10
BRANCH   7  12
ATOM     12  O   UNL     1       8.424  -0.169  26.702  0.00  0.00    -0.364 OA
ATOM     13  H   UNL     1       9.230  -0.377  26.217  0.00  0.00    +0.213 HD
ENDBRANCH   7  12
BRANCH   1  14
ATOM     14  C   UNL     1       8.685  -1.144  24.053  0.00  0.00    +0.123 C 
BRANCH  14  19
ATOM     15  C   UNL     1       9.061  -4.842  24.761  0.00  0.00    +0.025 A 
ATOM     16  C   UNL     1       8.260  -5.400  23.767  0.00  0.00    +0.023 A 
ATOM     17  C   UNL     1       7.568  -4.587  22.861  0.00  0.00    +0.002 A 
ATOM     18  C   UNL     1       7.694  -3.199  22.923  0.00  0.00    +0.005 A 
ATOM     19  C   UNL     1       8.549  -2.629  23.867  0.00  0.00    -0.031 A 
ATOM     20  C   UNL     1       9.246  -3.464  24.758  0.00  0.00    +0.027 A 
BRANCH  15  21
ATOM     21  N   UNL     1       9.832  -5.642  25.610  0.00  0.00    -0.358 N 
ATOM     22  H   UNL     1      10.267  -5.121  26.364  0.00  0.00    +0.142 HD
ATOM     23  H   UNL     1      10.503  -6.226  25.118  0.00  0.00    +0.142 HD
ENDBRANCH  15  21
ENDBRANCH  14  19
ENDBRANCH   1  14
BRANCH   2  24
ATOM     24  C   UNL     1       8.147   1.647  22.883  0.00  0.00    +0.056 C 
BRANCH  24  25
ATOM     25  C   UNL     1       9.062   2.839  23.144  0.00  0.00    -0.046 A 
ATOM     26  C   UNL     1      10.455   2.666  23.099  0.00  0.00    +0.004 A 
ATOM     27  C   UNL     1      11.318   3.731  23.360  0.00  0.00    +0.000 A 
ATOM     28  C   UNL     1      10.800   4.983  23.678  0.00  0.00    +0.000 A 
ATOM     29  C   UNL     1       9.421   5.172  23.725  0.00  0.00    +0.000 A 
ATOM     30  C   UNL     1       8.555   4.108  23.462  0.00  0.00    +0.004 A 
ENDBRANCH  24  25
ENDBRANCH   2  24
BRANCH   5  31
ATOM     31  C   UNL     1       6.849   2.030  27.452  0.00  0.00    +0.056 C 
BRANCH  31  32
ATOM     32  C   UNL     1       6.721   3.541  27.487  0.00  0.00    -0.046 A 
ATOM     33  C   UNL     1       5.741   4.104  28.327  0.00  0.00    +0.004 A 
ATOM     34  C   UNL     1       5.569   5.487  28.407  0.00  0.00    +0.000 A 
ATOM     35  C   UNL     1       6.377   6.329  27.650  0.00  0.00    +0.000 A 
ATOM     36  C   UNL     1       7.350   5.788  26.813  0.00  0.00    +0.000 A 
ATOM     37  C   UNL     1       7.523   4.404  26.735  0.00  0.00    +0.004 A 
ENDBRANCH  31  32
ENDBRANCH   5  31
BRANCH   6  38
ATOM     38  C   UNL     1       4.943  -1.089  26.052  0.00  0.00    +0.123 C 
BRANCH  38  39
ATOM     39  C   UNL     1       5.237  -2.579  26.084  0.00  0.00    -0.031 A 
ATOM     40  C   UNL     1       6.009  -3.136  27.110  0.00  0.00    +0.005 A 
ATOM     41  C   UNL     1       6.222  -4.514  27.159  0.00  0.00    +0.002 A 
ATOM     42  C   UNL     1       5.644  -5.344  26.194  0.00  0.00    +0.023 A 
ATOM     43  C   UNL     1       4.822  -4.812  25.198  0.00  0.00    +0.025 A 
ATOM     44  C   UNL     1       4.681  -3.426  25.112  0.00  0.00    +0.027 A 
BRANCH  43  45
ATOM     45  N   UNL     1       4.320  -5.633  24.179  0.00  0.00    -0.358 N 
ATOM     46  H   UNL     1       3.659  -5.154  23.574  0.00  0.00    +0.142 HD
ATOM     47  H   UNL     1       5.052  -6.094  23.648  0.00  0.00    +0.142 HD
ENDBRANCH  43  45
ENDBRANCH  38  39
ENDBRANCH   6  38
TORSDOF 13
ENDMDL
MODEL 7
REMARK VINA RESULT:      -7.1      1.389      2.248
REMARK  Name = 
REMARK  13 active torsions:
REMARK  status: ('A' for Active; 'I' for Inactive)
REMARK    1  A    between atoms: N_1  and  C_2
REMARK    2  A    between atoms: C_4  and  C_5
REMARK    3  A    between atoms: C_5  and  N_6
REMARK    4  A    between atoms: C_7  and  O_8
REMARK    5  A    between atoms: N_9  and  C_10
REMARK    6  A    between atoms: C_10  and  C_11
REMARK    7  A    between atoms: C_13  and  N_14
REMARK    8  A    between atoms: C_18  and  C_20
REMARK    9  A    between atoms: C_20  and  C_21
REMARK   10  A    between atoms: C_27  and  O_29
REMARK   11  A    between atoms: C_30  and  O_32
REMARK   12  A    between atoms: C_33  and  C_35
REMARK   13  A    between atoms: C_35  and  C_36
REMARK                            x       y       z     vdW  Elec       q    Type
REMARK                         _______ _______ _______ _____ _____    ______ ____
ROOT
ATOM      1  N   UNL     1       7.005  -1.889  24.114  0.00  0.00    -0.255 NA
ATOM      2  C   UNL     1       7.990  -2.799  23.453  0.00  0.00    +0.096 C 
ATOM      3  C   UNL     1       8.737  -3.557  24.602  0.00  0.00    +0.162 C 
ATOM      4  C   UNL     1       8.062  -4.901  24.970  0.00  0.00    +0.162 C 
ATOM      5  C   UNL     1       6.501  -4.893  25.076  0.00  0.00    +0.096 C 
ATOM      6  N   UNL     1       5.920  -3.613  25.519  0.00  0.00    -0.255 NA
ATOM      7  C   UNL     1       5.766  -2.543  24.569  0.00  0.00    +0.264 C 
ENDROOT
BRANCH   3   8
ATOM      8  O   UNL     1      10.142  -3.750  24.381  0.00  0.00    -0.388 OA
ATOM      9  H   UNL     1      10.583  -2.884  24.381  0.00  0.00    +0.210 HD
ENDBRANCH   3   8
BRANCH   4  10
ATOM     10  O   UNL     1       8.633  -5.348  26.217  0.00  0.00    -0.388 OA
ATOM     11  H   UNL     1       8.528  -4.640  26.876  0.00  0.00    +0.210 HD
ENDBRANCH   4  10
BRANCH   7  12
ATOM     12  O   UNL     1       4.949  -2.935  23.489  0.00  0.00    -0.364 OA
ATOM     13  H   UNL     1       4.240  -3.473  23.859  0.00  0.00    +0.213 HD
ENDBRANCH   7  12
BRANCH   1  14
ATOM     14  C   UNL     1       6.596  -0.626  23.481  0.00  0.00    +0.123 C 
BRANCH  14  19
ATOM     15  C   UNL     1       6.526   3.100  24.136  0.00  0.00    +0.025 A 
ATOM     16  C   UNL     1       6.978   3.161  25.453  0.00  0.00    +0.023 A 
ATOM     17  C   UNL     1       7.294   1.994  26.158  0.00  0.00    +0.002 A 
ATOM     18  C   UNL     1       7.188   0.747  25.541  0.00  0.00    +0.005 A 
ATOM     19  C   UNL     1       6.807   0.676  24.200  0.00  0.00    -0.031 A 
ATOM     20  C   UNL     1       6.508   1.861  23.505  0.00  0.00    +0.027 A 
BRANCH  15  21
ATOM     21  N   UNL     1       6.300   4.260  23.389  0.00  0.00    -0.358 N 
ATOM     22  H   UNL     1       5.877   5.007  23.929  0.00  0.00    +0.142 HD
ATOM     23  H   UNL     1       5.800   4.092  22.520  0.00  0.00    +0.142 HD
ENDBRANCH  15  21
ENDBRANCH  14  19
ENDBRANCH   1  14
BRANCH   2  24
ATOM     24  C   UNL     1       8.983  -2.231  22.399  0.00  0.00    +0.056 C 
BRANCH  24  25
ATOM     25  C   UNL     1       9.519  -0.832  22.689  0.00  0.00    -0.046 A 
ATOM     26  C   UNL     1       9.389   0.174  21.718  0.00  0.00    +0.004 A 
ATOM     27  C   UNL     1       9.894   1.455  21.942  0.00  0.00    +0.000 A 
ATOM     28  C   UNL     1      10.543   1.747  23.137  0.00  0.00    +0.000 A 
ATOM     29  C   UNL     1      10.678   0.761  24.113  0.00  0.00    +0.000 A 
ATOM     30  C   UNL     1      10.171  -0.522  23.891  0.00  0.00    +0.004 A 
ENDBRANCH  24  25
ENDBRANCH   2  24
BRANCH   5  31
ATOM     31  C   UNL     1       5.879  -5.564  23.798  0.00  0.00    +0.056 C 
BRANCH  31  32
ATOM     32  C   UNL     1       4.519  -6.232  23.868  0.00  0.00    -0.046 A 
ATOM     33  C   UNL     1       4.268  -7.115  24.935  0.00  0.00    +0.004 A 
ATOM     34  C   UNL     1       3.038  -7.764  25.059  0.00  0.00    +0.000 A 
ATOM     35  C   UNL     1       2.038  -7.536  24.119  0.00  0.00    +0.000 A 
ATOM     36  C   UNL     1       2.270  -6.665  23.057  0.00  0.00    +0.000 A 
ATOM     37  C   UNL     1       3.501  -6.015  22.935  0.00  0.00    +0.004 A 
ENDBRANCH  31  32
ENDBRANCH   5  31
BRANCH   6  38
ATOM     38  C   UNL     1       6.343  -3.175  26.864  0.00  0.00    +0.123 C 
BRANCH  38  39
ATOM     39  C   UNL     1       5.185  -2.690  27.719  0.00  0.00    -0.031 A 
ATOM     40  C   UNL     1       4.381  -3.599  28.419  0.00  0.00    +0.005 A 
ATOM     41  C   UNL     1       3.358  -3.137  29.247  0.00  0.00    +0.002 A 
ATOM     42  C   UNL     1       3.148  -1.762  29.396  0.00  0.00    +0.023 A 
ATOM     43  C   UNL     1       3.977  -0.842  28.753  0.00  0.00    +0.025 A 
ATOM     44  C   UNL     1       4.946  -1.315  27.865  0.00  0.00    +0.027 A 
BRANCH  43  45
ATOM     45  N   UNL     1       3.709   0.532  28.829  0.00  0.00    -0.358 N 
ATOM     46  H   UNL     1       2.770   0.734  29.159  0.00  0.00    +0.142 HD
ATOM     47  H   UNL     1       4.412   1.042  29.356  0.00  0.00    +0.142 HD
ENDBRANCH  43  45
ENDBRANCH  38  39
ENDBRANCH   6  38
TORSDOF 13
ENDMDL
MODEL 8
REMARK VINA RESULT:      -7.1      2.377      6.837
REMARK  Name = 
REMARK  13 active torsions:
REMARK  status: ('A' for Active; 'I' for Inactive)
REMARK    1  A    between atoms: N_1  and  C_2
REMARK    2  A    between atoms: C_4  and  C_5
REMARK    3  A    between atoms: C_5  and  N_6
REMARK    4  A    between atoms: C_7  and  O_8
REMARK    5  A    between atoms: N_9  and  C_10
REMARK    6  A    between atoms: C_10  and  C_11
REMARK    7  A    between atoms: C_13  and  N_14
REMARK    8  A    between atoms: C_18  and  C_20
REMARK    9  A    between atoms: C_20  and  C_21
REMARK   10  A    between atoms: C_27  and  O_29
REMARK   11  A    between atoms: C_30  and  O_32
REMARK   12  A    between atoms: C_33  and  C_35
REMARK   13  A    between atoms: C_35  and  C_36
REMARK                            x       y       z     vdW  Elec       q    Type
REMARK                         _______ _______ _______ _____ _____    ______ ____
ROOT
ATOM      1  N   UNL     1       6.950  -0.841  24.540  0.00  0.00    -0.255 NA
ATOM      2  C   UNL     1       6.739   0.633  24.406  0.00  0.00    +0.096 C 
ATOM      3  C   UNL     1       5.236   0.902  24.756  0.00  0.00    +0.162 C 
ATOM      4  C   UNL     1       5.019   1.221  26.255  0.00  0.00    +0.162 C 
ATOM      5  C   UNL     1       5.797   0.331  27.279  0.00  0.00    +0.096 C 
ATOM      6  N   UNL     1       6.041  -1.053  26.833  0.00  0.00    -0.255 NA
ATOM      7  C   UNL     1       7.125  -1.318  25.923  0.00  0.00    +0.264 C 
ENDROOT
BRANCH   3   8
ATOM      8  O   UNL     1       4.597   1.893  23.938  0.00  0.00    -0.388 OA
ATOM      9  H   UNL     1       5.278   2.395  23.461  0.00  0.00    +0.210 HD
ENDBRANCH   3   8
BRANCH   4  10
ATOM     10  O   UNL     1       3.603   1.141  26.517  0.00  0.00    -0.388 OA
ATOM     11  H   UNL     1       3.315   0.224  26.374  0.00  0.00    +0.210 HD
ENDBRANCH   4  10
BRANCH   7  12
ATOM     12  O   UNL     1       8.359  -0.911  26.469  0.00  0.00    -0.364 OA
ATOM     13  H   UNL     1       8.735  -0.268  25.857  0.00  0.00    +0.213 HD
ENDBRANCH   7  12
BRANCH   1  14
ATOM     14  C   UNL     1       7.961  -1.539  23.733  0.00  0.00    +0.123 C 
BRANCH  14  19
ATOM     15  C   UNL     1       6.984  -4.769  22.020  0.00  0.00    +0.025 A 
ATOM     16  C   UNL     1       7.648  -5.713  22.803  0.00  0.00    +0.023 A 
ATOM     17  C   UNL     1       8.440  -5.317  23.887  0.00  0.00    +0.002 A 
ATOM     18  C   UNL     1       8.554  -3.967  24.220  0.00  0.00    +0.005 A 
ATOM     19  C   UNL     1       7.837  -3.017  23.491  0.00  0.00    -0.031 A 
ATOM     20  C   UNL     1       7.036  -3.437  22.414  0.00  0.00    +0.027 A 
BRANCH  15  21
ATOM     21  N   UNL     1       6.114  -5.155  20.996  0.00  0.00    -0.358 N 
ATOM     22  H   UNL     1       6.479  -4.965  20.069  0.00  0.00    +0.142 HD
ATOM     23  H   UNL     1       5.169  -4.798  21.110  0.00  0.00    +0.142 HD
ENDBRANCH  15  21
ENDBRANCH  14  19
ENDBRANCH   1  14
BRANCH   2  24
ATOM     24  C   UNL     1       7.163   1.359  23.097  0.00  0.00    +0.056 C 
BRANCH  24  25
ATOM     25  C   UNL     1       7.931   2.663  23.289  0.00  0.00    -0.046 A 
ATOM     26  C   UNL     1       9.248   2.626  23.775  0.00  0.00    +0.004 A 
ATOM     27  C   UNL     1       9.967   3.803  23.987  0.00  0.00    +0.000 A 
ATOM     28  C   UNL     1       9.375   5.035  23.726  0.00  0.00    +0.000 A 
ATOM     29  C   UNL     1       8.070   5.090  23.241  0.00  0.00    +0.000 A 
ATOM     30  C   UNL     1       7.349   3.912  23.026  0.00  0.00    +0.004 A 
ENDBRANCH  24  25
ENDBRANCH   2  24
BRANCH   5  31
ATOM     31  C   UNL     1       7.022   1.130  27.854  0.00  0.00    +0.056 C 
BRANCH  31  32
ATOM     32  C   UNL     1       6.964   2.642  27.971  0.00  0.00    -0.046 A 
ATOM     33  C   UNL     1       7.300   3.408  26.839  0.00  0.00    +0.004 A 
ATOM     34  C   UNL     1       7.268   4.803  26.878  0.00  0.00    +0.000 A 
ATOM     35  C   UNL     1       6.897   5.454  28.050  0.00  0.00    +0.000 A 
ATOM     36  C   UNL     1       6.562   4.711  29.179  0.00  0.00    +0.000 A 
ATOM     37  C   UNL     1       6.592   3.314  29.139  0.00  0.00    +0.004 A 
ENDBRANCH  31  32
ENDBRANCH   5  31
BRANCH   6  38
ATOM     38  C   UNL     1       4.822  -1.842  26.571  0.00  0.00    +0.123 C 
BRANCH  38  39
ATOM     39  C   UNL     1       5.106  -3.320  26.373  0.00  0.00    -0.031 A 
ATOM     40  C   UNL     1       4.527  -4.026  25.312  0.00  0.00    +0.005 A 
ATOM     41  C   UNL     1       4.843  -5.370  25.107  0.00  0.00    +0.002 A 
ATOM     42  C   UNL     1       5.758  -6.007  25.951  0.00  0.00    +0.023 A 
ATOM     43  C   UNL     1       6.389  -5.303  26.977  0.00  0.00    +0.025 A 
ATOM     44  C   UNL     1       6.006  -3.983  27.222  0.00  0.00    +0.027 A 
BRANCH  43  45
ATOM     45  N   UNL     1       7.234  -5.966  27.878  0.00  0.00    -0.358 N 
ATOM     46  H   UNL     1       6.877  -5.969  28.829  0.00  0.00    +0.142 HD
ATOM     47  H   UNL     1       7.486  -6.899  27.567  0.00  0.00    +0.142 HD
ENDBRANCH  43  45
ENDBRANCH  38  39
ENDBRANCH   6  38
TORSDOF 13
ENDMDL
MODEL 9
REMARK VINA RESULT:      -6.9      2.381      8.230
REMARK  Name = 
REMARK  13 active torsions:
REMARK  status: ('A' for Active; 'I' for Inactive)
REMARK    1  A    between atoms: N_1  and  C_2
REMARK    2  A    between atoms: C_4  and  C_5
REMARK    3  A    between atoms: C_5  and  N_6
REMARK    4  A    between atoms: C_7  and  O_8
REMARK    5  A    between atoms: N_9  and  C_10
REMARK    6  A    between atoms: C_10  and  C_11
REMARK    7  A    between atoms: C_13  and  N_14
REMARK    8  A    between atoms: C_18  and  C_20
REMARK    9  A    between atoms: C_20  and  C_21
REMARK   10  A    between atoms: C_27  and  O_29
REMARK   11  A    between atoms: C_30  and  O_32
REMARK   12  A    between atoms: C_33  and  C_35
REMARK   13  A    between atoms: C_35  and  C_36
REMARK                            x       y       z     vdW  Elec       q    Type
REMARK                         _______ _______ _______ _____ _____    ______ ____
ROOT
ATOM      1  N   UNL     1       8.181  -1.213  25.017  0.00  0.00    -0.255 NA
ATOM      2  C   UNL     1       8.123  -1.048  23.532  0.00  0.00    +0.096 C 
ATOM      3  C   UNL     1       6.866  -0.163  23.231  0.00  0.00    +0.162 C 
ATOM      4  C   UNL     1       7.197   1.347  23.173  0.00  0.00    +0.162 C 
ATOM      5  C   UNL     1       8.152   1.896  24.284  0.00  0.00    +0.096 C 
ATOM      6  N   UNL     1       8.061   1.195  25.577  0.00  0.00    -0.255 NA
ATOM      7  C   UNL     1       8.742  -0.062  25.745  0.00  0.00    +0.264 C 
ENDROOT
BRANCH   3   8
ATOM      8  O   UNL     1       6.121  -0.554  22.068  0.00  0.00    -0.388 OA
ATOM      9  H   UNL     1       5.682  -1.403  22.245  0.00  0.00    +0.210 HD
ENDBRANCH   3   8
BRANCH   4  10
ATOM     10  O   UNL     1       5.949   2.069  23.204  0.00  0.00    -0.388 OA
ATOM     11  H   UNL     1       5.417   1.798  22.437  0.00  0.00    +0.210 HD
ENDBRANCH   4  10
BRANCH   7  12
ATOM     12  O   UNL     1      10.127   0.076  25.528  0.00  0.00    -0.364 OA
ATOM     13  H   UNL     1      10.289   1.009  25.350  0.00  0.00    +0.213 HD
ENDBRANCH   7  12
BRANCH   1  14
ATOM     14  C   UNL     1       8.773  -2.414  25.624  0.00  0.00    +0.123 C 
BRANCH  14  19
ATOM     15  C   UNL     1       5.706  -3.796  27.355  0.00  0.00    +0.025 A 
ATOM     16  C   UNL     1       6.103  -5.104  27.628  0.00  0.00    +0.023 A 
ATOM     17  C   UNL     1       7.366  -5.566  27.237  0.00  0.00    +0.002 A 
ATOM     18  C   UNL     1       8.260  -4.712  26.591  0.00  0.00    +0.005 A 
ATOM     19  C   UNL     1       7.903  -3.380  26.377  0.00  0.00    -0.031 A 
ATOM     20  C   UNL     1       6.636  -2.931  26.790  0.00  0.00    +0.027 A 
BRANCH  15  21
ATOM     21  N   UNL     1       4.488  -3.292  27.824  0.00  0.00    -0.358 N 
ATOM     22  H   UNL     1       4.222  -3.668  28.728  0.00  0.00    +0.142 HD
ATOM     23  H   UNL     1       3.733  -3.362  27.148  0.00  0.00    +0.142 HD
ENDBRANCH  15  21
ENDBRANCH  14  19
ENDBRANCH   1  14
BRANCH   2  24
ATOM     24  C   UNL     1       8.178  -2.301  22.611  0.00  0.00    +0.056 C 
BRANCH  24  25
ATOM     25  C   UNL     1       7.220  -3.429  22.980  0.00  0.00    -0.046 A 
ATOM     26  C   UNL     1       7.674  -4.757  22.962  0.00  0.00    +0.004 A 
ATOM     27  C   UNL     1       6.815  -5.813  23.267  0.00  0.00    +0.000 A 
ATOM     28  C   UNL     1       5.485  -5.557  23.586  0.00  0.00    +0.000 A 
ATOM     29  C   UNL     1       5.017  -4.244  23.611  0.00  0.00    +0.000 A 
ATOM     30  C   UNL     1       5.878  -3.185  23.308  0.00  0.00    +0.004 A 
ENDBRANCH  24  25
ENDBRANCH   2  24
BRANCH   5  31
ATOM     31  C   UNL     1       9.588   2.121  23.685  0.00  0.00    +0.056 C 
BRANCH  31  32
ATOM     32  C   UNL     1      10.217   3.502  23.700  0.00  0.00    -0.046 A 
ATOM     33  C   UNL     1      11.571   3.619  23.335  0.00  0.00    +0.004 A 
ATOM     34  C   UNL     1      12.211   4.859  23.329  0.00  0.00    +0.000 A 
ATOM     35  C   UNL     1      11.505   6.004  23.684  0.00  0.00    +0.000 A 
ATOM     36  C   UNL     1      10.164   5.906  24.048  0.00  0.00    +0.000 A 
ATOM     37  C   UNL     1       9.524   4.664  24.053  0.00  0.00    +0.004 A 
ENDBRANCH  31  32
ENDBRANCH   5  31
BRANCH   6  38
ATOM     38  C   UNL     1       6.736   1.259  26.223  0.00  0.00    +0.123 C 
BRANCH  38  39
ATOM     39  C   UNL     1       6.771   1.942  27.579  0.00  0.00    -0.031 A 
ATOM     40  C   UNL     1       6.970   1.200  28.750  0.00  0.00    +0.005 A 
ATOM     41  C   UNL     1       7.060   1.847  29.983  0.00  0.00    +0.002 A 
ATOM     42  C   UNL     1       6.973   3.241  30.047  0.00  0.00    +0.023 A 
ATOM     43  C   UNL     1       6.835   4.000  28.884  0.00  0.00    +0.025 A 
ATOM     44  C   UNL     1       6.667   3.339  27.665  0.00  0.00    +0.027 A 
BRANCH  43  45
ATOM     45  N   UNL     1       6.656   5.388  28.958  0.00  0.00    -0.358 N 
ATOM     46  H   UNL     1       7.503   5.884  29.218  0.00  0.00    +0.142 HD
ATOM     47  H   UNL     1       6.233   5.776  28.120  0.00  0.00    +0.142 HD
ENDBRANCH  43  45
ENDBRANCH  38  39
ENDBRANCH   6  38
TORSDOF 13
ENDMDL
