MODEL 1
REMARK VINA RESULT:      -0.6      0.000      0.000
REMARK  Name = 
REMARK  93 active torsions:
REMARK  status: ('A' for Active; 'I' for Inactive)
REMARK    1  A    between atoms: C_1  and  C_2
REMARK    2  A    between atoms: C_2  and  C_3
REMARK    3  A    between atoms: C_3  and  C_4
REMARK    4  A    between atoms: C_4  and  C_5
REMARK    5  A    between atoms: C_5  and  C_6
REMARK    6  A    between atoms: C_6  and  C_7
REMARK    7  A    between atoms: C_7  and  C_8
REMARK    8  A    between atoms: C_8  and  C_9
REMARK    9  A    between atoms: C_9  and  C_10
REMARK   10  A    between atoms: C_10  and  C_11
REMARK   11  A    between atoms: C_11  and  C_12
REMARK   12  A    between atoms: C_12  and  C_13
REMARK   13  A    between atoms: C_13  and  C_14
REMARK   14  A    between atoms: C_14  and  C_15
REMARK   15  A    between atoms: C_15  and  C_16
REMARK   16  A    between atoms: C_16  and  C_17
REMARK   17  A    between atoms: C_17  and  C_18
REMARK   18  A    between atoms: C_18  and  O_20
REMARK   19  A    between atoms: O_20  and  C_21
REMARK   20  A    between atoms: C_21  and  C_22
REMARK   21  A    between atoms: C_22  and  C_24
REMARK   22  A    between atoms: C_22  and  O_83
REMARK   23  A    between atoms: C_24  and  O_25
REMARK   24  A    between atoms: O_25  and  P_26
REMARK   25  A    between atoms: P_26  and  O_27
REMARK   26  A    between atoms: P_26  and  O_29
REMARK   27  A    between atoms: O_29  and  C_30
REMARK   28  A    between atoms: C_30  and  C_31
REMARK   29  A    between atoms: C_31  and  O_32
REMARK   30  A    between atoms: C_31  and  C_33
REMARK   31  A    between atoms: C_33  and  O_34
REMARK   32  A    between atoms: O_34  and  P_35
REMARK   33  A    between atoms: P_35  and  O_36
REMARK   34  A    between atoms: P_35  and  O_38
REMARK   35  A    between atoms: O_38  and  C_39
REMARK   36  A    between atoms: C_39  and  C_40
REMARK   37  A    between atoms: C_40  and  C_42
REMARK   38  A    between atoms: C_40  and  O_63
REMARK   39  A    between atoms: C_42  and  O_43
REMARK   40  A    between atoms: O_43  and  C_44
REMARK   41  A    between atoms: C_44  and  C_46
REMARK   42  A    between atoms: C_46  and  C_47
REMARK   43  A    between atoms: C_47  and  C_48
REMARK   44  A    between atoms: C_48  and  C_49
REMARK   45  A    between atoms: C_49  and  C_50
REMARK   46  A    between atoms: C_50  and  C_51
REMARK   47  A    between atoms: C_51  and  C_52
REMARK   48  A    between atoms: C_52  and  C_53
REMARK   49  A    between atoms: C_53  and  C_54
REMARK   50  A    between atoms: C_54  and  C_55
REMARK   51  A    between atoms: C_55  and  C_56
REMARK   52  A    between atoms: C_56  and  C_57
REMARK   53  A    between atoms: C_57  and  C_58
REMARK   54  A    between atoms: C_58  and  C_59
REMARK   55  A    between atoms: C_59  and  C_60
REMARK   56  A    between atoms: C_60  and  C_61
REMARK   57  A    between atoms: C_61  and  C_62
REMARK   58  A    between atoms: O_63  and  C_64
REMARK   59  A    between atoms: C_64  and  C_66
REMARK   60  A    between atoms: C_66  and  C_67
REMARK   61  A    between atoms: C_67  and  C_68
REMARK   62  A    between atoms: C_68  and  C_69
REMARK   63  A    between atoms: C_69  and  C_70
REMARK   64  A    between atoms: C_70  and  C_71
REMARK   65  A    between atoms: C_71  and  C_72
REMARK   66  A    between atoms: C_72  and  C_73
REMARK   67  A    between atoms: C_73  and  C_74
REMARK   68  A    between atoms: C_74  and  C_75
REMARK   69  A    between atoms: C_75  and  C_76
REMARK   70  A    between atoms: C_76  and  C_77
REMARK   71  A    between atoms: C_77  and  C_78
REMARK   72  A    between atoms: C_78  and  C_79
REMARK   73  A    between atoms: C_79  and  C_80
REMARK   74  A    between atoms: C_80  and  C_81
REMARK   75  A    between atoms: C_81  and  C_82
REMARK   76  A    between atoms: O_83  and  C_84
REMARK   77  A    between atoms: C_84  and  C_86
REMARK   78  A    between atoms: C_86  and  C_87
REMARK   79  A    between atoms: C_87  and  C_88
REMARK   80  A    between atoms: C_88  and  C_89
REMARK   81  A    between atoms: C_89  and  C_90
REMARK   82  A    between atoms: C_90  and  C_91
REMARK   83  A    between atoms: C_91  and  C_92
REMARK   84  A    between atoms: C_92  and  C_93
REMARK   85  A    between atoms: C_93  and  C_94
REMARK   86  A    between atoms: C_94  and  C_95
REMARK   87  A    between atoms: C_95  and  C_96
REMARK   88  A    between atoms: C_96  and  C_97
REMARK   89  A    between atoms: C_97  and  C_98
REMARK   90  A    between atoms: C_98  and  C_99
REMARK   91  A    between atoms: C_99  and  C_100
REMARK   92  A    between atoms: C_100  and  C_101
REMARK   93  A    between atoms: C_101  and  C_102
REMARK                            x       y       z     vdW  Elec       q    Type
REMARK                         _______ _______ _______ _____ _____    ______ ____
ROOT
ATOM      1  C   UNL     1       7.715  -0.031  21.687  0.00  0.00    +0.167 C 
ENDROOT
BRANCH   1   2
ATOM      2  O   UNL     1       6.774  -0.029  22.764  0.00  0.00    -0.387 OA
ATOM      3  H   UNL     1       6.368  -0.905  22.850  0.00  0.00    +0.210 HD
ENDBRANCH   1   2
BRANCH   1   4
ATOM      4  C   UNL     1       8.699   1.153  21.813  0.00  0.00    +0.206 C 
BRANCH   4   5
ATOM      5  O   UNL     1       8.160   2.444  21.979  0.00  0.00    -0.284 OA
BRANCH   5   6
ATOM      6  P   UNL     1       6.833   2.795  22.865  0.00  0.00    +0.475 P 
ATOM      7  O   UNL     1       6.033   1.510  23.060  0.00  0.00    -0.227 OA
BRANCH   6   8
ATOM      8  O   UNL     1       7.751   2.339  24.259  0.00  0.00    -0.302 OA
ATOM      9  H   UNL     1       7.051   2.146  24.919  0.00  0.00    +0.222 HD
ENDBRANCH   6   8
BRANCH   6  10
ATOM     10  O   UNL     1       5.916   3.252  21.471  0.00  0.00    -0.283 OA
BRANCH  10  11
ATOM     11  C   UNL     1       4.513   3.178  21.319  0.00  0.00    +0.220 C 
BRANCH  11  12
ATOM     12  C   UNL     1       3.664   2.847  22.554  0.00  0.00    +0.240 C 
BRANCH  12  13
ATOM     13  O   UNL     1       2.290   3.100  22.177  0.00  0.00    -0.456 OA
BRANCH  13  14
ATOM     14  C   UNL     1       1.935   2.908  20.885  0.00  0.00    +0.308 C 
ATOM     15  O   UNL     1       1.829   1.831  20.324  0.00  0.00    -0.251 OA
BRANCH  14  16
ATOM     16  C   UNL     1       1.677   4.230  20.220  0.00  0.00    +0.120 C 
BRANCH  16  17
ATOM     17  C   UNL     1       1.514   5.326  21.267  0.00  0.00    +0.011 C 
BRANCH  17  18
ATOM     18  C   UNL     1       2.775   6.170  21.397  0.00  0.00    +0.001 C 
BRANCH  18  19
ATOM     19  C   UNL     1       2.755   6.969  22.703  0.00  0.00    +0.000 C 
BRANCH  19  20
ATOM     20  C   UNL     1       4.136   7.108  23.340  0.00  0.00    +0.000 C 
BRANCH  20  21
ATOM     21  C   UNL     1       4.076   7.034  24.861  0.00  0.00    +0.000 C 
BRANCH  21  22
ATOM     22  C   UNL     1       5.468   6.965  25.469  0.00  0.00    -0.000 C 
BRANCH  22  23
ATOM     23  C   UNL     1       5.714   5.566  26.019  0.00  0.00    -0.000 C 
BRANCH  23  24
ATOM     24  C   UNL     1       7.093   5.470  26.651  0.00  0.00    -0.000 C 
BRANCH  24  25
ATOM     25  C   UNL     1       7.678   6.861  26.843  0.00  0.00    -0.000 C 
BRANCH  25  26
ATOM     26  C   UNL     1       8.797   7.108  25.844  0.00  0.00    -0.000 C 
BRANCH  26  27
ATOM     27  C   UNL     1       9.431   5.790  25.421  0.00  0.00    -0.000 C 
BRANCH  27  28
ATOM     28  C   UNL     1      10.384   6.009  24.253  0.00  0.00    -0.000 C 
BRANCH  28  29
ATOM     29  C   UNL     1      10.358   4.816  23.306  0.00  0.00    -0.000 C 
BRANCH  29  30
ATOM     30  C   UNL     1      11.775   4.357  22.982  0.00  0.00    -0.000 C 
BRANCH  30  31
ATOM     31  C   UNL     1      12.634   5.526  22.507  0.00  0.00    -0.003 C 
ATOM     32  C   UNL     1      14.085   5.334  22.911  0.00  0.00    +0.004 C 
ENDBRANCH  30  31
ENDBRANCH  29  30
ENDBRANCH  28  29
ENDBRANCH  27  28
ENDBRANCH  26  27
ENDBRANCH  25  26
ENDBRANCH  24  25
ENDBRANCH  23  24
ENDBRANCH  22  23
ENDBRANCH  21  22
ENDBRANCH  20  21
ENDBRANCH  19  20
ENDBRANCH  18  19
ENDBRANCH  17  18
ENDBRANCH  16  17
ENDBRANCH  14  16
ENDBRANCH  13  14
ENDBRANCH  12  13
BRANCH  12  33
ATOM     33  C   UNL     1       3.942   3.755  23.755  0.00  0.00    +0.279 C 
BRANCH  33  34
ATOM     34  O   UNL     1       2.811   3.862  24.619  0.00  0.00    -0.461 OA
BRANCH  34  35
ATOM     35  C   UNL     1       2.872   3.080  25.728  0.00  0.00    +0.307 C 
ATOM     36  O   UNL     1       3.832   2.416  26.081  0.00  0.00    -0.251 OA
BRANCH  35  37
ATOM     37  C   UNL     1       1.570   3.141  26.456  0.00  0.00    +0.120 C 
BRANCH  37  38
ATOM     38  C   UNL     1       1.466   1.913  27.331  0.00  0.00    +0.011 C 
BRANCH  38  39
ATOM     39  C   UNL     1       0.958   2.289  28.710  0.00  0.00    +0.001 C 
BRANCH  39  40
ATOM     40  C   UNL     1       1.967   1.850  29.757  0.00  0.00    +0.000 C 
BRANCH  40  41
ATOM     41  C   UNL     1       3.308   1.560  29.109  0.00  0.00    +0.000 C 
BRANCH  41  42
ATOM     42  C   UNL     1       4.181   0.769  30.069  0.00  0.00    +0.000 C 
BRANCH  42  43
ATOM     43  C   UNL     1       5.413   1.575  30.442  0.00  0.00    -0.000 C 
BRANCH  43  44
ATOM     44  C   UNL     1       5.449   2.872  29.650  0.00  0.00    -0.000 C 
BRANCH  44  45
ATOM     45  C   UNL     1       6.077   3.976  30.484  0.00  0.00    -0.000 C 
BRANCH  45  46
ATOM     46  C   UNL     1       6.689   5.037  29.583  0.00  0.00    -0.000 C 
BRANCH  46  47
ATOM     47  C   UNL     1       6.240   6.423  30.017  0.00  0.00    -0.000 C 
BRANCH  47  48
ATOM     48  C   UNL     1       4.791   6.390  30.484  0.00  0.00    -0.000 C 
BRANCH  48  49
ATOM     49  C   UNL     1       3.867   6.922  29.396  0.00  0.00    -0.000 C 
BRANCH  49  50
ATOM     50  C   UNL     1       3.305   5.780  28.558  0.00  0.00    -0.000 C 
BRANCH  50  51
ATOM     51  C   UNL     1       1.792   5.908  28.418  0.00  0.00    -0.000 C 
BRANCH  51  52
ATOM     52  C   UNL     1       1.424   7.042  27.467  0.00  0.00    -0.003 C 
ATOM     53  C   UNL     1       0.943   6.501  26.132  0.00  0.00    +0.004 C 
ENDBRANCH  51  52
ENDBRANCH  50  51
ENDBRANCH  49  50
ENDBRANCH  48  49
ENDBRANCH  47  48
ENDBRANCH  46  47
ENDBRANCH  45  46
ENDBRANCH  44  45
ENDBRANCH  43  44
ENDBRANCH  42  43
ENDBRANCH  41  42
ENDBRANCH  40  41
ENDBRANCH  39  40
ENDBRANCH  38  39
ENDBRANCH  37  38
ENDBRANCH  35  37
ENDBRANCH  34  35
ENDBRANCH  33  34
ENDBRANCH  12  33
ENDBRANCH  11  12
ENDBRANCH  10  11
ENDBRANCH   6  10
ENDBRANCH   5   6
ENDBRANCH   4   5
ENDBRANCH   1   4
BRANCH   1  54
ATOM     54  C   UNL     1       8.598  -1.307  21.689  0.00  0.00    +0.206 C 
BRANCH  54  55
ATOM     55  O   UNL     1       7.913  -2.479  22.092  0.00  0.00    -0.284 OA
BRANCH  55  56
ATOM     56  P   UNL     1       6.280  -2.355  22.650  0.00  0.00    +0.475 P 
ATOM     57  O   UNL     1       5.836  -3.350  21.582  0.00  0.00    -0.227 OA
BRANCH  56  58
ATOM     58  O   UNL     1       6.740  -3.226  23.966  0.00  0.00    -0.302 OA
ATOM     59  H   UNL     1       6.188  -3.074  24.749  0.00  0.00    +0.222 HD
ENDBRANCH  56  58
BRANCH  56  60
ATOM     60  O   UNL     1       4.648  -2.230  23.207  0.00  0.00    -0.283 OA
BRANCH  60  61
ATOM     61  C   UNL     1       4.451  -2.425  24.613  0.00  0.00    +0.220 C 
BRANCH  61  62
ATOM     62  C   UNL     1       5.026  -1.332  25.500  0.00  0.00    +0.240 C 
BRANCH  62  63
ATOM     63  O   UNL     1       5.977  -1.935  26.389  0.00  0.00    -0.456 OA
BRANCH  63  64
ATOM     64  C   UNL     1       6.268  -1.206  27.499  0.00  0.00    +0.308 C 
ATOM     65  O   UNL     1       6.294  -1.623  28.646  0.00  0.00    -0.251 OA
BRANCH  64  66
ATOM     66  C   UNL     1       6.640   0.193  27.120  0.00  0.00    +0.120 C 
BRANCH  66  67
ATOM     67  C   UNL     1       7.755   0.129  26.094  0.00  0.00    +0.011 C 
BRANCH  67  68
ATOM     68  C   UNL     1       8.644  -1.080  26.332  0.00  0.00    +0.001 C 
BRANCH  68  69
ATOM     69  C   UNL     1       9.277  -1.513  25.020  0.00  0.00    +0.000 C 
BRANCH  69  70
ATOM     70  C   UNL     1       9.739  -2.957  25.105  0.00  0.00    +0.000 C 
BRANCH  70  71
ATOM     71  C   UNL     1       9.066  -3.651  26.279  0.00  0.00    +0.000 C 
BRANCH  71  72
ATOM     72  C   UNL     1       9.420  -5.128  26.283  0.00  0.00    -0.000 C 
BRANCH  72  73
ATOM     73  C   UNL     1       8.432  -5.904  27.137  0.00  0.00    -0.000 C 
BRANCH  73  74
ATOM     74  C   UNL     1       7.033  -5.337  26.958  0.00  0.00    -0.000 C 
BRANCH  74  75
ATOM     75  C   UNL     1       6.502  -5.669  25.573  0.00  0.00    -0.000 C 
BRANCH  75  76
ATOM     76  C   UNL     1       5.310  -6.607  25.680  0.00  0.00    -0.000 C 
BRANCH  76  77
ATOM     77  C   UNL     1       4.110  -5.873  26.259  0.00  0.00    -0.000 C 
BRANCH  77  78
ATOM     78  C   UNL     1       2.878  -6.098  25.391  0.00  0.00    -0.000 C 
BRANCH  78  79
ATOM     79  C   UNL     1       3.126  -7.217  24.386  0.00  0.00    -0.000 C 
BRANCH  79  80
ATOM     80  C   UNL     1       2.617  -6.821  23.004  0.00  0.00    -0.000 C 
BRANCH  80  81
ATOM     81  C   UNL     1       1.412  -7.664  22.603  0.00  0.00    -0.003 C 
ATOM     82  C   UNL     1       1.311  -7.789  21.093  0.00  0.00    +0.004 C 
ENDBRANCH  80  81
ENDBRANCH  79  80
ENDBRANCH  78  79
ENDBRANCH  77  78
ENDBRANCH  76  77
ENDBRANCH  75  76
ENDBRANCH  74  75
ENDBRANCH  73  74
ENDBRANCH  72  73
ENDBRANCH  71  72
ENDBRANCH  70  71
ENDBRANCH  69  70
ENDBRANCH  68  69
ENDBRANCH  67  68
ENDBRANCH  66  67
ENDBRANCH  64  66
ENDBRANCH  63  64
ENDBRANCH  62  63
BRANCH  62  83
ATOM     83  C   UNL     1       3.891  -0.736  26.356  0.00  0.00    +0.279 C 
BRANCH  83  84
ATOM     84  O   UNL     1       2.606  -1.177  25.895  0.00  0.00    -0.461 OA
BRANCH  84  85
ATOM     85  C   UNL     1       2.351  -2.492  26.138  0.00  0.00    +0.307 C 
ATOM     86  O   UNL     1       2.059  -3.311  25.279  0.00  0.00    -0.251 OA
BRANCH  85  87
ATOM     87  C   UNL     1       2.495  -2.794  27.606  0.00  0.00    +0.120 C 
BRANCH  87  88
ATOM     88  C   UNL     1       1.142  -3.192  28.178  0.00  0.00    +0.011 C 
BRANCH  88  89
ATOM     89  C   UNL     1       1.160  -3.243  29.701  0.00  0.00    +0.001 C 
BRANCH  89  90
ATOM     90  C   UNL     1       2.535  -2.827  30.210  0.00  0.00    +0.000 C 
BRANCH  90  91
ATOM     91  C   UNL     1       3.646  -3.513  29.429  0.00  0.00    +0.000 C 
BRANCH  91  92
ATOM     92  C   UNL     1       4.442  -4.425  30.352  0.00  0.00    +0.000 C 
BRANCH  92  93
ATOM     93  C   UNL     1       4.485  -5.842  29.802  0.00  0.00    -0.000 C 
BRANCH  93  94
ATOM     94  C   UNL     1       3.087  -6.303  29.415  0.00  0.00    -0.000 C 
BRANCH  94  95
ATOM     95  C   UNL     1       2.519  -7.225  30.482  0.00  0.00    -0.000 C 
BRANCH  95  96
ATOM     96  C   UNL     1       2.618  -8.678  30.038  0.00  0.00    -0.000 C 
BRANCH  96  97
ATOM     97  C   UNL     1       1.353  -9.436  30.413  0.00  0.00    -0.000 C 
BRANCH  97  98
ATOM     98  C   UNL     1       1.251 -10.732  29.620  0.00  0.00    -0.000 C 
BRANCH  98  99
ATOM     99  C   UNL     1       0.447 -10.516  28.344  0.00  0.00    -0.000 C 
BRANCH  99 100
ATOM    100  C   UNL     1       1.270 -10.889  27.116  0.00  0.00    -0.000 C 
BRANCH 100 101
ATOM    101  C   UNL     1       1.756  -9.637  26.393  0.00  0.00    -0.000 C 
BRANCH 101 103
ATOM    102  C   UNL     1       0.499  -7.566  27.049  0.00  0.00    +0.004 C 
ATOM    103  C   UNL     1       0.591  -8.712  26.055  0.00  0.00    -0.003 C 
ENDBRANCH 101 103
ENDBRANCH 100 101
ENDBRANCH  99 100
ENDBRANCH  98  99
ENDBRANCH  97  98
ENDBRANCH  96  97
ENDBRANCH  95  96
ENDBRANCH  94  95
ENDBRANCH  93  94
ENDBRANCH  92  93
ENDBRANCH  91  92
ENDBRANCH  90  91
ENDBRANCH  89  90
ENDBRANCH  88  89
ENDBRANCH  87  88
ENDBRANCH  85  87
ENDBRANCH  84  85
ENDBRANCH  83  84
ENDBRANCH  62  83
ENDBRANCH  61  62
ENDBRANCH  60  61
ENDBRANCH  56  60
ENDBRANCH  55  56
ENDBRANCH  54  55
ENDBRANCH   1  54
TORSDOF 89
ENDMDL
MODEL 2
REMARK VINA RESULT:       0.6      2.323     11.128
REMARK  Name = 
REMARK  93 active torsions:
REMARK  status: ('A' for Active; 'I' for Inactive)
REMARK    1  A    between atoms: C_1  and  C_2
REMARK    2  A    between atoms: C_2  and  C_3
REMARK    3  A    between atoms: C_3  and  C_4
REMARK    4  A    between atoms: C_4  and  C_5
REMARK    5  A    between atoms: C_5  and  C_6
REMARK    6  A    between atoms: C_6  and  C_7
REMARK    7  A    between atoms: C_7  and  C_8
REMARK    8  A    between atoms: C_8  and  C_9
REMARK    9  A    between atoms: C_9  and  C_10
REMARK   10  A    between atoms: C_10  and  C_11
REMARK   11  A    between atoms: C_11  and  C_12
REMARK   12  A    between atoms: C_12  and  C_13
REMARK   13  A    between atoms: C_13  and  C_14
REMARK   14  A    between atoms: C_14  and  C_15
REMARK   15  A    between atoms: C_15  and  C_16
REMARK   16  A    between atoms: C_16  and  C_17
REMARK   17  A    between atoms: C_17  and  C_18
REMARK   18  A    between atoms: C_18  and  O_20
REMARK   19  A    between atoms: O_20  and  C_21
REMARK   20  A    between atoms: C_21  and  C_22
REMARK   21  A    between atoms: C_22  and  C_24
REMARK   22  A    between atoms: C_22  and  O_83
REMARK   23  A    between atoms: C_24  and  O_25
REMARK   24  A    between atoms: O_25  and  P_26
REMARK   25  A    between atoms: P_26  and  O_27
REMARK   26  A    between atoms: P_26  and  O_29
REMARK   27  A    between atoms: O_29  and  C_30
REMARK   28  A    between atoms: C_30  and  C_31
REMARK   29  A    between atoms: C_31  and  O_32
REMARK   30  A    between atoms: C_31  and  C_33
REMARK   31  A    between atoms: C_33  and  O_34
REMARK   32  A    between atoms: O_34  and  P_35
REMARK   33  A    between atoms: P_35  and  O_36
REMARK   34  A    between atoms: P_35  and  O_38
REMARK   35  A    between atoms: O_38  and  C_39
REMARK   36  A    between atoms: C_39  and  C_40
REMARK   37  A    between atoms: C_40  and  C_42
REMARK   38  A    between atoms: C_40  and  O_63
REMARK   39  A    between atoms: C_42  and  O_43
REMARK   40  A    between atoms: O_43  and  C_44
REMARK   41  A    between atoms: C_44  and  C_46
REMARK   42  A    between atoms: C_46  and  C_47
REMARK   43  A    between atoms: C_47  and  C_48
REMARK   44  A    between atoms: C_48  and  C_49
REMARK   45  A    between atoms: C_49  and  C_50
REMARK   46  A    between atoms: C_50  and  C_51
REMARK   47  A    between atoms: C_51  and  C_52
REMARK   48  A    between atoms: C_52  and  C_53
REMARK   49  A    between atoms: C_53  and  C_54
REMARK   50  A    between atoms: C_54  and  C_55
REMARK   51  A    between atoms: C_55  and  C_56
REMARK   52  A    between atoms: C_56  and  C_57
REMARK   53  A    between atoms: C_57  and  C_58
REMARK   54  A    between atoms: C_58  and  C_59
REMARK   55  A    between atoms: C_59  and  C_60
REMARK   56  A    between atoms: C_60  and  C_61
REMARK   57  A    between atoms: C_61  and  C_62
REMARK   58  A    between atoms: O_63  and  C_64
REMARK   59  A    between atoms: C_64  and  C_66
REMARK   60  A    between atoms: C_66  and  C_67
REMARK   61  A    between atoms: C_67  and  C_68
REMARK   62  A    between atoms: C_68  and  C_69
REMARK   63  A    between atoms: C_69  and  C_70
REMARK   64  A    between atoms: C_70  and  C_71
REMARK   65  A    between atoms: C_71  and  C_72
REMARK   66  A    between atoms: C_72  and  C_73
REMARK   67  A    between atoms: C_73  and  C_74
REMARK   68  A    between atoms: C_74  and  C_75
REMARK   69  A    between atoms: C_75  and  C_76
REMARK   70  A    between atoms: C_76  and  C_77
REMARK   71  A    between atoms: C_77  and  C_78
REMARK   72  A    between atoms: C_78  and  C_79
REMARK   73  A    between atoms: C_79  and  C_80
REMARK   74  A    between atoms: C_80  and  C_81
REMARK   75  A    between atoms: C_81  and  C_82
REMARK   76  A    between atoms: O_83  and  C_84
REMARK   77  A    between atoms: C_84  and  C_86
REMARK   78  A    between atoms: C_86  and  C_87
REMARK   79  A    between atoms: C_87  and  C_88
REMARK   80  A    between atoms: C_88  and  C_89
REMARK   81  A    between atoms: C_89  and  C_90
REMARK   82  A    between atoms: C_90  and  C_91
REMARK   83  A    between atoms: C_91  and  C_92
REMARK   84  A    between atoms: C_92  and  C_93
REMARK   85  A    between atoms: C_93  and  C_94
REMARK   86  A    between atoms: C_94  and  C_95
REMARK   87  A    between atoms: C_95  and  C_96
REMARK   88  A    between atoms: C_96  and  C_97
REMARK   89  A    between atoms: C_97  and  C_98
REMARK   90  A    between atoms: C_98  and  C_99
REMARK   91  A    between atoms: C_99  and  C_100
REMARK   92  A    between atoms: C_100  and  C_101
REMARK   93  A    between atoms: C_101  and  C_102
REMARK                            x       y       z     vdW  Elec       q    Type
REMARK                         _______ _______ _______ _____ _____    ______ ____
ROOT
ATOM      1  C   UNL     1       9.585  -4.029  26.389  0.00  0.00    +0.167 C 
ENDROOT
BRANCH   1   2
ATOM      2  O   UNL     1       8.924  -3.809  27.638  0.00  0.00    -0.387 OA
ATOM      3  H   UNL     1       9.238  -2.984  28.038  0.00  0.00    +0.210 HD
ENDBRANCH   1   2
BRANCH   1   4
ATOM      4  C   UNL     1       8.824  -5.070  25.539  0.00  0.00    +0.206 C 
BRANCH   4   5
ATOM      5  O   UNL     1       7.438  -5.207  25.749  0.00  0.00    -0.284 OA
BRANCH   5   6
ATOM      6  P   UNL     1       6.701  -6.575  26.256  0.00  0.00    +0.475 P 
ATOM      7  O   UNL     1       5.199  -6.313  26.323  0.00  0.00    -0.227 OA
BRANCH   6   8
ATOM      8  O   UNL     1       6.475  -6.969  24.587  0.00  0.00    -0.302 OA
ATOM      9  H   UNL     1       6.397  -6.084  24.169  0.00  0.00    +0.222 HD
ENDBRANCH   6   8
BRANCH   6  10
ATOM     10  O   UNL     1       6.927  -6.181  27.925  0.00  0.00    -0.283 OA
BRANCH  10  11
ATOM     11  C   UNL     1       6.445  -5.035  28.598  0.00  0.00    +0.220 C 
BRANCH  11  12
ATOM     12  C   UNL     1       5.252  -5.198  29.549  0.00  0.00    +0.240 C 
BRANCH  12  13
ATOM     13  O   UNL     1       4.842  -6.582  29.447  0.00  0.00    -0.456 OA
BRANCH  13  14
ATOM     14  C   UNL     1       3.536  -6.847  29.215  0.00  0.00    +0.308 C 
ATOM     15  O   UNL     1       2.930  -6.613  28.183  0.00  0.00    -0.251 OA
BRANCH  14  16
ATOM     16  C   UNL     1       2.918  -7.490  30.423  0.00  0.00    +0.120 C 
BRANCH  16  17
ATOM     17  C   UNL     1       1.557  -8.080  30.071  0.00  0.00    +0.011 C 
BRANCH  17  18
ATOM     18  C   UNL     1       1.693  -9.324  29.203  0.00  0.00    +0.001 C 
BRANCH  18  19
ATOM     19  C   UNL     1       0.483  -9.466  28.276  0.00  0.00    +0.000 C 
BRANCH  19  20
ATOM     20  C   UNL     1       0.841 -10.050  26.911  0.00  0.00    +0.000 C 
BRANCH  20  21
ATOM     21  C   UNL     1       0.484  -9.104  25.771  0.00  0.00    +0.000 C 
BRANCH  21  22
ATOM     22  C   UNL     1       1.055  -9.589  24.447  0.00  0.00    -0.000 C 
BRANCH  22  23
ATOM     23  C   UNL     1       1.696  -8.421  23.711  0.00  0.00    -0.000 C 
BRANCH  23  24
ATOM     24  C   UNL     1       1.007  -7.114  24.070  0.00  0.00    -0.000 C 
BRANCH  24  25
ATOM     25  C   UNL     1       1.955  -5.945  23.849  0.00  0.00    -0.000 C 
BRANCH  25  26
ATOM     26  C   UNL     1       2.754  -6.146  22.570  0.00  0.00    -0.000 C 
BRANCH  26  27
ATOM     27  C   UNL     1       4.190  -6.529  22.896  0.00  0.00    -0.000 C 
BRANCH  27  28
ATOM     28  C   UNL     1       5.068  -6.408  21.657  0.00  0.00    -0.000 C 
BRANCH  28  29
ATOM     29  C   UNL     1       6.506  -6.088  22.045  0.00  0.00    -0.000 C 
BRANCH  29  30
ATOM     30  C   UNL     1       6.793  -4.602  21.866  0.00  0.00    -0.000 C 
BRANCH  30  31
ATOM     31  C   UNL     1       6.007  -4.030  20.690  0.00  0.00    -0.003 C 
ATOM     32  C   UNL     1       5.428  -2.669  21.032  0.00  0.00    +0.004 C 
ENDBRANCH  30  31
ENDBRANCH  29  30
ENDBRANCH  28  29
ENDBRANCH  27  28
ENDBRANCH  26  27
ENDBRANCH  25  26
ENDBRANCH  24  25
ENDBRANCH  23  24
ENDBRANCH  22  23
ENDBRANCH  21  22
ENDBRANCH  20  21
ENDBRANCH  19  20
ENDBRANCH  18  19
ENDBRANCH  17  18
ENDBRANCH  16  17
ENDBRANCH  14  16
ENDBRANCH  13  14
ENDBRANCH  12  13
BRANCH  12  33
ATOM     33  C   UNL     1       4.027  -4.370  29.151  0.00  0.00    +0.279 C 
BRANCH  33  34
ATOM     34  O   UNL     1       3.341  -3.846  30.287  0.00  0.00    -0.461 OA
BRANCH  34  35
ATOM     35  C   UNL     1       2.045  -3.511  30.059  0.00  0.00    +0.307 C 
ATOM     36  O   UNL     1       1.121  -4.293  29.914  0.00  0.00    -0.251 OA
BRANCH  35  37
ATOM     37  C   UNL     1       1.915  -2.026  29.998  0.00  0.00    +0.120 C 
BRANCH  37  38
ATOM     38  C   UNL     1       1.068  -1.680  28.794  0.00  0.00    +0.011 C 
BRANCH  38  39
ATOM     39  C   UNL     1       1.171  -2.772  27.745  0.00  0.00    +0.001 C 
BRANCH  39  40
ATOM     40  C   UNL     1       0.809  -2.200  26.385  0.00  0.00    +0.000 C 
BRANCH  40  41
ATOM     41  C   UNL     1       2.037  -1.615  25.713  0.00  0.00    +0.000 C 
BRANCH  41  42
ATOM     42  C   UNL     1       3.055  -2.714  25.458  0.00  0.00    +0.000 C 
BRANCH  42  43
ATOM     43  C   UNL     1       4.278  -2.509  26.332  0.00  0.00    -0.000 C 
BRANCH  43  44
ATOM     44  C   UNL     1       5.541  -2.839  25.552  0.00  0.00    -0.000 C 
BRANCH  44  45
ATOM     45  C   UNL     1       5.535  -2.112  24.218  0.00  0.00    -0.000 C 
BRANCH  45  46
ATOM     46  C   UNL     1       5.418  -0.611  24.433  0.00  0.00    -0.000 C 
BRANCH  46  47
ATOM     47  C   UNL     1       6.587   0.109  23.781  0.00  0.00    -0.000 C 
BRANCH  47  48
ATOM     48  C   UNL     1       7.249  -0.785  22.742  0.00  0.00    -0.000 C 
BRANCH  48  49
ATOM     49  C   UNL     1       7.484  -0.016  21.448  0.00  0.00    -0.000 C 
BRANCH  49  50
ATOM     50  C   UNL     1       7.663   1.471  21.728  0.00  0.00    -0.000 C 
BRANCH  50  51
ATOM     51  C   UNL     1       8.560   1.686  22.943  0.00  0.00    -0.000 C 
BRANCH  51  52
ATOM     52  C   UNL     1       9.872   2.354  22.544  0.00  0.00    -0.003 C 
ATOM     53  C   UNL     1      10.753   2.595  23.757  0.00  0.00    +0.004 C 
ENDBRANCH  51  52
ENDBRANCH  50  51
ENDBRANCH  49  50
ENDBRANCH  48  49
ENDBRANCH  47  48
ENDBRANCH  46  47
ENDBRANCH  45  46
ENDBRANCH  44  45
ENDBRANCH  43  44
ENDBRANCH  42  43
ENDBRANCH  41  42
ENDBRANCH  40  41
ENDBRANCH  39  40
ENDBRANCH  38  39
ENDBRANCH  37  38
ENDBRANCH  35  37
ENDBRANCH  34  35
ENDBRANCH  33  34
ENDBRANCH  12  33
ENDBRANCH  11  12
ENDBRANCH  10  11
ENDBRANCH   6  10
ENDBRANCH   5   6
ENDBRANCH   4   5
ENDBRANCH   1   4
BRANCH   1  54
ATOM     54  C   UNL     1       9.635  -2.742  25.523  0.00  0.00    +0.206 C 
BRANCH  54  55
ATOM     55  O   UNL     1      10.028  -1.584  26.237  0.00  0.00    -0.284 OA
BRANCH  55  56
ATOM     56  P   UNL     1       8.893  -0.294  26.446  0.00  0.00    +0.475 P 
ATOM     57  O   UNL     1       9.308  -0.161  27.907  0.00  0.00    -0.227 OA
BRANCH  56  58
ATOM     58  O   UNL     1       9.912   0.647  25.563  0.00  0.00    -0.302 OA
ATOM     59  H   UNL     1       9.810   1.598  25.729  0.00  0.00    +0.222 HD
ENDBRANCH  56  58
BRANCH  56  60
ATOM     60  O   UNL     1       7.759   0.995  26.654  0.00  0.00    -0.283 OA
BRANCH  60  61
ATOM     61  C   UNL     1       6.836   0.846  27.738  0.00  0.00    +0.220 C 
BRANCH  61  62
ATOM     62  C   UNL     1       5.370   0.998  27.361  0.00  0.00    +0.240 C 
BRANCH  62  63
ATOM     63  O   UNL     1       5.029   2.389  27.451  0.00  0.00    -0.456 OA
BRANCH  63  64
ATOM     64  C   UNL     1       5.041   3.061  26.270  0.00  0.00    +0.308 C 
ATOM     65  O   UNL     1       4.630   2.640  25.200  0.00  0.00    -0.251 OA
BRANCH  64  66
ATOM     66  C   UNL     1       5.562   4.450  26.467  0.00  0.00    +0.120 C 
BRANCH  66  67
ATOM     67  C   UNL     1       5.514   4.772  27.949  0.00  0.00    +0.011 C 
BRANCH  67  68
ATOM     68  C   UNL     1       6.882   5.188  28.459  0.00  0.00    +0.001 C 
BRANCH  68  69
ATOM     69  C   UNL     1       6.918   6.697  28.647  0.00  0.00    +0.000 C 
BRANCH  69  70
ATOM     70  C   UNL     1       8.172   7.108  29.397  0.00  0.00    +0.000 C 
BRANCH  70  71
ATOM     71  C   UNL     1       9.404   6.570  28.687  0.00  0.00    +0.000 C 
BRANCH  71  72
ATOM     72  C   UNL     1       9.452   7.091  27.261  0.00  0.00    -0.000 C 
BRANCH  72  73
ATOM     73  C   UNL     1       9.949   6.007  26.320  0.00  0.00    -0.000 C 
BRANCH  73  74
ATOM     74  C   UNL     1      10.467   6.632  25.035  0.00  0.00    -0.000 C 
BRANCH  74  75
ATOM     75  C   UNL     1       9.307   7.071  24.156  0.00  0.00    -0.000 C 
BRANCH  75  76
ATOM     76  C   UNL     1       7.989   6.604  24.755  0.00  0.00    -0.000 C 
BRANCH  76  77
ATOM     77  C   UNL     1       6.886   6.654  23.709  0.00  0.00    -0.000 C 
BRANCH  77  78
ATOM     78  C   UNL     1       7.456   6.395  22.321  0.00  0.00    -0.000 C 
BRANCH  78  79
ATOM     79  C   UNL     1       6.851   5.132  21.718  0.00  0.00    -0.000 C 
BRANCH  79  80
ATOM     80  C   UNL     1       6.098   4.338  22.780  0.00  0.00    -0.000 C 
BRANCH  80  81
ATOM     81  C   UNL     1       4.919   3.588  22.169  0.00  0.00    -0.003 C 
ATOM     82  C   UNL     1       3.799   3.414  23.178  0.00  0.00    +0.004 C 
ENDBRANCH  80  81
ENDBRANCH  79  80
ENDBRANCH  78  79
ENDBRANCH  77  78
ENDBRANCH  76  77
ENDBRANCH  75  76
ENDBRANCH  74  75
ENDBRANCH  73  74
ENDBRANCH  72  73
ENDBRANCH  71  72
ENDBRANCH  70  71
ENDBRANCH  69  70
ENDBRANCH  68  69
ENDBRANCH  67  68
ENDBRANCH  66  67
ENDBRANCH  64  66
ENDBRANCH  63  64
ENDBRANCH  62  63
BRANCH  62  83
ATOM     83  C   UNL     1       4.510   0.233  28.385  0.00  0.00    +0.279 C 
BRANCH  83  84
ATOM     84  O   UNL     1       3.110   0.453  28.157  0.00  0.00    -0.461 OA
BRANCH  84  85
ATOM     85  C   UNL     1       2.676   1.689  28.526  0.00  0.00    +0.307 C 
ATOM     86  O   UNL     1       2.328   2.563  27.744  0.00  0.00    -0.251 OA
BRANCH  85  87
ATOM     87  C   UNL     1       2.672   1.822  30.025  0.00  0.00    +0.120 C 
BRANCH  87  88
ATOM     88  C   UNL     1       1.325   2.362  30.485  0.00  0.00    +0.011 C 
BRANCH  88  89
ATOM     89  C   UNL     1       0.930   3.625  29.731  0.00  0.00    +0.001 C 
BRANCH  89  90
ATOM     90  C   UNL     1       2.145   4.186  29.000  0.00  0.00    +0.000 C 
BRANCH  90  91
ATOM     91  C   UNL     1       2.571   5.526  29.582  0.00  0.00    +0.000 C 
BRANCH  91  92
ATOM     92  C   UNL     1       1.344   6.383  29.862  0.00  0.00    +0.000 C 
BRANCH  92  93
ATOM     93  C   UNL     1       0.811   6.996  28.576  0.00  0.00    -0.000 C 
BRANCH  93  94
ATOM     94  C   UNL     1       1.305   6.209  27.371  0.00  0.00    -0.000 C 
BRANCH  94  95
ATOM     95  C   UNL     1       1.085   7.003  26.093  0.00  0.00    -0.000 C 
BRANCH  95  96
ATOM     96  C   UNL     1       0.832   6.066  24.921  0.00  0.00    -0.000 C 
BRANCH  96  97
ATOM     97  C   UNL     1       1.170   6.756  23.606  0.00  0.00    -0.000 C 
BRANCH  97  98
ATOM     98  C   UNL     1       2.678   6.811  23.403  0.00  0.00    -0.000 C 
BRANCH  98  99
ATOM     99  C   UNL     1       3.047   6.340  22.002  0.00  0.00    -0.000 C 
BRANCH  99 100
ATOM    100  C   UNL     1       2.102   6.937  20.965  0.00  0.00    -0.000 C 
BRANCH 100 101
ATOM    101  C   UNL     1       1.375   5.834  20.202  0.00  0.00    -0.000 C 
BRANCH 101 103
ATOM    102  C   UNL     1       1.595   6.970  17.975  0.00  0.00    +0.004 C 
ATOM    103  C   UNL     1       1.901   5.715  18.775  0.00  0.00    -0.003 C 
ENDBRANCH 101 103
ENDBRANCH 100 101
ENDBRANCH  99 100
ENDBRANCH  98  99
ENDBRANCH  97  98
ENDBRANCH  96  97
ENDBRANCH  95  96
ENDBRANCH  94  95
ENDBRANCH  93  94
ENDBRANCH  92  93
ENDBRANCH  91  92
ENDBRANCH  90  91
ENDBRANCH  89  90
ENDBRANCH  88  89
ENDBRANCH  87  88
ENDBRANCH  85  87
ENDBRANCH  84  85
ENDBRANCH  83  84
ENDBRANCH  62  83
ENDBRANCH  61  62
ENDBRANCH  60  61
ENDBRANCH  56  60
ENDBRANCH  55  56
ENDBRANCH  54  55
ENDBRANCH   1  54
TORSDOF 89
ENDMDL
MODEL 3
REMARK VINA RESULT:       1.3      2.350     10.774
REMARK  Name = 
REMARK  93 active torsions:
REMARK  status: ('A' for Active; 'I' for Inactive)
REMARK    1  A    between atoms: C_1  and  C_2
REMARK    2  A    between atoms: C_2  and  C_3
REMARK    3  A    between atoms: C_3  and  C_4
REMARK    4  A    between atoms: C_4  and  C_5
REMARK    5  A    between atoms: C_5  and  C_6
REMARK    6  A    between atoms: C_6  and  C_7
REMARK    7  A    between atoms: C_7  and  C_8
REMARK    8  A    between atoms: C_8  and  C_9
REMARK    9  A    between atoms: C_9  and  C_10
REMARK   10  A    between atoms: C_10  and  C_11
REMARK   11  A    between atoms: C_11  and  C_12
REMARK   12  A    between atoms: C_12  and  C_13
REMARK   13  A    between atoms: C_13  and  C_14
REMARK   14  A    between atoms: C_14  and  C_15
REMARK   15  A    between atoms: C_15  and  C_16
REMARK   16  A    between atoms: C_16  and  C_17
REMARK   17  A    between atoms: C_17  and  C_18
REMARK   18  A    between atoms: C_18  and  O_20
REMARK   19  A    between atoms: O_20  and  C_21
REMARK   20  A    between atoms: C_21  and  C_22
REMARK   21  A    between atoms: C_22  and  C_24
REMARK   22  A    between atoms: C_22  and  O_83
REMARK   23  A    between atoms: C_24  and  O_25
REMARK   24  A    between atoms: O_25  and  P_26
REMARK   25  A    between atoms: P_26  and  O_27
REMARK   26  A    between atoms: P_26  and  O_29
REMARK   27  A    between atoms: O_29  and  C_30
REMARK   28  A    between atoms: C_30  and  C_31
REMARK   29  A    between atoms: C_31  and  O_32
REMARK   30  A    between atoms: C_31  and  C_33
REMARK   31  A    between atoms: C_33  and  O_34
REMARK   32  A    between atoms: O_34  and  P_35
REMARK   33  A    between atoms: P_35  and  O_36
REMARK   34  A    between atoms: P_35  and  O_38
REMARK   35  A    between atoms: O_38  and  C_39
REMARK   36  A    between atoms: C_39  and  C_40
REMARK   37  A    between atoms: C_40  and  C_42
REMARK   38  A    between atoms: C_40  and  O_63
REMARK   39  A    between atoms: C_42  and  O_43
REMARK   40  A    between atoms: O_43  and  C_44
REMARK   41  A    between atoms: C_44  and  C_46
REMARK   42  A    between atoms: C_46  and  C_47
REMARK   43  A    between atoms: C_47  and  C_48
REMARK   44  A    between atoms: C_48  and  C_49
REMARK   45  A    between atoms: C_49  and  C_50
REMARK   46  A    between atoms: C_50  and  C_51
REMARK   47  A    between atoms: C_51  and  C_52
REMARK   48  A    between atoms: C_52  and  C_53
REMARK   49  A    between atoms: C_53  and  C_54
REMARK   50  A    between atoms: C_54  and  C_55
REMARK   51  A    between atoms: C_55  and  C_56
REMARK   52  A    between atoms: C_56  and  C_57
REMARK   53  A    between atoms: C_57  and  C_58
REMARK   54  A    between atoms: C_58  and  C_59
REMARK   55  A    between atoms: C_59  and  C_60
REMARK   56  A    between atoms: C_60  and  C_61
REMARK   57  A    between atoms: C_61  and  C_62
REMARK   58  A    between atoms: O_63  and  C_64
REMARK   59  A    between atoms: C_64  and  C_66
REMARK   60  A    between atoms: C_66  and  C_67
REMARK   61  A    between atoms: C_67  and  C_68
REMARK   62  A    between atoms: C_68  and  C_69
REMARK   63  A    between atoms: C_69  and  C_70
REMARK   64  A    between atoms: C_70  and  C_71
REMARK   65  A    between atoms: C_71  and  C_72
REMARK   66  A    between atoms: C_72  and  C_73
REMARK   67  A    between atoms: C_73  and  C_74
REMARK   68  A    between atoms: C_74  and  C_75
REMARK   69  A    between atoms: C_75  and  C_76
REMARK   70  A    between atoms: C_76  and  C_77
REMARK   71  A    between atoms: C_77  and  C_78
REMARK   72  A    between atoms: C_78  and  C_79
REMARK   73  A    between atoms: C_79  and  C_80
REMARK   74  A    between atoms: C_80  and  C_81
REMARK   75  A    between atoms: C_81  and  C_82
REMARK   76  A    between atoms: O_83  and  C_84
REMARK   77  A    between atoms: C_84  and  C_86
REMARK   78  A    between atoms: C_86  and  C_87
REMARK   79  A    between atoms: C_87  and  C_88
REMARK   80  A    between atoms: C_88  and  C_89
REMARK   81  A    between atoms: C_89  and  C_90
REMARK   82  A    between atoms: C_90  and  C_91
REMARK   83  A    between atoms: C_91  and  C_92
REMARK   84  A    between atoms: C_92  and  C_93
REMARK   85  A    between atoms: C_93  and  C_94
REMARK   86  A    between atoms: C_94  and  C_95
REMARK   87  A    between atoms: C_95  and  C_96
REMARK   88  A    between atoms: C_96  and  C_97
REMARK   89  A    between atoms: C_97  and  C_98
REMARK   90  A    between atoms: C_98  and  C_99
REMARK   91  A    between atoms: C_99  and  C_100
REMARK   92  A    between atoms: C_100  and  C_101
REMARK   93  A    between atoms: C_101  and  C_102
REMARK                            x       y       z     vdW  Elec       q    Type
REMARK                         _______ _______ _______ _____ _____    ______ ____
ROOT
ATOM      1  C   UNL     1       9.778  -3.974  26.421  0.00  0.00    +0.167 C 
ENDROOT
BRANCH   1   2
ATOM      2  O   UNL     1       8.844  -3.739  27.478  0.00  0.00    -0.387 OA
ATOM      3  H   UNL     1       7.940  -3.881  27.157  0.00  0.00    +0.210 HD
ENDBRANCH   1   2
BRANCH   1   4
ATOM      4  C   UNL     1       9.246  -5.044  25.442  0.00  0.00    +0.206 C 
BRANCH   4   5
ATOM      5  O   UNL     1       7.850  -5.167  25.295  0.00  0.00    -0.284 OA
BRANCH   5   6
ATOM      6  P   UNL     1       6.995  -6.523  25.610  0.00  0.00    +0.475 P 
ATOM      7  O   UNL     1       5.509  -6.180  25.541  0.00  0.00    -0.227 OA
BRANCH   6   8
ATOM      8  O   UNL     1       6.932  -6.776  23.899  0.00  0.00    -0.302 OA
ATOM      9  H   UNL     1       6.699  -5.884  23.562  0.00  0.00    +0.222 HD
ENDBRANCH   6   8
BRANCH   6  10
ATOM     10  O   UNL     1       7.059  -6.271  27.320  0.00  0.00    -0.283 OA
BRANCH  10  11
ATOM     11  C   UNL     1       6.617  -5.127  28.024  0.00  0.00    +0.220 C 
BRANCH  11  12
ATOM     12  C   UNL     1       5.469  -5.291  29.029  0.00  0.00    +0.240 C 
BRANCH  12  13
ATOM     13  O   UNL     1       4.954  -6.629  28.838  0.00  0.00    -0.456 OA
BRANCH  13  14
ATOM     14  C   UNL     1       3.619  -6.824  28.953  0.00  0.00    +0.308 C 
ATOM     15  O   UNL     1       2.783  -6.572  28.103  0.00  0.00    -0.251 OA
BRANCH  14  16
ATOM     16  C   UNL     1       3.300  -7.412  30.298  0.00  0.00    +0.120 C 
BRANCH  16  17
ATOM     17  C   UNL     1       1.920  -8.059  30.278  0.00  0.00    +0.011 C 
BRANCH  17  18
ATOM     18  C   UNL     1       1.894  -9.299  29.394  0.00  0.00    +0.001 C 
BRANCH  18  19
ATOM     19  C   UNL     1       0.658  -9.287  28.489  0.00  0.00    +0.000 C 
BRANCH  19  20
ATOM     20  C   UNL     1       0.900  -9.959  27.139  0.00  0.00    +0.000 C 
BRANCH  20  21
ATOM     21  C   UNL     1       0.773  -8.977  25.979  0.00  0.00    +0.000 C 
BRANCH  21  22
ATOM     22  C   UNL     1       0.855  -9.689  24.638  0.00  0.00    -0.000 C 
BRANCH  22  23
ATOM     23  C   UNL     1       2.005  -9.111  23.825  0.00  0.00    -0.000 C 
BRANCH  23  24
ATOM     24  C   UNL     1       1.504  -8.046  22.864  0.00  0.00    -0.000 C 
BRANCH  24  25
ATOM     25  C   UNL     1       1.391  -6.708  23.579  0.00  0.00    -0.000 C 
BRANCH  25  26
ATOM     26  C   UNL     1       2.771  -6.118  23.818  0.00  0.00    -0.000 C 
BRANCH  26  27
ATOM     27  C   UNL     1       3.611  -6.202  22.552  0.00  0.00    -0.000 C 
BRANCH  27  28
ATOM     28  C   UNL     1       4.783  -5.232  22.625  0.00  0.00    -0.000 C 
BRANCH  28  29
ATOM     29  C   UNL     1       5.910  -5.677  21.702  0.00  0.00    -0.000 C 
BRANCH  29  30
ATOM     30  C   UNL     1       5.903  -4.863  20.413  0.00  0.00    -0.000 C 
BRANCH  30  31
ATOM     31  C   UNL     1       6.785  -3.625  20.542  0.00  0.00    -0.003 C 
ATOM     32  C   UNL     1       7.410  -3.543  21.924  0.00  0.00    +0.004 C 
ENDBRANCH  30  31
ENDBRANCH  29  30
ENDBRANCH  28  29
ENDBRANCH  27  28
ENDBRANCH  26  27
ENDBRANCH  25  26
ENDBRANCH  24  25
ENDBRANCH  23  24
ENDBRANCH  22  23
ENDBRANCH  21  22
ENDBRANCH  20  21
ENDBRANCH  19  20
ENDBRANCH  18  19
ENDBRANCH  17  18
ENDBRANCH  16  17
ENDBRANCH  14  16
ENDBRANCH  13  14
ENDBRANCH  12  13
BRANCH  12  33
ATOM     33  C   UNL     1       4.289  -4.349  28.776  0.00  0.00    +0.279 C 
BRANCH  33  34
ATOM     34  O   UNL     1       3.736  -3.843  29.991  0.00  0.00    -0.461 OA
BRANCH  34  35
ATOM     35  C   UNL     1       2.379  -3.777  30.009  0.00  0.00    +0.307 C 
ATOM     36  O   UNL     1       1.628  -4.654  30.398  0.00  0.00    -0.251 OA
BRANCH  35  37
ATOM     37  C   UNL     1       1.936  -2.460  29.465  0.00  0.00    +0.120 C 
BRANCH  37  38
ATOM     38  C   UNL     1       0.921  -2.722  28.376  0.00  0.00    +0.011 C 
BRANCH  38  39
ATOM     39  C   UNL     1       1.364  -3.887  27.511  0.00  0.00    +0.001 C 
BRANCH  39  40
ATOM     40  C   UNL     1       0.867  -3.678  26.090  0.00  0.00    +0.000 C 
BRANCH  40  41
ATOM     41  C   UNL     1       1.950  -3.039  25.240  0.00  0.00    +0.000 C 
BRANCH  41  42
ATOM     42  C   UNL     1       3.174  -2.756  26.095  0.00  0.00    +0.000 C 
BRANCH  42  43
ATOM     43  C   UNL     1       3.568  -1.295  25.977  0.00  0.00    -0.000 C 
BRANCH  43  44
ATOM     44  C   UNL     1       5.064  -1.174  25.733  0.00  0.00    -0.000 C 
BRANCH  44  45
ATOM     45  C   UNL     1       5.563  -2.372  24.942  0.00  0.00    -0.000 C 
BRANCH  45  46
ATOM     46  C   UNL     1       6.725  -1.968  24.048  0.00  0.00    -0.000 C 
BRANCH  46  47
ATOM     47  C   UNL     1       6.853  -0.454  24.000  0.00  0.00    -0.000 C 
BRANCH  47  48
ATOM     48  C   UNL     1       7.058   0.018  22.567  0.00  0.00    -0.000 C 
BRANCH  48  49
ATOM     49  C   UNL     1       6.581   1.455  22.405  0.00  0.00    -0.000 C 
BRANCH  49  50
ATOM     50  C   UNL     1       7.764   2.417  22.385  0.00  0.00    -0.000 C 
BRANCH  50  51
ATOM     51  C   UNL     1       9.022   1.713  21.890  0.00  0.00    -0.000 C 
BRANCH  51  52
ATOM     52  C   UNL     1      10.250   2.171  22.670  0.00  0.00    -0.003 C 
ATOM     53  C   UNL     1       9.897   3.284  23.641  0.00  0.00    +0.004 C 
ENDBRANCH  51  52
ENDBRANCH  50  51
ENDBRANCH  49  50
ENDBRANCH  48  49
ENDBRANCH  47  48
ENDBRANCH  46  47
ENDBRANCH  45  46
ENDBRANCH  44  45
ENDBRANCH  43  44
ENDBRANCH  42  43
ENDBRANCH  41  42
ENDBRANCH  40  41
ENDBRANCH  39  40
ENDBRANCH  38  39
ENDBRANCH  37  38
ENDBRANCH  35  37
ENDBRANCH  34  35
ENDBRANCH  33  34
ENDBRANCH  12  33
ENDBRANCH  11  12
ENDBRANCH  10  11
ENDBRANCH   6  10
ENDBRANCH   5   6
ENDBRANCH   4   5
ENDBRANCH   1   4
BRANCH   1  54
ATOM     54  C   UNL     1      10.015  -2.704  25.561  0.00  0.00    +0.206 C 
BRANCH  54  55
ATOM     55  O   UNL     1      10.374  -1.559  26.312  0.00  0.00    -0.284 OA
BRANCH  55  56
ATOM     56  P   UNL     1       9.211  -0.299  26.544  0.00  0.00    +0.475 P 
ATOM     57  O   UNL     1       9.826   0.024  27.901  0.00  0.00    -0.227 OA
BRANCH  56  58
ATOM     58  O   UNL     1      10.034   0.569  25.416  0.00  0.00    -0.302 OA
ATOM     59  H   UNL     1      10.874   0.165  25.146  0.00  0.00    +0.222 HD
ENDBRANCH  56  58
BRANCH  56  60
ATOM     60  O   UNL     1       8.048   0.959  26.774  0.00  0.00    -0.283 OA
BRANCH  60  61
ATOM     61  C   UNL     1       7.241   0.856  27.953  0.00  0.00    +0.220 C 
BRANCH  61  62
ATOM     62  C   UNL     1       5.740   0.935  27.714  0.00  0.00    +0.240 C 
BRANCH  62  63
ATOM     63  O   UNL     1       5.354   2.316  27.764  0.00  0.00    -0.456 OA
BRANCH  63  64
ATOM     64  C   UNL     1       5.632   3.030  26.642  0.00  0.00    +0.308 C 
ATOM     65  O   UNL     1       5.510   2.639  25.492  0.00  0.00    -0.251 OA
BRANCH  64  66
ATOM     66  C   UNL     1       6.043   4.424  27.002  0.00  0.00    +0.120 C 
BRANCH  66  67
ATOM     67  C   UNL     1       6.176   4.507  28.511  0.00  0.00    +0.011 C 
BRANCH  67  68
ATOM     68  C   UNL     1       7.579   4.927  28.910  0.00  0.00    +0.001 C 
BRANCH  68  69
ATOM     69  C   UNL     1       7.503   5.998  29.987  0.00  0.00    +0.000 C 
BRANCH  69  70
ATOM     70  C   UNL     1       8.796   6.793  30.037  0.00  0.00    +0.000 C 
BRANCH  70  71
ATOM     71  C   UNL     1       9.269   7.107  28.626  0.00  0.00    +0.000 C 
BRANCH  71  72
ATOM     72  C   UNL     1       8.172   6.786  27.625  0.00  0.00    -0.000 C 
BRANCH  72  73
ATOM     73  C   UNL     1       8.768   6.185  26.364  0.00  0.00    -0.000 C 
BRANCH  73  74
ATOM     74  C   UNL     1       8.231   6.910  25.140  0.00  0.00    -0.000 C 
BRANCH  74  75
ATOM     75  C   UNL     1       7.741   5.907  24.107  0.00  0.00    -0.000 C 
BRANCH  75  76
ATOM     76  C   UNL     1       7.952   6.454  22.704  0.00  0.00    -0.000 C 
BRANCH  76  77
ATOM     77  C   UNL     1       6.714   6.217  21.852  0.00  0.00    -0.000 C 
BRANCH  77  78
ATOM     78  C   UNL     1       5.523   6.978  22.420  0.00  0.00    -0.000 C 
BRANCH  78  79
ATOM     79  C   UNL     1       4.248   6.151  22.295  0.00  0.00    -0.000 C 
BRANCH  79  80
ATOM     80  C   UNL     1       3.115   6.996  21.722  0.00  0.00    -0.000 C 
BRANCH  80  81
ATOM     81  C   UNL     1       1.842   6.170  21.568  0.00  0.00    -0.003 C 
ATOM     82  C   UNL     1       0.669   6.841  22.260  0.00  0.00    +0.004 C 
ENDBRANCH  80  81
ENDBRANCH  79  80
ENDBRANCH  78  79
ENDBRANCH  77  78
ENDBRANCH  76  77
ENDBRANCH  75  76
ENDBRANCH  74  75
ENDBRANCH  73  74
ENDBRANCH  72  73
ENDBRANCH  71  72
ENDBRANCH  70  71
ENDBRANCH  69  70
ENDBRANCH  68  69
ENDBRANCH  67  68
ENDBRANCH  66  67
ENDBRANCH  64  66
ENDBRANCH  63  64
ENDBRANCH  62  63
BRANCH  62  83
ATOM     83  C   UNL     1       5.014   0.199  28.858  0.00  0.00    +0.279 C 
BRANCH  83  84
ATOM     84  O   UNL     1       3.598   0.426  28.806  0.00  0.00    -0.461 OA
BRANCH  84  85
ATOM     85  C   UNL     1       3.179   1.484  29.553  0.00  0.00    +0.307 C 
ATOM     86  O   UNL     1       3.633   2.616  29.466  0.00  0.00    -0.251 OA
BRANCH  85  87
ATOM     87  C   UNL     1       2.073   1.067  30.485  0.00  0.00    +0.120 C 
BRANCH  87  88
ATOM     88  C   UNL     1       0.921   2.057  30.383  0.00  0.00    +0.011 C 
BRANCH  88  89
ATOM     89  C   UNL     1       1.334   3.339  29.671  0.00  0.00    +0.001 C 
BRANCH  89  90
ATOM     90  C   UNL     1       2.578   3.916  30.336  0.00  0.00    +0.000 C 
BRANCH  90  91
ATOM     91  C   UNL     1       2.559   5.437  30.322  0.00  0.00    +0.000 C 
BRANCH  91  92
ATOM     92  C   UNL     1       1.248   5.934  29.725  0.00  0.00    +0.000 C 
BRANCH  92  93
ATOM     93  C   UNL     1       1.343   6.010  28.209  0.00  0.00    -0.000 C 
BRANCH  93  94
ATOM     94  C   UNL     1       2.740   5.623  27.746  0.00  0.00    -0.000 C 
BRANCH  94  95
ATOM     95  C   UNL     1       3.375   6.764  26.967  0.00  0.00    -0.000 C 
BRANCH  95  96
ATOM     96  C   UNL     1       3.044   6.648  25.486  0.00  0.00    -0.000 C 
BRANCH  96  97
ATOM     97  C   UNL     1       2.191   5.413  25.227  0.00  0.00    -0.000 C 
BRANCH  97  98
ATOM     98  C   UNL     1       2.761   4.603  24.071  0.00  0.00    -0.000 C 
BRANCH  98  99
ATOM     99  C   UNL     1       1.765   3.542  23.619  0.00  0.00    -0.000 C 
BRANCH  99 100
ATOM    100  C   UNL     1       0.444   3.688  24.365  0.00  0.00    -0.000 C 
BRANCH 100 101
ATOM    101  C   UNL     1       0.629   3.395  25.850  0.00  0.00    -0.000 C 
BRANCH 101 103
ATOM    102  C   UNL     1       2.149   1.507  26.502  0.00  0.00    +0.004 C 
ATOM    103  C   UNL     1       0.734   1.895  26.105  0.00  0.00    -0.003 C 
ENDBRANCH 101 103
ENDBRANCH 100 101
ENDBRANCH  99 100
ENDBRANCH  98  99
ENDBRANCH  97  98
ENDBRANCH  96  97
ENDBRANCH  95  96
ENDBRANCH  94  95
ENDBRANCH  93  94
ENDBRANCH  92  93
ENDBRANCH  91  92
ENDBRANCH  90  91
ENDBRANCH  89  90
ENDBRANCH  88  89
ENDBRANCH  87  88
ENDBRANCH  85  87
ENDBRANCH  84  85
ENDBRANCH  83  84
ENDBRANCH  62  83
ENDBRANCH  61  62
ENDBRANCH  60  61
ENDBRANCH  56  60
ENDBRANCH  55  56
ENDBRANCH  54  55
ENDBRANCH   1  54
TORSDOF 89
ENDMDL
MODEL 4
REMARK VINA RESULT:       1.4      2.593     10.193
REMARK  Name = 
REMARK  93 active torsions:
REMARK  status: ('A' for Active; 'I' for Inactive)
REMARK    1  A    between atoms: C_1  and  C_2
REMARK    2  A    between atoms: C_2  and  C_3
REMARK    3  A    between atoms: C_3  and  C_4
REMARK    4  A    between atoms: C_4  and  C_5
REMARK    5  A    between atoms: C_5  and  C_6
REMARK    6  A    between atoms: C_6  and  C_7
REMARK    7  A    between atoms: C_7  and  C_8
REMARK    8  A    between atoms: C_8  and  C_9
REMARK    9  A    between atoms: C_9  and  C_10
REMARK   10  A    between atoms: C_10  and  C_11
REMARK   11  A    between atoms: C_11  and  C_12
REMARK   12  A    between atoms: C_12  and  C_13
REMARK   13  A    between atoms: C_13  and  C_14
REMARK   14  A    between atoms: C_14  and  C_15
REMARK   15  A    between atoms: C_15  and  C_16
REMARK   16  A    between atoms: C_16  and  C_17
REMARK   17  A    between atoms: C_17  and  C_18
REMARK   18  A    between atoms: C_18  and  O_20
REMARK   19  A    between atoms: O_20  and  C_21
REMARK   20  A    between atoms: C_21  and  C_22
REMARK   21  A    between atoms: C_22  and  C_24
REMARK   22  A    between atoms: C_22  and  O_83
REMARK   23  A    between atoms: C_24  and  O_25
REMARK   24  A    between atoms: O_25  and  P_26
REMARK   25  A    between atoms: P_26  and  O_27
REMARK   26  A    between atoms: P_26  and  O_29
REMARK   27  A    between atoms: O_29  and  C_30
REMARK   28  A    between atoms: C_30  and  C_31
REMARK   29  A    between atoms: C_31  and  O_32
REMARK   30  A    between atoms: C_31  and  C_33
REMARK   31  A    between atoms: C_33  and  O_34
REMARK   32  A    between atoms: O_34  and  P_35
REMARK   33  A    between atoms: P_35  and  O_36
REMARK   34  A    between atoms: P_35  and  O_38
REMARK   35  A    between atoms: O_38  and  C_39
REMARK   36  A    between atoms: C_39  and  C_40
REMARK   37  A    between atoms: C_40  and  C_42
REMARK   38  A    between atoms: C_40  and  O_63
REMARK   39  A    between atoms: C_42  and  O_43
REMARK   40  A    between atoms: O_43  and  C_44
REMARK   41  A    between atoms: C_44  and  C_46
REMARK   42  A    between atoms: C_46  and  C_47
REMARK   43  A    between atoms: C_47  and  C_48
REMARK   44  A    between atoms: C_48  and  C_49
REMARK   45  A    between atoms: C_49  and  C_50
REMARK   46  A    between atoms: C_50  and  C_51
REMARK   47  A    between atoms: C_51  and  C_52
REMARK   48  A    between atoms: C_52  and  C_53
REMARK   49  A    between atoms: C_53  and  C_54
REMARK   50  A    between atoms: C_54  and  C_55
REMARK   51  A    between atoms: C_55  and  C_56
REMARK   52  A    between atoms: C_56  and  C_57
REMARK   53  A    between atoms: C_57  and  C_58
REMARK   54  A    between atoms: C_58  and  C_59
REMARK   55  A    between atoms: C_59  and  C_60
REMARK   56  A    between atoms: C_60  and  C_61
REMARK   57  A    between atoms: C_61  and  C_62
REMARK   58  A    between atoms: O_63  and  C_64
REMARK   59  A    between atoms: C_64  and  C_66
REMARK   60  A    between atoms: C_66  and  C_67
REMARK   61  A    between atoms: C_67  and  C_68
REMARK   62  A    between atoms: C_68  and  C_69
REMARK   63  A    between atoms: C_69  and  C_70
REMARK   64  A    between atoms: C_70  and  C_71
REMARK   65  A    between atoms: C_71  and  C_72
REMARK   66  A    between atoms: C_72  and  C_73
REMARK   67  A    between atoms: C_73  and  C_74
REMARK   68  A    between atoms: C_74  and  C_75
REMARK   69  A    between atoms: C_75  and  C_76
REMARK   70  A    between atoms: C_76  and  C_77
REMARK   71  A    between atoms: C_77  and  C_78
REMARK   72  A    between atoms: C_78  and  C_79
REMARK   73  A    between atoms: C_79  and  C_80
REMARK   74  A    between atoms: C_80  and  C_81
REMARK   75  A    between atoms: C_81  and  C_82
REMARK   76  A    between atoms: O_83  and  C_84
REMARK   77  A    between atoms: C_84  and  C_86
REMARK   78  A    between atoms: C_86  and  C_87
REMARK   79  A    between atoms: C_87  and  C_88
REMARK   80  A    between atoms: C_88  and  C_89
REMARK   81  A    between atoms: C_89  and  C_90
REMARK   82  A    between atoms: C_90  and  C_91
REMARK   83  A    between atoms: C_91  and  C_92
REMARK   84  A    between atoms: C_92  and  C_93
REMARK   85  A    between atoms: C_93  and  C_94
REMARK   86  A    between atoms: C_94  and  C_95
REMARK   87  A    between atoms: C_95  and  C_96
REMARK   88  A    between atoms: C_96  and  C_97
REMARK   89  A    between atoms: C_97  and  C_98
REMARK   90  A    between atoms: C_98  and  C_99
REMARK   91  A    between atoms: C_99  and  C_100
REMARK   92  A    between atoms: C_100  and  C_101
REMARK   93  A    between atoms: C_101  and  C_102
REMARK                            x       y       z     vdW  Elec       q    Type
REMARK                         _______ _______ _______ _____ _____    ______ ____
ROOT
ATOM      1  C   UNL     1       8.936  -0.991  26.327  0.00  0.00    +0.167 C 
ENDROOT
BRANCH   1   2
ATOM      2  O   UNL     1       9.844  -0.382  27.249  0.00  0.00    -0.387 OA
ATOM      3  H   UNL     1       9.353   0.157  27.888  0.00  0.00    +0.210 HD
ENDBRANCH   1   2
BRANCH   1   4
ATOM      4  C   UNL     1       9.300  -2.474  26.093  0.00  0.00    +0.206 C 
BRANCH   4   5
ATOM      5  O   UNL     1       8.395  -3.455  26.545  0.00  0.00    -0.284 OA
BRANCH   5   6
ATOM      6  P   UNL     1       8.769  -5.023  26.804  0.00  0.00    +0.475 P 
ATOM      7  O   UNL     1       9.001  -5.691  25.452  0.00  0.00    -0.227 OA
BRANCH   6   8
ATOM      8  O   UNL     1      10.431  -4.544  26.760  0.00  0.00    -0.302 OA
ATOM      9  H   UNL     1      10.858  -5.206  27.345  0.00  0.00    +0.222 HD
ENDBRANCH   6   8
BRANCH   6  10
ATOM     10  O   UNL     1       7.108  -5.503  26.849  0.00  0.00    -0.283 OA
BRANCH  10  11
ATOM     11  C   UNL     1       6.363  -5.872  27.992  0.00  0.00    +0.220 C 
BRANCH  11  12
ATOM     12  C   UNL     1       5.053  -6.645  27.789  0.00  0.00    +0.240 C 
BRANCH  12  13
ATOM     13  O   UNL     1       4.548  -6.246  26.493  0.00  0.00    -0.456 OA
BRANCH  13  14
ATOM     14  C   UNL     1       5.418  -6.191  25.457  0.00  0.00    +0.308 C 
ATOM     15  O   UNL     1       6.456  -5.552  25.427  0.00  0.00    -0.251 OA
BRANCH  14  16
ATOM     16  C   UNL     1       4.925  -7.047  24.326  0.00  0.00    +0.120 C 
BRANCH  16  17
ATOM     17  C   UNL     1       5.859  -6.927  23.127  0.00  0.00    +0.011 C 
BRANCH  17  18
ATOM     18  C   UNL     1       5.128  -6.404  21.896  0.00  0.00    +0.001 C 
BRANCH  18  19
ATOM     19  C   UNL     1       4.769  -4.926  22.072  0.00  0.00    +0.000 C 
BRANCH  19  20
ATOM     20  C   UNL     1       5.596  -4.001  21.184  0.00  0.00    +0.000 C 
BRANCH  20  21
ATOM     21  C   UNL     1       7.081  -4.051  21.528  0.00  0.00    +0.000 C 
BRANCH  21  22
ATOM     22  C   UNL     1       7.299  -4.358  23.001  0.00  0.00    -0.000 C 
BRANCH  22  23
ATOM     23  C   UNL     1       7.488  -3.056  23.768  0.00  0.00    -0.000 C 
BRANCH  23  24
ATOM     24  C   UNL     1       6.365  -2.080  23.457  0.00  0.00    -0.000 C 
BRANCH  24  25
ATOM     25  C   UNL     1       6.566  -0.787  24.234  0.00  0.00    -0.000 C 
BRANCH  25  26
ATOM     26  C   UNL     1       5.902   0.374  23.511  0.00  0.00    -0.000 C 
BRANCH  26  27
ATOM     27  C   UNL     1       5.222   1.301  24.508  0.00  0.00    -0.000 C 
BRANCH  27  28
ATOM     28  C   UNL     1       6.214   2.323  25.047  0.00  0.00    -0.000 C 
BRANCH  28  29
ATOM     29  C   UNL     1       7.447   2.400  24.155  0.00  0.00    -0.000 C 
BRANCH  29  30
ATOM     30  C   UNL     1       7.423   3.670  23.313  0.00  0.00    -0.000 C 
BRANCH  30  31
ATOM     31  C   UNL     1       6.892   3.388  21.911  0.00  0.00    -0.003 C 
ATOM     32  C   UNL     1       7.646   2.240  21.264  0.00  0.00    +0.004 C 
ENDBRANCH  30  31
ENDBRANCH  29  30
ENDBRANCH  28  29
ENDBRANCH  27  28
ENDBRANCH  26  27
ENDBRANCH  25  26
ENDBRANCH  24  25
ENDBRANCH  23  24
ENDBRANCH  22  23
ENDBRANCH  21  22
ENDBRANCH  20  21
ENDBRANCH  19  20
ENDBRANCH  18  19
ENDBRANCH  17  18
ENDBRANCH  16  17
ENDBRANCH  14  16
ENDBRANCH  13  14
ENDBRANCH  12  13
BRANCH  12  33
ATOM     33  C   UNL     1       3.959  -6.279  28.795  0.00  0.00    +0.279 C 
BRANCH  33  34
ATOM     34  O   UNL     1       2.807  -7.112  28.662  0.00  0.00    -0.461 OA
BRANCH  34  35
ATOM     35  C   UNL     1       1.628  -6.490  28.921  0.00  0.00    +0.307 C 
ATOM     36  O   UNL     1       0.721  -6.320  28.124  0.00  0.00    -0.251 OA
BRANCH  35  37
ATOM     37  C   UNL     1       1.608  -6.025  30.339  0.00  0.00    +0.120 C 
BRANCH  37  38
ATOM     38  C   UNL     1       2.299  -4.682  30.401  0.00  0.00    +0.011 C 
BRANCH  38  39
ATOM     39  C   UNL     1       1.274  -3.565  30.479  0.00  0.00    +0.001 C 
BRANCH  39  40
ATOM     40  C   UNL     1       0.943  -3.085  29.077  0.00  0.00    +0.000 C 
BRANCH  40  41
ATOM     41  C   UNL     1       0.476  -1.641  29.109  0.00  0.00    +0.000 C 
BRANCH  41  42
ATOM     42  C   UNL     1       1.535  -0.773  29.766  0.00  0.00    +0.000 C 
BRANCH  42  43
ATOM     43  C   UNL     1       2.177   0.139  28.736  0.00  0.00    -0.000 C 
BRANCH  43  44
ATOM     44  C   UNL     1       3.162  -0.645  27.884  0.00  0.00    -0.000 C 
BRANCH  44  45
ATOM     45  C   UNL     1       2.434  -1.732  27.110  0.00  0.00    -0.000 C 
BRANCH  45  46
ATOM     46  C   UNL     1       3.120  -3.074  27.310  0.00  0.00    -0.000 C 
BRANCH  46  47
ATOM     47  C   UNL     1       2.580  -4.096  26.322  0.00  0.00    -0.000 C 
BRANCH  47  48
ATOM     48  C   UNL     1       2.241  -3.426  24.997  0.00  0.00    -0.000 C 
BRANCH  48  49
ATOM     49  C   UNL     1       0.747  -3.526  24.716  0.00  0.00    -0.000 C 
BRANCH  49  50
ATOM     50  C   UNL     1       0.446  -4.722  23.819  0.00  0.00    -0.000 C 
BRANCH  50  51
ATOM     51  C   UNL     1       1.736  -5.330  23.282  0.00  0.00    -0.000 C 
BRANCH  51  52
ATOM     52  C   UNL     1       1.445  -6.529  22.385  0.00  0.00    -0.003 C 
ATOM     53  C   UNL     1       0.899  -7.695  23.189  0.00  0.00    +0.004 C 
ENDBRANCH  51  52
ENDBRANCH  50  51
ENDBRANCH  49  50
ENDBRANCH  48  49
ENDBRANCH  47  48
ENDBRANCH  46  47
ENDBRANCH  45  46
ENDBRANCH  44  45
ENDBRANCH  43  44
ENDBRANCH  42  43
ENDBRANCH  41  42
ENDBRANCH  40  41
ENDBRANCH  39  40
ENDBRANCH  38  39
ENDBRANCH  37  38
ENDBRANCH  35  37
ENDBRANCH  34  35
ENDBRANCH  33  34
ENDBRANCH  12  33
ENDBRANCH  11  12
ENDBRANCH  10  11
ENDBRANCH   6  10
ENDBRANCH   5   6
ENDBRANCH   4   5
ENDBRANCH   1   4
BRANCH   1  54
ATOM     54  C   UNL     1       7.480  -1.001  26.865  0.00  0.00    +0.206 C 
BRANCH  54  55
ATOM     55  O   UNL     1       7.372  -0.672  28.238  0.00  0.00    -0.284 OA
BRANCH  55  56
ATOM     56  P   UNL     1       7.179   0.985  28.698  0.00  0.00    +0.475 P 
ATOM     57  O   UNL     1       8.438   1.351  27.920  0.00  0.00    -0.227 OA
BRANCH  56  58
ATOM     58  O   UNL     1       5.918   1.055  27.644  0.00  0.00    -0.302 OA
ATOM     59  H   UNL     1       5.735   0.214  27.196  0.00  0.00    +0.222 HD
ENDBRANCH  56  58
BRANCH  56  60
ATOM     60  O   UNL     1       6.985   2.640  29.158  0.00  0.00    -0.283 OA
BRANCH  60  61
ATOM     61  C   UNL     1       7.107   3.601  28.103  0.00  0.00    +0.220 C 
BRANCH  61  62
ATOM     62  C   UNL     1       5.990   4.631  28.038  0.00  0.00    +0.240 C 
BRANCH  62  63
ATOM     63  O   UNL     1       6.458   5.747  27.267  0.00  0.00    -0.456 OA
BRANCH  63  64
ATOM     64  C   UNL     1       5.922   5.850  26.023  0.00  0.00    +0.308 C 
ATOM     65  O   UNL     1       5.121   5.079  25.519  0.00  0.00    -0.251 OA
BRANCH  64  66
ATOM     66  C   UNL     1       6.390   7.107  25.357  0.00  0.00    +0.120 C 
BRANCH  66  67
ATOM     67  C   UNL     1       6.676   6.797  23.900  0.00  0.00    +0.011 C 
BRANCH  67  68
ATOM     68  C   UNL     1       8.137   6.438  23.697  0.00  0.00    +0.001 C 
BRANCH  68  69
ATOM     69  C   UNL     1       8.903   6.667  24.990  0.00  0.00    +0.000 C 
BRANCH  69  70
ATOM     70  C   UNL     1       9.918   5.559  25.210  0.00  0.00    +0.000 C 
BRANCH  70  71
ATOM     71  C   UNL     1      11.328   6.103  25.041  0.00  0.00    +0.000 C 
BRANCH  71  72
ATOM     72  C   UNL     1      11.478   6.744  23.672  0.00  0.00    -0.000 C 
BRANCH  72  73
ATOM     73  C   UNL     1      12.762   6.274  23.009  0.00  0.00    -0.000 C 
BRANCH  73  74
ATOM     74  C   UNL     1      12.824   4.755  23.016  0.00  0.00    -0.000 C 
BRANCH  74  75
ATOM     75  C   UNL     1      11.782   4.188  23.966  0.00  0.00    -0.000 C 
BRANCH  75  76
ATOM     76  C   UNL     1      10.912   3.171  23.245  0.00  0.00    -0.000 C 
BRANCH  76  77
ATOM     77  C   UNL     1      10.641   1.974  24.145  0.00  0.00    -0.000 C 
BRANCH  77  78
ATOM     78  C   UNL     1      10.005   0.843  23.348  0.00  0.00    -0.000 C 
BRANCH  78  79
ATOM     79  C   UNL     1      11.038  -0.229  23.018  0.00  0.00    -0.000 C 
BRANCH  79  80
ATOM     80  C   UNL     1      10.353  -1.512  22.559  0.00  0.00    -0.000 C 
BRANCH  80  81
ATOM     81  C   UNL     1       9.053  -1.204  21.822  0.00  0.00    -0.003 C 
ATOM     82  C   UNL     1       9.318  -0.880  20.362  0.00  0.00    +0.004 C 
ENDBRANCH  80  81
ENDBRANCH  79  80
ENDBRANCH  78  79
ENDBRANCH  77  78
ENDBRANCH  76  77
ENDBRANCH  75  76
ENDBRANCH  74  75
ENDBRANCH  73  74
ENDBRANCH  72  73
ENDBRANCH  71  72
ENDBRANCH  70  71
ENDBRANCH  69  70
ENDBRANCH  68  69
ENDBRANCH  67  68
ENDBRANCH  66  67
ENDBRANCH  64  66
ENDBRANCH  63  64
ENDBRANCH  62  63
BRANCH  62  83
ATOM     83  C   UNL     1       5.692   5.133  29.464  0.00  0.00    +0.279 C 
BRANCH  83  84
ATOM     84  O   UNL     1       4.391   5.734  29.543  0.00  0.00    -0.461 OA
BRANCH  84  85
ATOM     85  C   UNL     1       3.366   4.868  29.317  0.00  0.00    +0.307 C 
ATOM     86  O   UNL     1       3.443   3.873  28.610  0.00  0.00    -0.251 OA
BRANCH  85  87
ATOM     87  C   UNL     1       2.135   5.299  30.068  0.00  0.00    +0.120 C 
BRANCH  87  88
ATOM     88  C   UNL     1       1.140   5.924  29.100  0.00  0.00    +0.011 C 
BRANCH  88  89
ATOM     89  C   UNL     1       0.910   5.048  27.876  0.00  0.00    +0.001 C 
BRANCH  89  90
ATOM     90  C   UNL     1       1.100   3.583  28.251  0.00  0.00    +0.000 C 
BRANCH  90  91
ATOM     91  C   UNL     1       0.449   2.661  27.231  0.00  0.00    +0.000 C 
BRANCH  91  92
ATOM     92  C   UNL     1       1.414   2.394  26.083  0.00  0.00    +0.000 C 
BRANCH  92  93
ATOM     93  C   UNL     1       1.433   3.566  25.113  0.00  0.00    -0.000 C 
BRANCH  93  94
ATOM     94  C   UNL     1       2.080   3.155  23.799  0.00  0.00    -0.000 C 
BRANCH  94  95
ATOM     95  C   UNL     1       2.468   4.384  22.992  0.00  0.00    -0.000 C 
BRANCH  95  96
ATOM     96  C   UNL     1       1.503   5.528  23.267  0.00  0.00    -0.000 C 
BRANCH  96  97
ATOM     97  C   UNL     1       2.258   6.845  23.385  0.00  0.00    -0.000 C 
BRANCH  97  98
ATOM     98  C   UNL     1       3.179   7.042  22.189  0.00  0.00    -0.000 C 
BRANCH  98  99
ATOM     99  C   UNL     1       2.625   6.324  20.964  0.00  0.00    -0.000 C 
BRANCH  99 100
ATOM    100  C   UNL     1       2.939   7.103  19.692  0.00  0.00    -0.000 C 
BRANCH 100 101
ATOM    101  C   UNL     1       2.350   6.402  18.472  0.00  0.00    -0.000 C 
BRANCH 101 103
ATOM    102  C   UNL     1       2.209   4.526  20.133  0.00  0.00    +0.004 C 
ATOM    103  C   UNL     1       1.612   5.130  18.874  0.00  0.00    -0.003 C 
ENDBRANCH 101 103
ENDBRANCH 100 101
ENDBRANCH  99 100
ENDBRANCH  98  99
ENDBRANCH  97  98
ENDBRANCH  96  97
ENDBRANCH  95  96
ENDBRANCH  94  95
ENDBRANCH  93  94
ENDBRANCH  92  93
ENDBRANCH  91  92
ENDBRANCH  90  91
ENDBRANCH  89  90
ENDBRANCH  88  89
ENDBRANCH  87  88
ENDBRANCH  85  87
ENDBRANCH  84  85
ENDBRANCH  83  84
ENDBRANCH  62  83
ENDBRANCH  61  62
ENDBRANCH  60  61
ENDBRANCH  56  60
ENDBRANCH  55  56
ENDBRANCH  54  55
ENDBRANCH   1  54
TORSDOF 89
ENDMDL
MODEL 5
REMARK VINA RESULT:       1.7      2.830      8.544
REMARK  Name = 
REMARK  93 active torsions:
REMARK  status: ('A' for Active; 'I' for Inactive)
REMARK    1  A    between atoms: C_1  and  C_2
REMARK    2  A    between atoms: C_2  and  C_3
REMARK    3  A    between atoms: C_3  and  C_4
REMARK    4  A    between atoms: C_4  and  C_5
REMARK    5  A    between atoms: C_5  and  C_6
REMARK    6  A    between atoms: C_6  and  C_7
REMARK    7  A    between atoms: C_7  and  C_8
REMARK    8  A    between atoms: C_8  and  C_9
REMARK    9  A    between atoms: C_9  and  C_10
REMARK   10  A    between atoms: C_10  and  C_11
REMARK   11  A    between atoms: C_11  and  C_12
REMARK   12  A    between atoms: C_12  and  C_13
REMARK   13  A    between atoms: C_13  and  C_14
REMARK   14  A    between atoms: C_14  and  C_15
REMARK   15  A    between atoms: C_15  and  C_16
REMARK   16  A    between atoms: C_16  and  C_17
REMARK   17  A    between atoms: C_17  and  C_18
REMARK   18  A    between atoms: C_18  and  O_20
REMARK   19  A    between atoms: O_20  and  C_21
REMARK   20  A    between atoms: C_21  and  C_22
REMARK   21  A    between atoms: C_22  and  C_24
REMARK   22  A    between atoms: C_22  and  O_83
REMARK   23  A    between atoms: C_24  and  O_25
REMARK   24  A    between atoms: O_25  and  P_26
REMARK   25  A    between atoms: P_26  and  O_27
REMARK   26  A    between atoms: P_26  and  O_29
REMARK   27  A    between atoms: O_29  and  C_30
REMARK   28  A    between atoms: C_30  and  C_31
REMARK   29  A    between atoms: C_31  and  O_32
REMARK   30  A    between atoms: C_31  and  C_33
REMARK   31  A    between atoms: C_33  and  O_34
REMARK   32  A    between atoms: O_34  and  P_35
REMARK   33  A    between atoms: P_35  and  O_36
REMARK   34  A    between atoms: P_35  and  O_38
REMARK   35  A    between atoms: O_38  and  C_39
REMARK   36  A    between atoms: C_39  and  C_40
REMARK   37  A    between atoms: C_40  and  C_42
REMARK   38  A    between atoms: C_40  and  O_63
REMARK   39  A    between atoms: C_42  and  O_43
REMARK   40  A    between atoms: O_43  and  C_44
REMARK   41  A    between atoms: C_44  and  C_46
REMARK   42  A    between atoms: C_46  and  C_47
REMARK   43  A    between atoms: C_47  and  C_48
REMARK   44  A    between atoms: C_48  and  C_49
REMARK   45  A    between atoms: C_49  and  C_50
REMARK   46  A    between atoms: C_50  and  C_51
REMARK   47  A    between atoms: C_51  and  C_52
REMARK   48  A    between atoms: C_52  and  C_53
REMARK   49  A    between atoms: C_53  and  C_54
REMARK   50  A    between atoms: C_54  and  C_55
REMARK   51  A    between atoms: C_55  and  C_56
REMARK   52  A    between atoms: C_56  and  C_57
REMARK   53  A    between atoms: C_57  and  C_58
REMARK   54  A    between atoms: C_58  and  C_59
REMARK   55  A    between atoms: C_59  and  C_60
REMARK   56  A    between atoms: C_60  and  C_61
REMARK   57  A    between atoms: C_61  and  C_62
REMARK   58  A    between atoms: O_63  and  C_64
REMARK   59  A    between atoms: C_64  and  C_66
REMARK   60  A    between atoms: C_66  and  C_67
REMARK   61  A    between atoms: C_67  and  C_68
REMARK   62  A    between atoms: C_68  and  C_69
REMARK   63  A    between atoms: C_69  and  C_70
REMARK   64  A    between atoms: C_70  and  C_71
REMARK   65  A    between atoms: C_71  and  C_72
REMARK   66  A    between atoms: C_72  and  C_73
REMARK   67  A    between atoms: C_73  and  C_74
REMARK   68  A    between atoms: C_74  and  C_75
REMARK   69  A    between atoms: C_75  and  C_76
REMARK   70  A    between atoms: C_76  and  C_77
REMARK   71  A    between atoms: C_77  and  C_78
REMARK   72  A    between atoms: C_78  and  C_79
REMARK   73  A    between atoms: C_79  and  C_80
REMARK   74  A    between atoms: C_80  and  C_81
REMARK   75  A    between atoms: C_81  and  C_82
REMARK   76  A    between atoms: O_83  and  C_84
REMARK   77  A    between atoms: C_84  and  C_86
REMARK   78  A    between atoms: C_86  and  C_87
REMARK   79  A    between atoms: C_87  and  C_88
REMARK   80  A    between atoms: C_88  and  C_89
REMARK   81  A    between atoms: C_89  and  C_90
REMARK   82  A    between atoms: C_90  and  C_91
REMARK   83  A    between atoms: C_91  and  C_92
REMARK   84  A    between atoms: C_92  and  C_93
REMARK   85  A    between atoms: C_93  and  C_94
REMARK   86  A    between atoms: C_94  and  C_95
REMARK   87  A    between atoms: C_95  and  C_96
REMARK   88  A    between atoms: C_96  and  C_97
REMARK   89  A    between atoms: C_97  and  C_98
REMARK   90  A    between atoms: C_98  and  C_99
REMARK   91  A    between atoms: C_99  and  C_100
REMARK   92  A    between atoms: C_100  and  C_101
REMARK   93  A    between atoms: C_101  and  C_102
REMARK                            x       y       z     vdW  Elec       q    Type
REMARK                         _______ _______ _______ _____ _____    ______ ____
ROOT
ATOM      1  C   UNL     1       1.374  -3.543  26.597  0.00  0.00    +0.167 C 
ENDROOT
BRANCH   1   2
ATOM      2  O   UNL     1       2.730  -3.657  26.160  0.00  0.00    -0.387 OA
ATOM      3  H   UNL     1       3.231  -4.211  26.778  0.00  0.00    +0.210 HD
ENDBRANCH   1   2
BRANCH   1   4
ATOM      4  C   UNL     1       0.788  -2.163  26.222  0.00  0.00    +0.206 C 
BRANCH   4   5
ATOM      5  O   UNL     1       0.884  -1.126  27.172  0.00  0.00    -0.284 OA
BRANCH   5   6
ATOM      6  P   UNL     1       0.450   0.426  26.906  0.00  0.00    +0.475 P 
ATOM      7  O   UNL     1       1.715   1.239  26.643  0.00  0.00    -0.227 OA
BRANCH   6   8
ATOM      8  O   UNL     1       0.443   0.045  25.218  0.00  0.00    -0.302 OA
ATOM      9  H   UNL     1       0.711  -0.899  25.214  0.00  0.00    +0.222 HD
ENDBRANCH   6   8
BRANCH   6  10
ATOM     10  O   UNL     1       0.456   0.807  28.593  0.00  0.00    -0.283 OA
BRANCH  10  11
ATOM     11  C   UNL     1       0.655   2.081  29.173  0.00  0.00    +0.220 C 
BRANCH  11  12
ATOM     12  C   UNL     1       2.094   2.568  29.385  0.00  0.00    +0.240 C 
BRANCH  12  13
ATOM     13  O   UNL     1       2.845   1.419  29.843  0.00  0.00    -0.456 OA
BRANCH  13  14
ATOM     14  C   UNL     1       4.196   1.495  29.838  0.00  0.00    +0.308 C 
ATOM     15  O   UNL     1       4.961   0.678  30.323  0.00  0.00    -0.251 OA
BRANCH  14  16
ATOM     16  C   UNL     1       4.639   2.745  29.134  0.00  0.00    +0.120 C 
BRANCH  16  17
ATOM     17  C   UNL     1       6.018   3.169  29.626  0.00  0.00    +0.011 C 
BRANCH  17  18
ATOM     18  C   UNL     1       6.376   4.573  29.153  0.00  0.00    +0.001 C 
BRANCH  18  19
ATOM     19  C   UNL     1       6.176   4.697  27.640  0.00  0.00    +0.000 C 
BRANCH  19  20
ATOM     20  C   UNL     1       6.798   5.964  27.057  0.00  0.00    +0.000 C 
BRANCH  20  21
ATOM     21  C   UNL     1       7.959   5.653  26.118  0.00  0.00    +0.000 C 
BRANCH  21  22
ATOM     22  C   UNL     1       7.500   4.839  24.919  0.00  0.00    -0.000 C 
BRANCH  22  23
ATOM     23  C   UNL     1       6.320   3.964  25.320  0.00  0.00    -0.000 C 
BRANCH  23  24
ATOM     24  C   UNL     1       6.712   2.495  25.315  0.00  0.00    -0.000 C 
BRANCH  24  25
ATOM     25  C   UNL     1       5.852   1.728  24.322  0.00  0.00    -0.000 C 
BRANCH  25  26
ATOM     26  C   UNL     1       6.510   0.405  23.964  0.00  0.00    -0.000 C 
BRANCH  26  27
ATOM     27  C   UNL     1       5.465  -0.698  23.866  0.00  0.00    -0.000 C 
BRANCH  27  28
ATOM     28  C   UNL     1       5.774  -1.621  22.695  0.00  0.00    -0.000 C 
BRANCH  28  29
ATOM     29  C   UNL     1       7.103  -2.335  22.907  0.00  0.00    -0.000 C 
BRANCH  29  30
ATOM     30  C   UNL     1       7.308  -3.414  21.850  0.00  0.00    -0.000 C 
BRANCH  30  31
ATOM     31  C   UNL     1       6.628  -4.717  22.259  0.00  0.00    -0.003 C 
ATOM     32  C   UNL     1       6.517  -5.667  21.079  0.00  0.00    +0.004 C 
ENDBRANCH  30  31
ENDBRANCH  29  30
ENDBRANCH  28  29
ENDBRANCH  27  28
ENDBRANCH  26  27
ENDBRANCH  25  26
ENDBRANCH  24  25
ENDBRANCH  23  24
ENDBRANCH  22  23
ENDBRANCH  21  22
ENDBRANCH  20  21
ENDBRANCH  19  20
ENDBRANCH  18  19
ENDBRANCH  17  18
ENDBRANCH  16  17
ENDBRANCH  14  16
ENDBRANCH  13  14
ENDBRANCH  12  13
BRANCH  12  33
ATOM     33  C   UNL     1       2.233   3.624  30.484  0.00  0.00    +0.279 C 
BRANCH  33  34
ATOM     34  O   UNL     1       1.162   4.567  30.461  0.00  0.00    -0.461 OA
BRANCH  34  35
ATOM     35  C   UNL     1       1.454   5.738  29.837  0.00  0.00    +0.307 C 
ATOM     36  O   UNL     1       0.648   6.487  29.313  0.00  0.00    -0.251 OA
BRANCH  35  37
ATOM     37  C   UNL     1       2.928   5.971  29.875  0.00  0.00    +0.120 C 
BRANCH  37  38
ATOM     38  C   UNL     1       3.290   6.867  28.713  0.00  0.00    +0.011 C 
BRANCH  38  39
ATOM     39  C   UNL     1       2.482   6.491  27.485  0.00  0.00    +0.001 C 
BRANCH  39  40
ATOM     40  C   UNL     1       3.314   6.738  26.239  0.00  0.00    +0.000 C 
BRANCH  40  41
ATOM     41  C   UNL     1       2.414   6.972  25.040  0.00  0.00    +0.000 C 
BRANCH  41  42
ATOM     42  C   UNL     1       2.733   5.960  23.952  0.00  0.00    +0.000 C 
BRANCH  42  43
ATOM     43  C   UNL     1       2.784   4.560  24.538  0.00  0.00    -0.000 C 
BRANCH  43  44
ATOM     44  C   UNL     1       1.375   4.028  24.745  0.00  0.00    -0.000 C 
BRANCH  44  45
ATOM     45  C   UNL     1       0.533   4.281  23.505  0.00  0.00    -0.000 C 
BRANCH  45  46
ATOM     46  C   UNL     1       0.625   3.099  22.553  0.00  0.00    -0.000 C 
BRANCH  46  47
ATOM     47  C   UNL     1       1.893   3.190  21.718  0.00  0.00    -0.000 C 
BRANCH  47  48
ATOM     48  C   UNL     1       1.683   2.534  20.360  0.00  0.00    -0.000 C 
BRANCH  48  49
ATOM     49  C   UNL     1       1.441   3.589  19.289  0.00  0.00    -0.000 C 
BRANCH  49  50
ATOM     50  C   UNL     1       1.339   4.977  19.911  0.00  0.00    -0.000 C 
BRANCH  50  51
ATOM     51  C   UNL     1       0.576   5.924  18.992  0.00  0.00    -0.000 C 
BRANCH  51  52
ATOM     52  C   UNL     1       1.144   5.892  17.577  0.00  0.00    -0.003 C 
ATOM     53  C   UNL     1       0.455   4.833  16.735  0.00  0.00    +0.004 C 
ENDBRANCH  51  52
ENDBRANCH  50  51
ENDBRANCH  49  50
ENDBRANCH  48  49
ENDBRANCH  47  48
ENDBRANCH  46  47
ENDBRANCH  45  46
ENDBRANCH  44  45
ENDBRANCH  43  44
ENDBRANCH  42  43
ENDBRANCH  41  42
ENDBRANCH  40  41
ENDBRANCH  39  40
ENDBRANCH  38  39
ENDBRANCH  37  38
ENDBRANCH  35  37
ENDBRANCH  34  35
ENDBRANCH  33  34
ENDBRANCH  12  33
ENDBRANCH  11  12
ENDBRANCH  10  11
ENDBRANCH   6  10
ENDBRANCH   5   6
ENDBRANCH   4   5
ENDBRANCH   1   4
BRANCH   1  54
ATOM     54  C   UNL     1       0.451  -4.586  25.911  0.00  0.00    +0.206 C 
BRANCH  54  55
ATOM     55  O   UNL     1       1.015  -5.881  25.823  0.00  0.00    -0.284 OA
BRANCH  55  56
ATOM     56  P   UNL     1       1.879  -6.521  27.178  0.00  0.00    +0.475 P 
ATOM     57  O   UNL     1       2.497  -5.151  27.435  0.00  0.00    -0.227 OA
BRANCH  56  58
ATOM     58  O   UNL     1       0.445  -6.567  27.980  0.00  0.00    -0.302 OA
ATOM     59  H   UNL     1      -0.224  -5.961  27.623  0.00  0.00    +0.222 HD
ENDBRANCH  56  58
BRANCH  56  60
ATOM     60  O   UNL     1       2.743  -7.162  28.532  0.00  0.00    -0.283 OA
BRANCH  60  61
ATOM     61  C   UNL     1       4.076  -7.613  28.266  0.00  0.00    +0.220 C 
BRANCH  61  62
ATOM     62  C   UNL     1       5.027  -7.545  29.452  0.00  0.00    +0.240 C 
BRANCH  62  63
ATOM     63  O   UNL     1       4.690  -6.386  30.227  0.00  0.00    -0.456 OA
BRANCH  63  64
ATOM     64  C   UNL     1       5.468  -5.295  29.998  0.00  0.00    +0.308 C 
ATOM     65  O   UNL     1       6.612  -5.134  30.392  0.00  0.00    -0.251 OA
BRANCH  64  66
ATOM     66  C   UNL     1       4.754  -4.324  29.110  0.00  0.00    +0.120 C 
BRANCH  66  67
ATOM     67  C   UNL     1       5.774  -3.351  28.551  0.00  0.00    +0.011 C 
BRANCH  67  68
ATOM     68  C   UNL     1       5.123  -2.378  27.583  0.00  0.00    +0.001 C 
BRANCH  68  69
ATOM     69  C   UNL     1       4.304  -3.149  26.560  0.00  0.00    +0.000 C 
BRANCH  69  70
ATOM     70  C   UNL     1       5.181  -3.594  25.404  0.00  0.00    +0.000 C 
BRANCH  70  71
ATOM     71  C   UNL     1       4.905  -5.052  25.072  0.00  0.00    +0.000 C 
BRANCH  71  72
ATOM     72  C   UNL     1       3.738  -5.154  24.106  0.00  0.00    -0.000 C 
BRANCH  72  73
ATOM     73  C   UNL     1       3.946  -6.316  23.150  0.00  0.00    -0.000 C 
BRANCH  73  74
ATOM     74  C   UNL     1       2.754  -7.259  23.210  0.00  0.00    -0.000 C 
BRANCH  74  75
ATOM     75  C   UNL     1       1.766  -6.931  22.103  0.00  0.00    -0.000 C 
BRANCH  75  76
ATOM     76  C   UNL     1       0.443  -7.638  22.354  0.00  0.00    -0.000 C 
BRANCH  76  77
ATOM     77  C   UNL     1       0.602  -9.140  22.164  0.00  0.00    -0.000 C 
BRANCH  77  78
ATOM     78  C   UNL     1       0.571  -9.853  23.510  0.00  0.00    -0.000 C 
BRANCH  78  79
ATOM     79  C   UNL     1       1.042  -8.922  24.622  0.00  0.00    -0.000 C 
BRANCH  79  80
ATOM     80  C   UNL     1       0.455  -9.349  25.963  0.00  0.00    -0.000 C 
BRANCH  80  81
ATOM     81  C   UNL     1       1.063 -10.667  26.432  0.00  0.00    -0.003 C 
ATOM     82  C   UNL     1       1.046 -10.768  27.947  0.00  0.00    +0.004 C 
ENDBRANCH  80  81
ENDBRANCH  79  80
ENDBRANCH  78  79
ENDBRANCH  77  78
ENDBRANCH  76  77
ENDBRANCH  75  76
ENDBRANCH  74  75
ENDBRANCH  73  74
ENDBRANCH  72  73
ENDBRANCH  71  72
ENDBRANCH  70  71
ENDBRANCH  69  70
ENDBRANCH  68  69
ENDBRANCH  67  68
ENDBRANCH  66  67
ENDBRANCH  64  66
ENDBRANCH  63  64
ENDBRANCH  62  63
BRANCH  62  83
ATOM     83  C   UNL     1       6.465  -7.361  28.927  0.00  0.00    +0.279 C 
BRANCH  83  84
ATOM     84  O   UNL     1       6.535  -6.298  27.965  0.00  0.00    -0.461 OA
BRANCH  84  85
ATOM     85  C   UNL     1       7.788  -6.069  27.484  0.00  0.00    +0.307 C 
ATOM     86  O   UNL     1       8.810  -6.140  28.152  0.00  0.00    -0.251 OA
BRANCH  85  87
ATOM     87  C   UNL     1       7.737  -5.734  26.017  0.00  0.00    +0.120 C 
BRANCH  87  88
ATOM     88  C   UNL     1       8.766  -4.656  25.706  0.00  0.00    +0.011 C 
BRANCH  88  89
ATOM     89  C   UNL     1       9.268  -4.747  24.270  0.00  0.00    +0.001 C 
BRANCH  89  90
ATOM     90  C   UNL     1      10.382  -3.730  24.052  0.00  0.00    +0.000 C 
BRANCH  90  91
ATOM     91  C   UNL     1      10.228  -2.533  24.978  0.00  0.00    +0.000 C 
BRANCH  91  92
ATOM     92  C   UNL     1       9.767  -1.318  24.183  0.00  0.00    +0.000 C 
BRANCH  92  93
ATOM     93  C   UNL     1       8.981  -0.363  25.068  0.00  0.00    -0.000 C 
BRANCH  93  94
ATOM     94  C   UNL     1       9.928   0.571  25.808  0.00  0.00    -0.000 C 
BRANCH  94  95
ATOM     95  C   UNL     1      10.740   1.394  24.821  0.00  0.00    -0.000 C 
BRANCH  95  96
ATOM     96  C   UNL     1       9.843   2.377  24.082  0.00  0.00    -0.000 C 
BRANCH  96  97
ATOM     97  C   UNL     1      10.651   3.177  23.069  0.00  0.00    -0.000 C 
BRANCH  97  98
ATOM     98  C   UNL     1       9.728   3.864  22.072  0.00  0.00    -0.000 C 
BRANCH  98  99
ATOM     99  C   UNL     1       8.303   3.341  22.214  0.00  0.00    -0.000 C 
BRANCH  99 100
ATOM    100  C   UNL     1       8.017   2.264  21.174  0.00  0.00    -0.000 C 
BRANCH 100 101
ATOM    101  C   UNL     1       8.332   0.880  21.733  0.00  0.00    -0.000 C 
BRANCH 101 103
ATOM    102  C   UNL     1       9.714  -1.163  21.271  0.00  0.00    +0.004 C 
ATOM    103  C   UNL     1       8.916  -0.027  20.655  0.00  0.00    -0.003 C 
ENDBRANCH 101 103
ENDBRANCH 100 101
ENDBRANCH  99 100
ENDBRANCH  98  99
ENDBRANCH  97  98
ENDBRANCH  96  97
ENDBRANCH  95  96
ENDBRANCH  94  95
ENDBRANCH  93  94
ENDBRANCH  92  93
ENDBRANCH  91  92
ENDBRANCH  90  91
ENDBRANCH  89  90
ENDBRANCH  88  89
ENDBRANCH  87  88
ENDBRANCH  85  87
ENDBRANCH  84  85
ENDBRANCH  83  84
ENDBRANCH  62  83
ENDBRANCH  61  62
ENDBRANCH  60  61
ENDBRANCH  56  60
ENDBRANCH  55  56
ENDBRANCH  54  55
ENDBRANCH   1  54
TORSDOF 89
ENDMDL
MODEL 6
REMARK VINA RESULT:       1.8      2.915      9.100
REMARK  Name = 
REMARK  93 active torsions:
REMARK  status: ('A' for Active; 'I' for Inactive)
REMARK    1  A    between atoms: C_1  and  C_2
REMARK    2  A    between atoms: C_2  and  C_3
REMARK    3  A    between atoms: C_3  and  C_4
REMARK    4  A    between atoms: C_4  and  C_5
REMARK    5  A    between atoms: C_5  and  C_6
REMARK    6  A    between atoms: C_6  and  C_7
REMARK    7  A    between atoms: C_7  and  C_8
REMARK    8  A    between atoms: C_8  and  C_9
REMARK    9  A    between atoms: C_9  and  C_10
REMARK   10  A    between atoms: C_10  and  C_11
REMARK   11  A    between atoms: C_11  and  C_12
REMARK   12  A    between atoms: C_12  and  C_13
REMARK   13  A    between atoms: C_13  and  C_14
REMARK   14  A    between atoms: C_14  and  C_15
REMARK   15  A    between atoms: C_15  and  C_16
REMARK   16  A    between atoms: C_16  and  C_17
REMARK   17  A    between atoms: C_17  and  C_18
REMARK   18  A    between atoms: C_18  and  O_20
REMARK   19  A    between atoms: O_20  and  C_21
REMARK   20  A    between atoms: C_21  and  C_22
REMARK   21  A    between atoms: C_22  and  C_24
REMARK   22  A    between atoms: C_22  and  O_83
REMARK   23  A    between atoms: C_24  and  O_25
REMARK   24  A    between atoms: O_25  and  P_26
REMARK   25  A    between atoms: P_26  and  O_27
REMARK   26  A    between atoms: P_26  and  O_29
REMARK   27  A    between atoms: O_29  and  C_30
REMARK   28  A    between atoms: C_30  and  C_31
REMARK   29  A    between atoms: C_31  and  O_32
REMARK   30  A    between atoms: C_31  and  C_33
REMARK   31  A    between atoms: C_33  and  O_34
REMARK   32  A    between atoms: O_34  and  P_35
REMARK   33  A    between atoms: P_35  and  O_36
REMARK   34  A    between atoms: P_35  and  O_38
REMARK   35  A    between atoms: O_38  and  C_39
REMARK   36  A    between atoms: C_39  and  C_40
REMARK   37  A    between atoms: C_40  and  C_42
REMARK   38  A    between atoms: C_40  and  O_63
REMARK   39  A    between atoms: C_42  and  O_43
REMARK   40  A    between atoms: O_43  and  C_44
REMARK   41  A    between atoms: C_44  and  C_46
REMARK   42  A    between atoms: C_46  and  C_47
REMARK   43  A    between atoms: C_47  and  C_48
REMARK   44  A    between atoms: C_48  and  C_49
REMARK   45  A    between atoms: C_49  and  C_50
REMARK   46  A    between atoms: C_50  and  C_51
REMARK   47  A    between atoms: C_51  and  C_52
REMARK   48  A    between atoms: C_52  and  C_53
REMARK   49  A    between atoms: C_53  and  C_54
REMARK   50  A    between atoms: C_54  and  C_55
REMARK   51  A    between atoms: C_55  and  C_56
REMARK   52  A    between atoms: C_56  and  C_57
REMARK   53  A    between atoms: C_57  and  C_58
REMARK   54  A    between atoms: C_58  and  C_59
REMARK   55  A    between atoms: C_59  and  C_60
REMARK   56  A    between atoms: C_60  and  C_61
REMARK   57  A    between atoms: C_61  and  C_62
REMARK   58  A    between atoms: O_63  and  C_64
REMARK   59  A    between atoms: C_64  and  C_66
REMARK   60  A    between atoms: C_66  and  C_67
REMARK   61  A    between atoms: C_67  and  C_68
REMARK   62  A    between atoms: C_68  and  C_69
REMARK   63  A    between atoms: C_69  and  C_70
REMARK   64  A    between atoms: C_70  and  C_71
REMARK   65  A    between atoms: C_71  and  C_72
REMARK   66  A    between atoms: C_72  and  C_73
REMARK   67  A    between atoms: C_73  and  C_74
REMARK   68  A    between atoms: C_74  and  C_75
REMARK   69  A    between atoms: C_75  and  C_76
REMARK   70  A    between atoms: C_76  and  C_77
REMARK   71  A    between atoms: C_77  and  C_78
REMARK   72  A    between atoms: C_78  and  C_79
REMARK   73  A    between atoms: C_79  and  C_80
REMARK   74  A    between atoms: C_80  and  C_81
REMARK   75  A    between atoms: C_81  and  C_82
REMARK   76  A    between atoms: O_83  and  C_84
REMARK   77  A    between atoms: C_84  and  C_86
REMARK   78  A    between atoms: C_86  and  C_87
REMARK   79  A    between atoms: C_87  and  C_88
REMARK   80  A    between atoms: C_88  and  C_89
REMARK   81  A    between atoms: C_89  and  C_90
REMARK   82  A    between atoms: C_90  and  C_91
REMARK   83  A    between atoms: C_91  and  C_92
REMARK   84  A    between atoms: C_92  and  C_93
REMARK   85  A    between atoms: C_93  and  C_94
REMARK   86  A    between atoms: C_94  and  C_95
REMARK   87  A    between atoms: C_95  and  C_96
REMARK   88  A    between atoms: C_96  and  C_97
REMARK   89  A    between atoms: C_97  and  C_98
REMARK   90  A    between atoms: C_98  and  C_99
REMARK   91  A    between atoms: C_99  and  C_100
REMARK   92  A    between atoms: C_100  and  C_101
REMARK   93  A    between atoms: C_101  and  C_102
REMARK                            x       y       z     vdW  Elec       q    Type
REMARK                         _______ _______ _______ _____ _____    ______ ____
ROOT
ATOM      1  C   UNL     1       1.367  -3.549  26.562  0.00  0.00    +0.167 C 
ENDROOT
BRANCH   1   2
ATOM      2  O   UNL     1       2.718  -3.670  26.110  0.00  0.00    -0.387 OA
ATOM      3  H   UNL     1       3.298  -3.112  26.650  0.00  0.00    +0.210 HD
ENDBRANCH   1   2
BRANCH   1   4
ATOM      4  C   UNL     1       0.762  -2.192  26.137  0.00  0.00    +0.206 C 
BRANCH   4   5
ATOM      5  O   UNL     1       0.875  -1.111  27.033  0.00  0.00    -0.284 OA
BRANCH   5   6
ATOM      6  P   UNL     1       0.445   0.429  26.696  0.00  0.00    +0.475 P 
ATOM      7  O   UNL     1       1.713   1.227  26.402  0.00  0.00    -0.227 OA
BRANCH   6   8
ATOM      8  O   UNL     1       0.445  -0.028  25.027  0.00  0.00    -0.302 OA
ATOM      9  H   UNL     1       0.438  -1.008  25.076  0.00  0.00    +0.222 HD
ENDBRANCH   6   8
BRANCH   6  10
ATOM     10  O   UNL     1       0.446   0.886  28.364  0.00  0.00    -0.283 OA
BRANCH  10  11
ATOM     11  C   UNL     1       0.660   2.181  28.888  0.00  0.00    +0.220 C 
BRANCH  11  12
ATOM     12  C   UNL     1       2.105   2.672  29.048  0.00  0.00    +0.240 C 
BRANCH  12  13
ATOM     13  O   UNL     1       2.861   1.542  29.542  0.00  0.00    -0.456 OA
BRANCH  13  14
ATOM     14  C   UNL     1       4.198   1.685  29.696  0.00  0.00    +0.308 C 
ATOM     15  O   UNL     1       5.009   0.780  29.793  0.00  0.00    -0.251 OA
BRANCH  14  16
ATOM     16  C   UNL     1       4.560   3.142  29.723  0.00  0.00    +0.120 C 
BRANCH  16  17
ATOM     17  C   UNL     1       5.866   3.349  30.481  0.00  0.00    +0.011 C 
BRANCH  17  18
ATOM     18  C   UNL     1       6.389   4.771  30.321  0.00  0.00    +0.001 C 
BRANCH  18  19
ATOM     19  C   UNL     1       6.241   5.237  28.870  0.00  0.00    +0.000 C 
BRANCH  19  20
ATOM     20  C   UNL     1       7.083   6.470  28.550  0.00  0.00    +0.000 C 
BRANCH  20  21
ATOM     21  C   UNL     1       8.144   6.182  27.494  0.00  0.00    +0.000 C 
BRANCH  21  22
ATOM     22  C   UNL     1       7.517   5.723  26.187  0.00  0.00    -0.000 C 
BRANCH  22  23
ATOM     23  C   UNL     1       8.381   4.636  25.562  0.00  0.00    -0.000 C 
BRANCH  23  24
ATOM     24  C   UNL     1       8.389   4.759  24.047  0.00  0.00    -0.000 C 
BRANCH  24  25
ATOM     25  C   UNL     1       7.107   5.425  23.570  0.00  0.00    -0.000 C 
BRANCH  25  26
ATOM     26  C   UNL     1       7.009   5.358  22.054  0.00  0.00    -0.000 C 
BRANCH  26  27
ATOM     27  C   UNL     1       6.819   3.919  21.598  0.00  0.00    -0.000 C 
BRANCH  27  28
ATOM     28  C   UNL     1       5.653   3.275  22.337  0.00  0.00    -0.000 C 
BRANCH  28  29
ATOM     29  C   UNL     1       6.099   1.998  23.039  0.00  0.00    -0.000 C 
BRANCH  29  30
ATOM     30  C   UNL     1       6.679   2.315  24.413  0.00  0.00    -0.000 C 
BRANCH  30  31
ATOM     31  C   UNL     1       7.270   1.066  25.060  0.00  0.00    -0.003 C 
ATOM     32  C   UNL     1       6.860   0.962  26.518  0.00  0.00    +0.004 C 
ENDBRANCH  30  31
ENDBRANCH  29  30
ENDBRANCH  28  29
ENDBRANCH  27  28
ENDBRANCH  26  27
ENDBRANCH  25  26
ENDBRANCH  24  25
ENDBRANCH  23  24
ENDBRANCH  22  23
ENDBRANCH  21  22
ENDBRANCH  20  21
ENDBRANCH  19  20
ENDBRANCH  18  19
ENDBRANCH  17  18
ENDBRANCH  16  17
ENDBRANCH  14  16
ENDBRANCH  13  14
ENDBRANCH  12  13
BRANCH  12  33
ATOM     33  C   UNL     1       2.270   3.775  30.096  0.00  0.00    +0.279 C 
BRANCH  33  34
ATOM     34  O   UNL     1       1.213   4.733  30.038  0.00  0.00    -0.461 OA
BRANCH  34  35
ATOM     35  C   UNL     1       1.556   5.918  29.470  0.00  0.00    +0.307 C 
ATOM     36  O   UNL     1       0.805   6.662  28.862  0.00  0.00    -0.251 OA
BRANCH  35  37
ATOM     37  C   UNL     1       3.009   6.176  29.689  0.00  0.00    +0.120 C 
BRANCH  37  38
ATOM     38  C   UNL     1       3.489   7.108  28.600  0.00  0.00    +0.011 C 
BRANCH  38  39
ATOM     39  C   UNL     1       2.915   6.692  27.259  0.00  0.00    +0.001 C 
BRANCH  39  40
ATOM     40  C   UNL     1       4.024   6.667  26.221  0.00  0.00    +0.000 C 
BRANCH  40  41
ATOM     41  C   UNL     1       3.446   6.808  24.825  0.00  0.00    +0.000 C 
BRANCH  41  42
ATOM     42  C   UNL     1       3.899   5.643  23.962  0.00  0.00    +0.000 C 
BRANCH  42  43
ATOM     43  C   UNL     1       2.713   4.771  23.594  0.00  0.00    -0.000 C 
BRANCH  43  44
ATOM     44  C   UNL     1       1.754   5.540  22.699  0.00  0.00    -0.000 C 
BRANCH  44  45
ATOM     45  C   UNL     1       2.230   5.489  21.257  0.00  0.00    -0.000 C 
BRANCH  45  46
ATOM     46  C   UNL     1       1.094   5.847  20.312  0.00  0.00    -0.000 C 
BRANCH  46  47
ATOM     47  C   UNL     1       0.444   4.587  19.765  0.00  0.00    -0.000 C 
BRANCH  47  48
ATOM     48  C   UNL     1       0.624   4.508  18.256  0.00  0.00    -0.000 C 
BRANCH  48  49
ATOM     49  C   UNL     1       1.602   5.573  17.778  0.00  0.00    -0.000 C 
BRANCH  49  50
ATOM     50  C   UNL     1       1.039   6.324  16.577  0.00  0.00    -0.000 C 
BRANCH  50  51
ATOM     51  C   UNL     1       1.642   5.795  15.280  0.00  0.00    -0.000 C 
BRANCH  51  52
ATOM     52  C   UNL     1       1.995   6.938  14.334  0.00  0.00    -0.003 C 
ATOM     53  C   UNL     1       1.366   6.730  12.967  0.00  0.00    +0.004 C 
ENDBRANCH  51  52
ENDBRANCH  50  51
ENDBRANCH  49  50
ENDBRANCH  48  49
ENDBRANCH  47  48
ENDBRANCH  46  47
ENDBRANCH  45  46
ENDBRANCH  44  45
ENDBRANCH  43  44
ENDBRANCH  42  43
ENDBRANCH  41  42
ENDBRANCH  40  41
ENDBRANCH  39  40
ENDBRANCH  38  39
ENDBRANCH  37  38
ENDBRANCH  35  37
ENDBRANCH  34  35
ENDBRANCH  33  34
ENDBRANCH  12  33
ENDBRANCH  11  12
ENDBRANCH  10  11
ENDBRANCH   6  10
ENDBRANCH   5   6
ENDBRANCH   4   5
ENDBRANCH   1   4
BRANCH   1  54
ATOM     54  C   UNL     1       0.444  -4.629  25.936  0.00  0.00    +0.206 C 
BRANCH  54  55
ATOM     55  O   UNL     1       1.069  -5.888  25.764  0.00  0.00    -0.284 OA
BRANCH  55  56
ATOM     56  P   UNL     1       2.106  -6.495  27.009  0.00  0.00    +0.475 P 
ATOM     57  O   UNL     1       2.673  -5.095  27.223  0.00  0.00    -0.227 OA
BRANCH  56  58
ATOM     58  O   UNL     1       0.769  -6.629  27.957  0.00  0.00    -0.302 OA
ATOM     59  H   UNL     1       0.670  -5.909  28.600  0.00  0.00    +0.222 HD
ENDBRANCH  56  58
BRANCH  56  60
ATOM     60  O   UNL     1       3.142  -7.102  28.253  0.00  0.00    -0.283 OA
BRANCH  60  61
ATOM     61  C   UNL     1       4.504  -7.332  27.875  0.00  0.00    +0.220 C 
BRANCH  61  62
ATOM     62  C   UNL     1       5.498  -7.346  29.027  0.00  0.00    +0.240 C 
BRANCH  62  63
ATOM     63  O   UNL     1       5.026  -6.441  30.034  0.00  0.00    -0.456 OA
BRANCH  63  64
ATOM     64  C   UNL     1       5.608  -5.213  30.021  0.00  0.00    +0.308 C 
ATOM     65  O   UNL     1       6.701  -4.930  30.484  0.00  0.00    -0.251 OA
BRANCH  64  66
ATOM     66  C   UNL     1       4.750  -4.239  29.275  0.00  0.00    +0.120 C 
BRANCH  66  67
ATOM     67  C   UNL     1       5.618  -3.074  28.840  0.00  0.00    +0.011 C 
BRANCH  67  68
ATOM     68  C   UNL     1       4.812  -2.063  28.043  0.00  0.00    +0.001 C 
BRANCH  68  69
ATOM     69  C   UNL     1       4.085  -2.770  26.910  0.00  0.00    +0.000 C 
BRANCH  69  70
ATOM     70  C   UNL     1       4.827  -2.578  25.600  0.00  0.00    +0.000 C 
BRANCH  70  71
ATOM     71  C   UNL     1       4.994  -3.914  24.894  0.00  0.00    +0.000 C 
BRANCH  71  72
ATOM     72  C   UNL     1       3.747  -4.235  24.087  0.00  0.00    -0.000 C 
BRANCH  72  73
ATOM     73  C   UNL     1       4.128  -4.864  22.758  0.00  0.00    -0.000 C 
BRANCH  73  74
ATOM     74  C   UNL     1       3.648  -6.306  22.710  0.00  0.00    -0.000 C 
BRANCH  74  75
ATOM     75  C   UNL     1       3.355  -6.812  24.113  0.00  0.00    -0.000 C 
BRANCH  75  76
ATOM     76  C   UNL     1       2.778  -8.218  24.054  0.00  0.00    -0.000 C 
BRANCH  76  77
ATOM     77  C   UNL     1       1.267  -8.162  23.884  0.00  0.00    -0.000 C 
BRANCH  77  78
ATOM     78  C   UNL     1       0.898  -8.147  22.407  0.00  0.00    -0.000 C 
BRANCH  78  79
ATOM     79  C   UNL     1       0.848  -6.718  21.879  0.00  0.00    -0.000 C 
BRANCH  79  80
ATOM     80  C   UNL     1       0.937  -6.704  20.357  0.00  0.00    -0.000 C 
BRANCH  80  81
ATOM     81  C   UNL     1       0.445  -8.023  19.769  0.00  0.00    -0.003 C 
ATOM     82  C   UNL     1       1.224  -9.197  20.335  0.00  0.00    +0.004 C 
ENDBRANCH  80  81
ENDBRANCH  79  80
ENDBRANCH  78  79
ENDBRANCH  77  78
ENDBRANCH  76  77
ENDBRANCH  75  76
ENDBRANCH  74  75
ENDBRANCH  73  74
ENDBRANCH  72  73
ENDBRANCH  71  72
ENDBRANCH  70  71
ENDBRANCH  69  70
ENDBRANCH  68  69
ENDBRANCH  67  68
ENDBRANCH  66  67
ENDBRANCH  64  66
ENDBRANCH  63  64
ENDBRANCH  62  63
BRANCH  62  83
ATOM     83  C   UNL     1       6.856  -6.823  28.520  0.00  0.00    +0.279 C 
BRANCH  83  84
ATOM     84  O   UNL     1       6.682  -5.808  27.519  0.00  0.00    -0.461 OA
BRANCH  84  85
ATOM     85  C   UNL     1       7.596  -5.862  26.511  0.00  0.00    +0.307 C 
ATOM     86  O   UNL     1       8.790  -6.071  26.669  0.00  0.00    -0.251 OA
BRANCH  85  87
ATOM     87  C   UNL     1       6.927  -5.643  25.180  0.00  0.00    +0.120 C 
BRANCH  87  88
ATOM     88  C   UNL     1       7.837  -4.818  24.283  0.00  0.00    +0.011 C 
BRANCH  88  89
ATOM     89  C   UNL     1       7.428  -4.909  22.818  0.00  0.00    +0.001 C 
BRANCH  89  90
ATOM     90  C   UNL     1       8.459  -4.195  21.953  0.00  0.00    +0.000 C 
BRANCH  90  91
ATOM     91  C   UNL     1       9.210  -3.137  22.746  0.00  0.00    +0.000 C 
BRANCH  91  92
ATOM     92  C   UNL     1       8.886  -1.752  22.201  0.00  0.00    +0.000 C 
BRANCH  92  93
ATOM     93  C   UNL     1       8.855  -0.726  23.323  0.00  0.00    -0.000 C 
BRANCH  93  94
ATOM     94  C   UNL     1      10.127   0.109  23.312  0.00  0.00    -0.000 C 
BRANCH  94  95
ATOM     95  C   UNL     1       9.944   1.341  22.439  0.00  0.00    -0.000 C 
BRANCH  95  96
ATOM     96  C   UNL     1      10.028   2.607  23.280  0.00  0.00    -0.000 C 
BRANCH  96  97
ATOM     97  C   UNL     1      11.476   3.049  23.435  0.00  0.00    -0.000 C 
BRANCH  97  98
ATOM     98  C   UNL     1      11.650   4.485  22.961  0.00  0.00    -0.000 C 
BRANCH  98  99
ATOM     99  C   UNL     1      13.101   4.749  22.574  0.00  0.00    -0.000 C 
BRANCH  99 100
ATOM    100  C   UNL     1      13.587   6.067  23.166  0.00  0.00    -0.000 C 
BRANCH 100 101
ATOM    101  C   UNL     1      12.413   6.888  23.690  0.00  0.00    -0.000 C 
BRANCH 101 103
ATOM    102  C   UNL     1      12.121   6.851  26.182  0.00  0.00    +0.004 C 
ATOM    103  C   UNL     1      11.739   6.192  24.868  0.00  0.00    -0.003 C 
ENDBRANCH 101 103
ENDBRANCH 100 101
ENDBRANCH  99 100
ENDBRANCH  98  99
ENDBRANCH  97  98
ENDBRANCH  96  97
ENDBRANCH  95  96
ENDBRANCH  94  95
ENDBRANCH  93  94
ENDBRANCH  92  93
ENDBRANCH  91  92
ENDBRANCH  90  91
ENDBRANCH  89  90
ENDBRANCH  88  89
ENDBRANCH  87  88
ENDBRANCH  85  87
ENDBRANCH  84  85
ENDBRANCH  83  84
ENDBRANCH  62  83
ENDBRANCH  61  62
ENDBRANCH  60  61
ENDBRANCH  56  60
ENDBRANCH  55  56
ENDBRANCH  54  55
ENDBRANCH   1  54
TORSDOF 89
ENDMDL
