MODEL 1
REMARK VINA RESULT:      -8.2      0.000      0.000
REMARK  Name = 
REMARK  4 active torsions:
REMARK  status: ('A' for Active; 'I' for Inactive)
REMARK    1  A    between atoms: O_1  and  C_2
REMARK    2  A    between atoms: C_6  and  C_19
REMARK    3  A    between atoms: N_8  and  C_13
REMARK    4  A    between atoms: C_22  and  N_25
REMARK                            x       y       z     vdW  Elec       q    Type
REMARK                         _______ _______ _______ _____ _____    ______ ____
ROOT
ATOM      1  C   UNL     1      11.884   6.567  25.002  0.00  0.00    +0.117 A 
ATOM      2  C   UNL     1      10.630   7.080  25.318  0.00  0.00    +0.049 A 
ATOM      3  C   UNL     1       9.475   6.540  24.728  0.00  0.00    -0.037 A 
ATOM      4  C   UNL     1       9.584   5.455  23.835  0.00  0.00    -0.019 A 
ATOM      5  C   UNL     1       8.336   4.763  23.231  0.00  0.00    +0.134 C 
ATOM      6  N   UNL     1       7.073   5.249  23.876  0.00  0.00    -0.318 N 
ATOM      7  C   UNL     1       7.068   6.706  24.059  0.00  0.00    +0.111 C 
ATOM      8  C   UNL     1      10.877   4.996  23.488  0.00  0.00    +0.009 A 
ATOM      9  C   UNL     1       8.122   7.094  25.096  0.00  0.00    +0.054 C 
ATOM     10  C   UNL     1      12.019   5.536  24.086  0.00  0.00    +0.046 A 
ENDROOT
BRANCH   5  11
ATOM     11  C   UNL     1       8.525   3.252  23.206  0.00  0.00    -0.023 A 
ATOM     12  C   UNL     1       8.307   2.538  22.022  0.00  0.00    +0.007 A 
ATOM     13  C   UNL     1       8.392   1.142  22.008  0.00  0.00    +0.023 A 
ATOM     14  C   UNL     1       8.744   0.399  23.148  0.00  0.00    +0.030 A 
ATOM     15  C   UNL     1       9.018   1.145  24.307  0.00  0.00    +0.023 A 
ATOM     16  C   UNL     1       8.906   2.539  24.345  0.00  0.00    +0.007 A 
BRANCH  14  17
ATOM     17  N   UNL     1       8.732  -0.988  23.145  0.00  0.00    -0.327 N 
ATOM     18  C   UNL     1       8.010  -1.743  22.108  0.00  0.00    +0.124 C 
ATOM     19  C   UNL     1       7.366  -2.977  22.776  0.00  0.00    +0.074 C 
ATOM     20  N   UNL     1       8.396  -3.906  23.298  0.00  0.00    -0.296 NA
ATOM     21  C   UNL     1       7.753  -4.998  24.045  0.00  0.00    +0.085 C 
ATOM     22  C   UNL     1       6.833  -5.808  23.132  0.00  0.00    +0.015 C 
ATOM     23  C   UNL     1       5.802  -4.924  22.436  0.00  0.00    +0.003 C 
ATOM     24  C   UNL     1       9.376  -3.206  24.157  0.00  0.00    +0.103 C 
ATOM     25  C   UNL     1       6.470  -3.721  21.777  0.00  0.00    +0.020 C 
ATOM     26  C   UNL     1       9.820  -1.770  23.758  0.00  0.00    +0.120 C 
ENDBRANCH  14  17
ENDBRANCH   5  11
BRANCH   6  27
ATOM     27  C   UNL     1       6.007   4.495  24.346  0.00  0.00    +0.030 A 
ATOM     28  C   UNL     1       4.987   4.003  23.520  0.00  0.00    +0.023 A 
ATOM     29  C   UNL     1       3.978   3.139  23.974  0.00  0.00    +0.002 A 
ATOM     30  C   UNL     1       3.910   2.799  25.316  0.00  0.00    +0.000 A 
ATOM     31  C   UNL     1       4.841   3.338  26.190  0.00  0.00    +0.002 A 
ATOM     32  C   UNL     1       5.872   4.163  25.708  0.00  0.00    +0.023 A 
ENDBRANCH   6  27
BRANCH   1  33
ATOM     33  O   UNL     1      12.972   7.107  25.622  0.00  0.00    -0.507 OA
ATOM     34  H   UNL     1      13.485   7.604  24.962  0.00  0.00    +0.292 HD
ENDBRANCH   1  33
TORSDOF 4
ENDMDL
MODEL 2
REMARK VINA RESULT:      -7.4      1.577      1.776
REMARK  Name = 
REMARK  4 active torsions:
REMARK  status: ('A' for Active; 'I' for Inactive)
REMARK    1  A    between atoms: O_1  and  C_2
REMARK    2  A    between atoms: C_6  and  C_19
REMARK    3  A    between atoms: N_8  and  C_13
REMARK    4  A    between atoms: C_22  and  N_25
REMARK                            x       y       z     vdW  Elec       q    Type
REMARK                         _______ _______ _______ _____ _____    ______ ____
ROOT
ATOM      1  C   UNL     1      11.983   5.397  23.877  0.00  0.00    +0.117 A 
ATOM      2  C   UNL     1      10.835   6.163  24.055  0.00  0.00    +0.049 A 
ATOM      3  C   UNL     1       9.574   5.633  23.735  0.00  0.00    -0.037 A 
ATOM      4  C   UNL     1       9.468   4.310  23.260  0.00  0.00    -0.019 A 
ATOM      5  C   UNL     1       8.094   3.648  22.983  0.00  0.00    +0.134 C 
ATOM      6  N   UNL     1       6.965   4.498  23.481  0.00  0.00    -0.318 N 
ATOM      7  C   UNL     1       7.155   5.918  23.158  0.00  0.00    +0.111 C 
ATOM      8  C   UNL     1      10.658   3.579  23.033  0.00  0.00    +0.009 A 
ATOM      9  C   UNL     1       8.338   6.468  23.953  0.00  0.00    +0.054 C 
ATOM     10  C   UNL     1      11.907   4.113  23.360  0.00  0.00    +0.046 A 
ENDROOT
BRANCH   5  11
ATOM     11  C   UNL     1       8.094   2.202  23.464  0.00  0.00    -0.023 A 
ATOM     12  C   UNL     1       7.663   1.180  22.611  0.00  0.00    +0.007 A 
ATOM     13  C   UNL     1       7.575  -0.138  23.070  0.00  0.00    +0.023 A 
ATOM     14  C   UNL     1       7.956  -0.508  24.371  0.00  0.00    +0.030 A 
ATOM     15  C   UNL     1       8.444   0.527  25.186  0.00  0.00    +0.023 A 
ATOM     16  C   UNL     1       8.508   1.856  24.753  0.00  0.00    +0.007 A 
BRANCH  14  17
ATOM     17  N   UNL     1       7.775  -1.801  24.843  0.00  0.00    -0.327 N 
ATOM     18  C   UNL     1       7.512  -2.919  23.923  0.00  0.00    +0.124 C 
ATOM     19  C   UNL     1       6.489  -3.859  24.594  0.00  0.00    +0.074 C 
ATOM     20  N   UNL     1       7.047  -4.477  25.820  0.00  0.00    -0.296 NA
ATOM     21  C   UNL     1       6.005  -5.257  26.507  0.00  0.00    +0.085 C 
ATOM     22  C   UNL     1       5.505  -6.392  25.615  0.00  0.00    +0.015 C 
ATOM     23  C   UNL     1       5.019  -5.879  24.262  0.00  0.00    +0.003 C 
ATOM     24  C   UNL     1       7.611  -3.460  26.735  0.00  0.00    +0.103 C 
ATOM     25  C   UNL     1       6.056  -4.964  23.620  0.00  0.00    +0.020 C 
ATOM     26  C   UNL     1       8.362  -2.245  26.119  0.00  0.00    +0.120 C 
ENDBRANCH  14  17
ENDBRANCH   5  11
BRANCH   6  27
ATOM     27  C   UNL     1       5.862   4.106  24.225  0.00  0.00    +0.030 A 
ATOM     28  C   UNL     1       4.710   3.539  23.659  0.00  0.00    +0.023 A 
ATOM     29  C   UNL     1       3.649   3.030  24.423  0.00  0.00    +0.002 A 
ATOM     30  C   UNL     1       3.669   3.149  25.803  0.00  0.00    +0.000 A 
ATOM     31  C   UNL     1       4.743   3.788  26.404  0.00  0.00    +0.002 A 
ATOM     32  C   UNL     1       5.819   4.248  25.626  0.00  0.00    +0.023 A 
ENDBRANCH   6  27
BRANCH   1  33
ATOM     33  O   UNL     1      13.181   5.947  24.227  0.00  0.00    -0.507 OA
ATOM     34  H   UNL     1      13.882   5.301  24.035  0.00  0.00    +0.292 HD
ENDBRANCH   1  33
TORSDOF 4
ENDMDL
MODEL 3
REMARK VINA RESULT:      -7.1      1.397      1.925
REMARK  Name = 
REMARK  4 active torsions:
REMARK  status: ('A' for Active; 'I' for Inactive)
REMARK    1  A    between atoms: O_1  and  C_2
REMARK    2  A    between atoms: C_6  and  C_19
REMARK    3  A    between atoms: N_8  and  C_13
REMARK    4  A    between atoms: C_22  and  N_25
REMARK                            x       y       z     vdW  Elec       q    Type
REMARK                         _______ _______ _______ _____ _____    ______ ____
ROOT
ATOM      1  C   UNL     1      12.802   5.052  23.379  0.00  0.00    +0.117 A 
ATOM      2  C   UNL     1      12.030   5.955  24.103  0.00  0.00    +0.049 A 
ATOM      3  C   UNL     1      10.636   5.798  24.176  0.00  0.00    -0.037 A 
ATOM      4  C   UNL     1      10.019   4.702  23.538  0.00  0.00    -0.019 A 
ATOM      5  C   UNL     1       8.499   4.430  23.667  0.00  0.00    +0.134 C 
ATOM      6  N   UNL     1       7.867   5.324  24.690  0.00  0.00    -0.318 N 
ATOM      7  C   UNL     1       8.342   6.710  24.587  0.00  0.00    +0.111 C 
ATOM      8  C   UNL     1      10.824   3.836  22.761  0.00  0.00    +0.009 A 
ATOM      9  C   UNL     1       9.817   6.774  24.980  0.00  0.00    +0.054 C 
ATOM     10  C   UNL     1      12.210   3.998  22.700  0.00  0.00    +0.046 A 
ENDROOT
BRANCH   5  11
ATOM     11  C   UNL     1       8.237   2.940  23.841  0.00  0.00    -0.023 A 
ATOM     12  C   UNL     1       8.882   2.228  24.858  0.00  0.00    +0.007 A 
ATOM     13  C   UNL     1       8.717   0.844  24.972  0.00  0.00    +0.023 A 
ATOM     14  C   UNL     1       7.871   0.115  24.118  0.00  0.00    +0.030 A 
ATOM     15  C   UNL     1       7.187   0.864  23.145  0.00  0.00    +0.023 A 
ATOM     16  C   UNL     1       7.367   2.244  22.998  0.00  0.00    +0.007 A 
BRANCH  14  17
ATOM     17  N   UNL     1       7.790  -1.269  24.182  0.00  0.00    -0.327 N 
ATOM     18  C   UNL     1       7.814  -2.092  22.963  0.00  0.00    +0.124 C 
ATOM     19  C   UNL     1       6.832  -3.266  23.159  0.00  0.00    +0.074 C 
ATOM     20  N   UNL     1       7.276  -4.163  24.252  0.00  0.00    -0.296 NA
ATOM     21  C   UNL     1       6.252  -5.190  24.503  0.00  0.00    +0.085 C 
ATOM     22  C   UNL     1       6.042  -6.057  23.263  0.00  0.00    +0.015 C 
ATOM     23  C   UNL     1       5.702  -5.218  22.034  0.00  0.00    +0.003 C 
ATOM     24  C   UNL     1       7.560  -3.410  25.493  0.00  0.00    +0.103 C 
ATOM     25  C   UNL     1       6.697  -4.074  21.861  0.00  0.00    +0.020 C 
ATOM     26  C   UNL     1       8.231  -2.012  25.375  0.00  0.00    +0.120 C 
ENDBRANCH  14  17
ENDBRANCH   5  11
BRANCH   6  27
ATOM     27  C   UNL     1       6.983   4.976  25.702  0.00  0.00    +0.030 A 
ATOM     28  C   UNL     1       5.613   4.764  25.490  0.00  0.00    +0.023 A 
ATOM     29  C   UNL     1       4.745   4.292  26.487  0.00  0.00    +0.002 A 
ATOM     30  C   UNL     1       5.213   4.092  27.776  0.00  0.00    +0.000 A 
ATOM     31  C   UNL     1       6.540   4.380  28.057  0.00  0.00    +0.002 A 
ATOM     32  C   UNL     1       7.405   4.805  27.035  0.00  0.00    +0.023 A 
ENDBRANCH   6  27
BRANCH   1  33
ATOM     33  O   UNL     1      14.154   5.232  23.361  0.00  0.00    -0.507 OA
ATOM     34  H   UNL     1      14.447   5.434  24.265  0.00  0.00    +0.292 HD
ENDBRANCH   1  33
TORSDOF 4
ENDMDL
MODEL 4
REMARK VINA RESULT:      -7.0      1.494      1.931
REMARK  Name = 
REMARK  4 active torsions:
REMARK  status: ('A' for Active; 'I' for Inactive)
REMARK    1  A    between atoms: O_1  and  C_2
REMARK    2  A    between atoms: C_6  and  C_19
REMARK    3  A    between atoms: N_8  and  C_13
REMARK    4  A    between atoms: C_22  and  N_25
REMARK                            x       y       z     vdW  Elec       q    Type
REMARK                         _______ _______ _______ _____ _____    ______ ____
ROOT
ATOM      1  C   UNL     1      11.569   6.184  24.471  0.00  0.00    +0.117 A 
ATOM      2  C   UNL     1      10.368   6.887  24.477  0.00  0.00    +0.049 A 
ATOM      3  C   UNL     1       9.225   6.342  23.868  0.00  0.00    -0.037 A 
ATOM      4  C   UNL     1       9.287   5.065  23.275  0.00  0.00    -0.019 A 
ATOM      5  C   UNL     1       8.033   4.380  22.676  0.00  0.00    +0.134 C 
ATOM      6  N   UNL     1       6.783   5.139  23.003  0.00  0.00    -0.318 N 
ATOM      7  C   UNL     1       6.956   6.589  22.842  0.00  0.00    +0.111 C 
ATOM      8  C   UNL     1      10.537   4.402  23.233  0.00  0.00    +0.009 A 
ATOM      9  C   UNL     1       7.927   7.108  23.901  0.00  0.00    +0.054 C 
ATOM     10  C   UNL     1      11.665   4.950  23.847  0.00  0.00    +0.046 A 
ENDROOT
BRANCH   5  11
ATOM     11  C   UNL     1       8.016   2.898  23.027  0.00  0.00    -0.023 A 
ATOM     12  C   UNL     1       8.223   2.488  24.349  0.00  0.00    +0.007 A 
ATOM     13  C   UNL     1       8.297   1.128  24.668  0.00  0.00    +0.023 A 
ATOM     14  C   UNL     1       8.120   0.119  23.705  0.00  0.00    +0.030 A 
ATOM     15  C   UNL     1       7.851   0.559  22.398  0.00  0.00    +0.023 A 
ATOM     16  C   UNL     1       7.806   1.915  22.057  0.00  0.00    +0.007 A 
BRANCH  14  17
ATOM     17  N   UNL     1       8.290  -1.222  24.017  0.00  0.00    -0.327 N 
ATOM     18  C   UNL     1       7.146  -2.070  24.386  0.00  0.00    +0.124 C 
ATOM     19  C   UNL     1       7.605  -3.033  25.502  0.00  0.00    +0.074 C 
ATOM     20  N   UNL     1       8.648  -3.965  25.015  0.00  0.00    -0.296 NA
ATOM     21  C   UNL     1       9.160  -4.774  26.132  0.00  0.00    +0.085 C 
ATOM     22  C   UNL     1       8.043  -5.621  26.740  0.00  0.00    +0.015 C 
ATOM     23  C   UNL     1       6.850  -4.770  27.165  0.00  0.00    +0.003 C 
ATOM     24  C   UNL     1       9.759  -3.243  24.356  0.00  0.00    +0.103 C 
ATOM     25  C   UNL     1       6.414  -3.839  26.038  0.00  0.00    +0.020 C 
ATOM     26  C   UNL     1       9.422  -2.000  23.484  0.00  0.00    +0.120 C 
ENDBRANCH  14  17
ENDBRANCH   5  11
BRANCH   6  27
ATOM     27  C   UNL     1       5.578   4.640  23.477  0.00  0.00    +0.030 A 
ATOM     28  C   UNL     1       4.605   4.059  22.650  0.00  0.00    +0.023 A 
ATOM     29  C   UNL     1       3.444   3.445  23.144  0.00  0.00    +0.002 A 
ATOM     30  C   UNL     1       3.173   3.466  24.503  0.00  0.00    +0.000 A 
ATOM     31  C   UNL     1       4.059   4.112  25.351  0.00  0.00    +0.002 A 
ATOM     32  C   UNL     1       5.240   4.680  24.844  0.00  0.00    +0.023 A 
ENDBRANCH   6  27
BRANCH   1  33
ATOM     33  O   UNL     1      12.643   6.743  25.099  0.00  0.00    -0.507 OA
ATOM     34  H   UNL     1      12.378   7.614  25.440  0.00  0.00    +0.292 HD
ENDBRANCH   1  33
TORSDOF 4
ENDMDL
MODEL 5
REMARK VINA RESULT:      -6.9      4.070      9.159
REMARK  Name = 
REMARK  4 active torsions:
REMARK  status: ('A' for Active; 'I' for Inactive)
REMARK    1  A    between atoms: O_1  and  C_2
REMARK    2  A    between atoms: C_6  and  C_19
REMARK    3  A    between atoms: N_8  and  C_13
REMARK    4  A    between atoms: C_22  and  N_25
REMARK                            x       y       z     vdW  Elec       q    Type
REMARK                         _______ _______ _______ _____ _____    ______ ____
ROOT
ATOM      1  C   UNL     1       6.204  -5.711  21.620  0.00  0.00    +0.117 A 
ATOM      2  C   UNL     1       5.258  -6.039  22.586  0.00  0.00    +0.049 A 
ATOM      3  C   UNL     1       5.307  -5.442  23.857  0.00  0.00    -0.037 A 
ATOM      4  C   UNL     1       6.301  -4.485  24.145  0.00  0.00    -0.019 A 
ATOM      5  C   UNL     1       6.341  -3.729  25.497  0.00  0.00    +0.134 C 
ATOM      6  N   UNL     1       5.109  -3.992  26.309  0.00  0.00    -0.318 N 
ATOM      7  C   UNL     1       4.723  -5.409  26.290  0.00  0.00    +0.111 C 
ATOM      8  C   UNL     1       7.284  -4.219  23.162  0.00  0.00    +0.009 A 
ATOM      9  C   UNL     1       4.262  -5.793  24.885  0.00  0.00    +0.054 C 
ATOM     10  C   UNL     1       7.222  -4.813  21.900  0.00  0.00    +0.046 A 
ENDROOT
BRANCH   5  11
ATOM     11  C   UNL     1       6.686  -2.262  25.277  0.00  0.00    -0.023 A 
ATOM     12  C   UNL     1       5.897  -1.475  24.429  0.00  0.00    +0.007 A 
ATOM     13  C   UNL     1       6.255  -0.152  24.151  0.00  0.00    +0.023 A 
ATOM     14  C   UNL     1       7.375   0.463  24.737  0.00  0.00    +0.030 A 
ATOM     15  C   UNL     1       8.112  -0.330  25.633  0.00  0.00    +0.023 A 
ATOM     16  C   UNL     1       7.787  -1.664  25.896  0.00  0.00    +0.007 A 
BRANCH  14  17
ATOM     17  N   UNL     1       7.771   1.744  24.380  0.00  0.00    -0.327 N 
ATOM     18  C   UNL     1       8.883   1.966  23.442  0.00  0.00    +0.124 C 
ATOM     19  C   UNL     1       9.680   3.194  23.928  0.00  0.00    +0.074 C 
ATOM     20  N   UNL     1       8.860   4.427  23.869  0.00  0.00    -0.296 NA
ATOM     21  C   UNL     1       9.600   5.551  24.464  0.00  0.00    +0.085 C 
ATOM     22  C   UNL     1      10.886   5.824  23.683  0.00  0.00    +0.015 C 
ATOM     23  C   UNL     1      11.757   4.576  23.571  0.00  0.00    +0.003 C 
ATOM     24  C   UNL     1       7.560   4.251  24.554  0.00  0.00    +0.103 C 
ATOM     25  C   UNL     1      10.943   3.384  23.077  0.00  0.00    +0.020 C 
ATOM     26  C   UNL     1       6.835   2.881  24.426  0.00  0.00    +0.120 C 
ENDBRANCH  14  17
ENDBRANCH   5  11
BRANCH   6  27
ATOM     27  C   UNL     1       4.313  -3.073  26.980  0.00  0.00    +0.030 A 
ATOM     28  C   UNL     1       4.650  -2.525  28.226  0.00  0.00    +0.023 A 
ATOM     29  C   UNL     1       3.909  -1.507  28.844  0.00  0.00    +0.002 A 
ATOM     30  C   UNL     1       2.737  -1.052  28.261  0.00  0.00    +0.000 A 
ATOM     31  C   UNL     1       2.311  -1.631  27.075  0.00  0.00    +0.002 A 
ATOM     32  C   UNL     1       3.092  -2.616  26.447  0.00  0.00    +0.023 A 
ENDBRANCH   6  27
BRANCH   1  33
ATOM     33  O   UNL     1       6.098  -6.298  20.393  0.00  0.00    -0.507 OA
ATOM     34  H   UNL     1       5.627  -7.142  20.497  0.00  0.00    +0.292 HD
ENDBRANCH   1  33
TORSDOF 4
ENDMDL
MODEL 6
REMARK VINA RESULT:      -6.7      4.576      7.419
REMARK  Name = 
REMARK  4 active torsions:
REMARK  status: ('A' for Active; 'I' for Inactive)
REMARK    1  A    between atoms: O_1  and  C_2
REMARK    2  A    between atoms: C_6  and  C_19
REMARK    3  A    between atoms: N_8  and  C_13
REMARK    4  A    between atoms: C_22  and  N_25
REMARK                            x       y       z     vdW  Elec       q    Type
REMARK                         _______ _______ _______ _____ _____    ______ ____
ROOT
ATOM      1  C   UNL     1       9.099   2.823  23.377  0.00  0.00    +0.117 A 
ATOM      2  C   UNL     1       9.345   1.874  22.389  0.00  0.00    +0.049 A 
ATOM      3  C   UNL     1       9.250   0.504  22.684  0.00  0.00    -0.037 A 
ATOM      4  C   UNL     1       8.873   0.088  23.977  0.00  0.00    -0.019 A 
ATOM      5  C   UNL     1       8.661  -1.407  24.326  0.00  0.00    +0.134 C 
ATOM      6  N   UNL     1       8.696  -2.267  23.100  0.00  0.00    -0.318 N 
ATOM      7  C   UNL     1       9.784  -1.891  22.188  0.00  0.00    +0.111 C 
ATOM      8  C   UNL     1       8.689   1.075  24.974  0.00  0.00    +0.009 A 
ATOM      9  C   UNL     1       9.500  -0.511  21.597  0.00  0.00    +0.054 C 
ATOM     10  C   UNL     1       8.781   2.435  24.669  0.00  0.00    +0.046 A 
ENDROOT
BRANCH   5  11
ATOM     11  C   UNL     1       7.437  -1.577  25.218  0.00  0.00    -0.023 A 
ATOM     12  C   UNL     1       7.495  -2.416  26.336  0.00  0.00    +0.007 A 
ATOM     13  C   UNL     1       6.354  -2.648  27.110  0.00  0.00    +0.023 A 
ATOM     14  C   UNL     1       5.124  -2.023  26.842  0.00  0.00    +0.030 A 
ATOM     15  C   UNL     1       5.110  -1.137  25.752  0.00  0.00    +0.023 A 
ATOM     16  C   UNL     1       6.234  -0.919  24.948  0.00  0.00    +0.007 A 
BRANCH  14  17
ATOM     17  N   UNL     1       3.978  -2.334  27.560  0.00  0.00    -0.327 N 
ATOM     18  C   UNL     1       4.050  -3.074  28.830  0.00  0.00    +0.124 C 
ATOM     19  C   UNL     1       2.851  -4.043  28.887  0.00  0.00    +0.074 C 
ATOM     20  N   UNL     1       1.564  -3.309  28.929  0.00  0.00    -0.296 NA
ATOM     21  C   UNL     1       0.443  -4.257  28.844  0.00  0.00    +0.085 C 
ATOM     22  C   UNL     1       0.456  -5.216  30.034  0.00  0.00    +0.015 C 
ATOM     23  C   UNL     1       1.793  -5.940  30.165  0.00  0.00    +0.003 C 
ATOM     24  C   UNL     1       1.472  -2.310  27.841  0.00  0.00    +0.103 C 
ATOM     25  C   UNL     1       2.956  -4.954  30.118  0.00  0.00    +0.020 C 
ATOM     26  C   UNL     1       2.754  -1.522  27.448  0.00  0.00    +0.120 C 
ENDBRANCH  14  17
ENDBRANCH   5  11
BRANCH   6  27
ATOM     27  C   UNL     1       7.815  -3.277  22.738  0.00  0.00    +0.030 A 
ATOM     28  C   UNL     1       6.739  -3.083  21.860  0.00  0.00    +0.023 A 
ATOM     29  C   UNL     1       5.926  -4.129  21.398  0.00  0.00    +0.002 A 
ATOM     30  C   UNL     1       6.116  -5.417  21.873  0.00  0.00    +0.000 A 
ATOM     31  C   UNL     1       7.108  -5.642  22.815  0.00  0.00    +0.002 A 
ATOM     32  C   UNL     1       7.943  -4.590  23.230  0.00  0.00    +0.023 A 
ENDBRANCH   6  27
BRANCH   1  33
ATOM     33  O   UNL     1       9.179   4.141  23.035  0.00  0.00    -0.507 OA
ATOM     34  H   UNL     1       8.328   4.562  23.242  0.00  0.00    +0.292 HD
ENDBRANCH   1  33
TORSDOF 4
ENDMDL
MODEL 7
REMARK VINA RESULT:      -6.7      3.169      5.750
REMARK  Name = 
REMARK  4 active torsions:
REMARK  status: ('A' for Active; 'I' for Inactive)
REMARK    1  A    between atoms: O_1  and  C_2
REMARK    2  A    between atoms: C_6  and  C_19
REMARK    3  A    between atoms: N_8  and  C_13
REMARK    4  A    between atoms: C_22  and  N_25
REMARK                            x       y       z     vdW  Elec       q    Type
REMARK                         _______ _______ _______ _____ _____    ______ ____
ROOT
ATOM      1  C   UNL     1       4.787   4.204  26.201  0.00  0.00    +0.117 A 
ATOM      2  C   UNL     1       5.872   4.449  25.364  0.00  0.00    +0.049 A 
ATOM      3  C   UNL     1       6.898   3.498  25.238  0.00  0.00    -0.037 A 
ATOM      4  C   UNL     1       6.815   2.277  25.940  0.00  0.00    -0.019 A 
ATOM      5  C   UNL     1       7.871   1.158  25.762  0.00  0.00    +0.134 C 
ATOM      6  N   UNL     1       8.810   1.463  24.635  0.00  0.00    -0.318 N 
ATOM      7  C   UNL     1       9.245   2.866  24.639  0.00  0.00    +0.111 C 
ATOM      8  C   UNL     1       5.730   2.085  26.828  0.00  0.00    +0.009 A 
ATOM      9  C   UNL     1       8.056   3.769  24.312  0.00  0.00    +0.054 C 
ATOM     10  C   UNL     1       4.712   3.035  26.941  0.00  0.00    +0.046 A 
ENDROOT
BRANCH   5  11
ATOM     11  C   UNL     1       7.196  -0.207  25.708  0.00  0.00    -0.023 A 
ATOM     12  C   UNL     1       7.578  -1.214  26.602  0.00  0.00    +0.007 A 
ATOM     13  C   UNL     1       7.029  -2.496  26.505  0.00  0.00    +0.023 A 
ATOM     14  C   UNL     1       6.045  -2.823  25.555  0.00  0.00    +0.030 A 
ATOM     15  C   UNL     1       5.635  -1.776  24.711  0.00  0.00    +0.023 A 
ATOM     16  C   UNL     1       6.198  -0.497  24.774  0.00  0.00    +0.007 A 
BRANCH  14  17
ATOM     17  N   UNL     1       5.578  -4.121  25.408  0.00  0.00    -0.327 N 
ATOM     18  C   UNL     1       5.079  -4.611  24.114  0.00  0.00    +0.124 C 
ATOM     19  C   UNL     1       3.868  -5.528  24.385  0.00  0.00    +0.074 C 
ATOM     20  N   UNL     1       4.267  -6.739  25.139  0.00  0.00    -0.296 NA
ATOM     21  C   UNL     1       3.074  -7.522  25.499  0.00  0.00    +0.085 C 
ATOM     22  C   UNL     1       2.339  -7.991  24.244  0.00  0.00    +0.015 C 
ATOM     23  C   UNL     1       1.987  -6.827  23.322  0.00  0.00    +0.003 C 
ATOM     24  C   UNL     1       5.038  -6.395  26.355  0.00  0.00    +0.103 C 
ATOM     25  C   UNL     1       3.207  -5.947  23.065  0.00  0.00    +0.020 C 
ATOM     26  C   UNL     1       6.044  -5.211  26.283  0.00  0.00    +0.120 C 
ENDBRANCH  14  17
ENDBRANCH   5  11
BRANCH   6  27
ATOM     27  C   UNL     1       9.229   0.618  23.616  0.00  0.00    +0.030 A 
ATOM     28  C   UNL     1      10.074  -0.481  23.824  0.00  0.00    +0.023 A 
ATOM     29  C   UNL     1      10.396  -1.405  22.818  0.00  0.00    +0.002 A 
ATOM     30  C   UNL     1       9.939  -1.208  21.525  0.00  0.00    +0.000 A 
ATOM     31  C   UNL     1       9.178  -0.082  21.249  0.00  0.00    +0.002 A 
ATOM     32  C   UNL     1       8.826   0.806  22.280  0.00  0.00    +0.023 A 
ENDBRANCH   6  27
BRANCH   1  33
ATOM     33  O   UNL     1       3.804   5.146  26.268  0.00  0.00    -0.507 OA
ATOM     34  H   UNL     1       3.383   5.213  25.394  0.00  0.00    +0.292 HD
ENDBRANCH   1  33
TORSDOF 4
ENDMDL
MODEL 8
REMARK VINA RESULT:      -6.6      2.041      2.799
REMARK  Name = 
REMARK  4 active torsions:
REMARK  status: ('A' for Active; 'I' for Inactive)
REMARK    1  A    between atoms: O_1  and  C_2
REMARK    2  A    between atoms: C_6  and  C_19
REMARK    3  A    between atoms: N_8  and  C_13
REMARK    4  A    between atoms: C_22  and  N_25
REMARK                            x       y       z     vdW  Elec       q    Type
REMARK                         _______ _______ _______ _____ _____    ______ ____
ROOT
ATOM      1  C   UNL     1      12.922   5.122  23.391  0.00  0.00    +0.117 A 
ATOM      2  C   UNL     1      12.215   6.107  24.074  0.00  0.00    +0.049 A 
ATOM      3  C   UNL     1      10.815   6.038  24.167  0.00  0.00    -0.037 A 
ATOM      4  C   UNL     1      10.125   4.951  23.591  0.00  0.00    -0.019 A 
ATOM      5  C   UNL     1       8.593   4.780  23.746  0.00  0.00    +0.134 C 
ATOM      6  N   UNL     1       8.028   5.760  24.728  0.00  0.00    -0.318 N 
ATOM      7  C   UNL     1       8.585   7.108  24.550  0.00  0.00    +0.111 C 
ATOM      8  C   UNL     1      10.867   3.999  22.852  0.00  0.00    +0.009 A 
ATOM      9  C   UNL     1      10.065   7.102  24.927  0.00  0.00    +0.054 C 
ATOM     10  C   UNL     1      12.260   4.074  22.771  0.00  0.00    +0.046 A 
ENDROOT
BRANCH   5  11
ATOM     11  C   UNL     1       8.244   3.318  23.998  0.00  0.00    -0.023 A 
ATOM     12  C   UNL     1       7.198   2.716  23.290  0.00  0.00    +0.007 A 
ATOM     13  C   UNL     1       6.812   1.402  23.575  0.00  0.00    +0.023 A 
ATOM     14  C   UNL     1       7.474   0.614  24.533  0.00  0.00    +0.030 A 
ATOM     15  C   UNL     1       8.560   1.223  25.184  0.00  0.00    +0.023 A 
ATOM     16  C   UNL     1       8.938   2.547  24.933  0.00  0.00    +0.007 A 
BRANCH  14  17
ATOM     17  N   UNL     1       7.021  -0.652  24.872  0.00  0.00    -0.327 N 
ATOM     18  C   UNL     1       7.602  -1.394  26.003  0.00  0.00    +0.124 C 
ATOM     19  C   UNL     1       7.682  -2.883  25.607  0.00  0.00    +0.074 C 
ATOM     20  N   UNL     1       6.333  -3.461  25.406  0.00  0.00    -0.296 NA
ATOM     21  C   UNL     1       6.448  -4.838  24.899  0.00  0.00    +0.085 C 
ATOM     22  C   UNL     1       7.175  -5.725  25.908  0.00  0.00    +0.015 C 
ATOM     23  C   UNL     1       8.538  -5.154  26.289  0.00  0.00    +0.003 C 
ATOM     24  C   UNL     1       5.522  -2.641  24.479  0.00  0.00    +0.103 C 
ATOM     25  C   UNL     1       8.423  -3.685  26.686  0.00  0.00    +0.020 C 
ATOM     26  C   UNL     1       5.652  -1.094  24.551  0.00  0.00    +0.120 C 
ENDBRANCH  14  17
ENDBRANCH   5  11
BRANCH   6  27
ATOM     27  C   UNL     1       7.136   5.518  25.764  0.00  0.00    +0.030 A 
ATOM     28  C   UNL     1       7.533   5.326  27.095  0.00  0.00    +0.023 A 
ATOM     29  C   UNL     1       6.626   5.205  28.158  0.00  0.00    +0.002 A 
ATOM     30  C   UNL     1       5.263   5.190  27.908  0.00  0.00    +0.000 A 
ATOM     31  C   UNL     1       4.823   5.282  26.596  0.00  0.00    +0.002 A 
ATOM     32  C   UNL     1       5.746   5.451  25.549  0.00  0.00    +0.023 A 
ENDBRANCH   6  27
BRANCH   1  33
ATOM     33  O   UNL     1      14.282   5.219  23.352  0.00  0.00    -0.507 OA
ATOM     34  H   UNL     1      14.589   4.868  22.499  0.00  0.00    +0.292 HD
ENDBRANCH   1  33
TORSDOF 4
ENDMDL
MODEL 9
REMARK VINA RESULT:      -6.6      4.091      9.245
REMARK  Name = 
REMARK  4 active torsions:
REMARK  status: ('A' for Active; 'I' for Inactive)
REMARK    1  A    between atoms: O_1  and  C_2
REMARK    2  A    between atoms: C_6  and  C_19
REMARK    3  A    between atoms: N_8  and  C_13
REMARK    4  A    between atoms: C_22  and  N_25
REMARK                            x       y       z     vdW  Elec       q    Type
REMARK                         _______ _______ _______ _____ _____    ______ ____
ROOT
ATOM      1  C   UNL     1       6.174  -5.646  21.460  0.00  0.00    +0.117 A 
ATOM      2  C   UNL     1       5.164  -5.979  22.357  0.00  0.00    +0.049 A 
ATOM      3  C   UNL     1       5.212  -5.514  23.682  0.00  0.00    -0.037 A 
ATOM      4  C   UNL     1       6.273  -4.683  24.096  0.00  0.00    -0.019 A 
ATOM      5  C   UNL     1       6.323  -4.067  25.517  0.00  0.00    +0.134 C 
ATOM      6  N   UNL     1       5.041  -4.294  26.259  0.00  0.00    -0.318 N 
ATOM      7  C   UNL     1       4.534  -5.662  26.087  0.00  0.00    +0.111 C 
ATOM      8  C   UNL     1       7.315  -4.413  23.177  0.00  0.00    +0.009 A 
ATOM      9  C   UNL     1       4.100  -5.866  24.636  0.00  0.00    +0.054 C 
ATOM     10  C   UNL     1       7.254  -4.875  21.860  0.00  0.00    +0.046 A 
ENDROOT
BRANCH   5  11
ATOM     11  C   UNL     1       6.803  -2.622  25.455  0.00  0.00    -0.023 A 
ATOM     12  C   UNL     1       6.179  -1.712  24.594  0.00  0.00    +0.007 A 
ATOM     13  C   UNL     1       6.667  -0.408  24.465  0.00  0.00    +0.023 A 
ATOM     14  C   UNL     1       7.757   0.065  25.216  0.00  0.00    +0.030 A 
ATOM     15  C   UNL     1       8.324  -0.850  26.119  0.00  0.00    +0.023 A 
ATOM     16  C   UNL     1       7.869  -2.168  26.236  0.00  0.00    +0.007 A 
BRANCH  14  17
ATOM     17  N   UNL     1       8.289   1.330  25.009  0.00  0.00    -0.327 N 
ATOM     18  C   UNL     1       7.816   2.492  25.778  0.00  0.00    +0.124 C 
ATOM     19  C   UNL     1       7.780   3.709  24.831  0.00  0.00    +0.074 C 
ATOM     20  N   UNL     1       9.139   4.070  24.363  0.00  0.00    -0.296 NA
ATOM     21  C   UNL     1       9.056   5.142  23.360  0.00  0.00    +0.085 C 
ATOM     22  C   UNL     1       8.437   6.401  23.966  0.00  0.00    +0.015 C 
ATOM     23  C   UNL     1       7.076   6.118  24.596  0.00  0.00    +0.003 C 
ATOM     24  C   UNL     1       9.851   2.899  23.803  0.00  0.00    +0.103 C 
ATOM     25  C   UNL     1       7.148   4.918  25.535  0.00  0.00    +0.020 C 
ATOM     26  C   UNL     1       9.653   1.516  24.485  0.00  0.00    +0.120 C 
ENDBRANCH  14  17
ENDBRANCH   5  11
BRANCH   6  27
ATOM     27  C   UNL     1       4.301  -3.376  26.991  0.00  0.00    +0.030 A 
ATOM     28  C   UNL     1       4.568  -3.064  28.332  0.00  0.00    +0.023 A 
ATOM     29  C   UNL     1       3.900  -2.049  29.033  0.00  0.00    +0.002 A 
ATOM     30  C   UNL     1       2.866  -1.354  28.428  0.00  0.00    +0.000 A 
ATOM     31  C   UNL     1       2.501  -1.692  27.133  0.00  0.00    +0.002 A 
ATOM     32  C   UNL     1       3.213  -2.679  26.431  0.00  0.00    +0.023 A 
ENDBRANCH   6  27
BRANCH   1  33
ATOM     33  O   UNL     1       6.068  -6.100  20.178  0.00  0.00    -0.507 OA
ATOM     34  H   UNL     1       5.407  -6.812  20.159  0.00  0.00    +0.292 HD
ENDBRANCH   1  33
TORSDOF 4
ENDMDL
