MODEL 1
REMARK VINA RESULT:      -5.1      0.000      0.000
REMARK  Name = 
REMARK  6 active torsions:
REMARK  status: ('A' for Active; 'I' for Inactive)
REMARK    1  A    between atoms: C_1  and  N_2
REMARK    2  A    between atoms: C_5  and  C_6
REMARK    3  A    between atoms: C_6  and  CA_7
REMARK    4  A    between atoms: CA_7  and  N_9
REMARK    5  A    between atoms: CA_7  and  C_10
REMARK    6  A    between atoms: C_10  and  O_11
REMARK                            x       y       z     vdW  Elec       q    Type
REMARK                         _______ _______ _______ _____ _____    ______ ____
ROOT
ATOM      1  CA  UNL     1       8.699  -4.706  25.417  0.00  0.00    +0.166 C 
ENDROOT
BRANCH   1   2
ATOM      2  N   UNL     1       9.841  -5.673  25.259  0.00  0.00    -0.318 NA
ATOM      3  H1  UNL     1      10.579  -5.172  24.752  0.00  0.00    +0.119 HD
ATOM      4  H2  UNL     1      10.246  -5.815  26.192  0.00  0.00    +0.119 HD
ENDBRANCH   1   2
BRANCH   1   5
ATOM      5  C   UNL     1       7.601  -5.421  26.214  0.00  0.00    +0.322 C 
ATOM      6  OXT UNL     1       6.475  -5.662  25.811  0.00  0.00    -0.249 OA
BRANCH   5   7
ATOM      7  O   UNL     1       8.057  -5.801  27.437  0.00  0.00    -0.480 OA
ATOM      8  H   UNL     1       8.275  -4.964  27.919  0.00  0.00    +0.295 HD
ENDBRANCH   5   7
ENDBRANCH   1   5
BRANCH   1   9
ATOM      9  C   UNL     1       8.084  -4.278  24.078  0.00  0.00    +0.086 C 
BRANCH   9  13
ATOM     10  C   UNL     1       9.323  -0.250  21.377  0.00  0.00    +0.150 C 
ATOM     11  N   UNL     1       9.345  -1.375  22.278  0.00  0.00    -0.340 N 
ATOM     12  C   UNL     1       8.316  -2.245  22.493  0.00  0.00    +0.110 A 
ATOM     13  C   UNL     1       8.785  -3.133  23.439  0.00  0.00    +0.061 A 
ATOM     14  N   UNL     1      10.082  -2.824  23.775  0.00  0.00    -0.241 NA
ATOM     15  C   UNL     1      10.382  -1.751  23.078  0.00  0.00    +0.199 A 
ENDBRANCH   9  13
ENDBRANCH   1   9
TORSDOF 5
ENDMDL
MODEL 2
REMARK VINA RESULT:      -4.7      3.860      5.546
REMARK  Name = 
REMARK  6 active torsions:
REMARK  status: ('A' for Active; 'I' for Inactive)
REMARK    1  A    between atoms: C_1  and  N_2
REMARK    2  A    between atoms: C_5  and  C_6
REMARK    3  A    between atoms: C_6  and  CA_7
REMARK    4  A    between atoms: CA_7  and  N_9
REMARK    5  A    between atoms: CA_7  and  C_10
REMARK    6  A    between atoms: C_10  and  O_11
REMARK                            x       y       z     vdW  Elec       q    Type
REMARK                         _______ _______ _______ _____ _____    ______ ____
ROOT
ATOM      1  CA  UNL     1       9.281  -0.219  21.667  0.00  0.00    +0.166 C 
ENDROOT
BRANCH   1   2
ATOM      2  N   UNL     1      10.268  -1.342  21.505  0.00  0.00    -0.318 NA
ATOM      3  H1  UNL     1      10.557  -1.615  22.451  0.00  0.00    +0.119 HD
ATOM      4  H2  UNL     1       9.742  -2.159  21.171  0.00  0.00    +0.119 HD
ENDBRANCH   1   2
BRANCH   1   5
ATOM      5  C   UNL     1      10.015   0.941  22.352  0.00  0.00    +0.322 C 
ATOM      6  OXT UNL     1      10.530   0.901  23.457  0.00  0.00    -0.249 OA
BRANCH   5   7
ATOM      7  O   UNL     1      10.063   2.032  21.542  0.00  0.00    -0.480 OA
ATOM      8  H   UNL     1       9.546   1.793  20.732  0.00  0.00    +0.295 HD
ENDBRANCH   5   7
ENDBRANCH   1   5
BRANCH   1   9
ATOM      9  C   UNL     1       8.088  -0.590  22.558  0.00  0.00    +0.086 C 
BRANCH   9  13
ATOM     10  C   UNL     1       7.165  -5.502  22.827  0.00  0.00    +0.150 C 
ATOM     11  N   UNL     1       7.667  -4.172  23.061  0.00  0.00    -0.340 N 
ATOM     12  C   UNL     1       7.303  -3.050  22.375  0.00  0.00    +0.110 A 
ATOM     13  C   UNL     1       8.047  -2.030  22.930  0.00  0.00    +0.061 A 
ATOM     14  N   UNL     1       8.831  -2.516  23.949  0.00  0.00    -0.241 NA
ATOM     15  C   UNL     1       8.596  -3.809  23.990  0.00  0.00    +0.199 A 
ENDBRANCH   9  13
ENDBRANCH   1   9
TORSDOF 5
ENDMDL
MODEL 3
REMARK VINA RESULT:      -4.7      4.732      6.385
REMARK  Name = 
REMARK  6 active torsions:
REMARK  status: ('A' for Active; 'I' for Inactive)
REMARK    1  A    between atoms: C_1  and  N_2
REMARK    2  A    between atoms: C_5  and  C_6
REMARK    3  A    between atoms: C_6  and  CA_7
REMARK    4  A    between atoms: CA_7  and  N_9
REMARK    5  A    between atoms: CA_7  and  C_10
REMARK    6  A    between atoms: C_10  and  O_11
REMARK                            x       y       z     vdW  Elec       q    Type
REMARK                         _______ _______ _______ _____ _____    ______ ____
ROOT
ATOM      1  CA  UNL     1       9.926   1.946  24.127  0.00  0.00    +0.166 C 
ENDROOT
BRANCH   1   2
ATOM      2  N   UNL     1       8.518   1.727  23.644  0.00  0.00    -0.318 NA
ATOM      3  H1  UNL     1       8.302   2.508  23.014  0.00  0.00    +0.119 HD
ATOM      4  H2  UNL     1       8.540   0.914  23.016  0.00  0.00    +0.119 HD
ENDBRANCH   1   2
BRANCH   1   5
ATOM      5  C   UNL     1      10.643   2.801  23.075  0.00  0.00    +0.322 C 
ATOM      6  OXT UNL     1      11.429   3.704  23.310  0.00  0.00    -0.249 OA
BRANCH   5   7
ATOM      7  O   UNL     1      10.324   2.394  21.817  0.00  0.00    -0.480 OA
ATOM      8  H   UNL     1      10.728   3.059  21.205  0.00  0.00    +0.295 HD
ENDBRANCH   5   7
ENDBRANCH   1   5
BRANCH   1   9
ATOM      9  C   UNL     1      10.722   0.643  24.273  0.00  0.00    +0.086 C 
BRANCH   9  13
ATOM     10  C   UNL     1       8.253  -3.649  23.546  0.00  0.00    +0.150 C 
ATOM     11  N   UNL     1       8.955  -2.405  23.356  0.00  0.00    -0.340 N 
ATOM     12  C   UNL     1       9.487  -1.630  24.345  0.00  0.00    +0.110 A 
ATOM     13  C   UNL     1      10.036  -0.544  23.696  0.00  0.00    +0.061 A 
ATOM     14  N   UNL     1       9.862  -0.666  22.338  0.00  0.00    -0.241 NA
ATOM     15  C   UNL     1       9.191  -1.783  22.167  0.00  0.00    +0.199 A 
ENDBRANCH   9  13
ENDBRANCH   1   9
TORSDOF 5
ENDMDL
MODEL 4
REMARK VINA RESULT:      -4.5      7.705      9.629
REMARK  Name = 
REMARK  6 active torsions:
REMARK  status: ('A' for Active; 'I' for Inactive)
REMARK    1  A    between atoms: C_1  and  N_2
REMARK    2  A    between atoms: C_5  and  C_6
REMARK    3  A    between atoms: C_6  and  CA_7
REMARK    4  A    between atoms: CA_7  and  N_9
REMARK    5  A    between atoms: CA_7  and  C_10
REMARK    6  A    between atoms: C_10  and  O_11
REMARK                            x       y       z     vdW  Elec       q    Type
REMARK                         _______ _______ _______ _____ _____    ______ ____
ROOT
ATOM      1  CA  UNL     1      12.339   5.532  24.051  0.00  0.00    +0.166 C 
ENDROOT
BRANCH   1   2
ATOM      2  N   UNL     1      12.817   6.755  24.783  0.00  0.00    -0.318 NA
ATOM      3  H1  UNL     1      12.079   7.000  25.454  0.00  0.00    +0.119 HD
ATOM      4  H2  UNL     1      13.597   6.460  25.384  0.00  0.00    +0.119 HD
ENDBRANCH   1   2
BRANCH   1   5
ATOM      5  C   UNL     1      13.243   5.349  22.825  0.00  0.00    +0.322 C 
ATOM      6  OXT UNL     1      12.907   5.512  21.664  0.00  0.00    -0.249 OA
BRANCH   5   7
ATOM      7  O   UNL     1      14.508   5.019  23.200  0.00  0.00    -0.480 OA
ATOM      8  H   UNL     1      14.603   4.051  23.015  0.00  0.00    +0.295 HD
ENDBRANCH   5   7
ENDBRANCH   1   5
BRANCH   1   9
ATOM      9  C   UNL     1      10.899   5.662  23.537  0.00  0.00    +0.086 C 
BRANCH   9  13
ATOM     10  C   UNL     1       9.328   0.924  23.908  0.00  0.00    +0.150 C 
ATOM     11  N   UNL     1       9.392   2.363  23.861  0.00  0.00    -0.340 N 
ATOM     12  C   UNL     1      10.512   3.104  23.615  0.00  0.00    +0.110 A 
ATOM     13  C   UNL     1      10.098   4.418  23.688  0.00  0.00    +0.061 A 
ATOM     14  N   UNL     1       8.749   4.475  23.949  0.00  0.00    -0.241 NA
ATOM     15  C   UNL     1       8.358   3.227  24.069  0.00  0.00    +0.199 A 
ENDBRANCH   9  13
ENDBRANCH   1   9
TORSDOF 5
ENDMDL
MODEL 5
REMARK VINA RESULT:      -4.5      3.334      5.242
REMARK  Name = 
REMARK  6 active torsions:
REMARK  status: ('A' for Active; 'I' for Inactive)
REMARK    1  A    between atoms: C_1  and  N_2
REMARK    2  A    between atoms: C_5  and  C_6
REMARK    3  A    between atoms: C_6  and  CA_7
REMARK    4  A    between atoms: CA_7  and  N_9
REMARK    5  A    between atoms: CA_7  and  C_10
REMARK    6  A    between atoms: C_10  and  O_11
REMARK                            x       y       z     vdW  Elec       q    Type
REMARK                         _______ _______ _______ _____ _____    ______ ____
ROOT
ATOM      1  CA  UNL     1       8.502  -1.370  22.898  0.00  0.00    +0.166 C 
ENDROOT
BRANCH   1   2
ATOM      2  N   UNL     1       7.923  -2.655  22.375  0.00  0.00    -0.318 NA
ATOM      3  H1  UNL     1       8.573  -3.400  22.648  0.00  0.00    +0.119 HD
ATOM      4  H2  UNL     1       7.083  -2.855  22.932  0.00  0.00    +0.119 HD
ENDBRANCH   1   2
BRANCH   1   5
ATOM      5  C   UNL     1       9.456  -0.827  21.826  0.00  0.00    +0.322 C 
ATOM      6  OXT UNL     1       9.305   0.209  21.201  0.00  0.00    -0.249 OA
BRANCH   5   7
ATOM      7  O   UNL     1      10.539  -1.637  21.685  0.00  0.00    -0.480 OA
ATOM      8  H   UNL     1      10.601  -1.843  20.718  0.00  0.00    +0.295 HD
ENDBRANCH   5   7
ENDBRANCH   1   5
BRANCH   1   9
ATOM      9  C   UNL     1       9.321  -1.557  24.182  0.00  0.00    +0.086 C 
BRANCH   9  13
ATOM     10  C   UNL     1       7.634  -5.299  27.046  0.00  0.00    +0.150 C 
ATOM     11  N   UNL     1       8.362  -4.509  26.085  0.00  0.00    -0.340 N 
ATOM     12  C   UNL     1       8.200  -3.172  25.864  0.00  0.00    +0.110 A 
ATOM     13  C   UNL     1       9.086  -2.863  24.854  0.00  0.00    +0.061 A 
ATOM     14  N   UNL     1       9.791  -3.983  24.484  0.00  0.00    -0.241 NA
ATOM     15  C   UNL     1       9.320  -4.960  25.225  0.00  0.00    +0.199 A 
ENDBRANCH   9  13
ENDBRANCH   1   9
TORSDOF 5
ENDMDL
MODEL 6
REMARK VINA RESULT:      -4.3      4.267      5.679
REMARK  Name = 
REMARK  6 active torsions:
REMARK  status: ('A' for Active; 'I' for Inactive)
REMARK    1  A    between atoms: C_1  and  N_2
REMARK    2  A    between atoms: C_5  and  C_6
REMARK    3  A    between atoms: C_6  and  CA_7
REMARK    4  A    between atoms: CA_7  and  N_9
REMARK    5  A    between atoms: CA_7  and  C_10
REMARK    6  A    between atoms: C_10  and  O_11
REMARK                            x       y       z     vdW  Elec       q    Type
REMARK                         _______ _______ _______ _____ _____    ______ ____
ROOT
ATOM      1  CA  UNL     1       9.635  -0.358  23.448  0.00  0.00    +0.166 C 
ENDROOT
BRANCH   1   2
ATOM      2  N   UNL     1      10.391  -0.099  24.722  0.00  0.00    -0.318 NA
ATOM      3  H1  UNL     1      11.382  -0.030  24.464  0.00  0.00    +0.119 HD
ATOM      4  H2  UNL     1      10.155   0.855  25.022  0.00  0.00    +0.119 HD
ENDBRANCH   1   2
BRANCH   1   5
ATOM      5  C   UNL     1      10.124  -1.701  22.890  0.00  0.00    +0.322 C 
ATOM      6  OXT UNL     1      10.307  -2.715  23.542  0.00  0.00    -0.249 OA
BRANCH   5   7
ATOM      7  O   UNL     1      10.291  -1.636  21.542  0.00  0.00    -0.480 OA
ATOM      8  H   UNL     1      11.223  -1.920  21.368  0.00  0.00    +0.295 HD
ENDBRANCH   5   7
ENDBRANCH   1   5
BRANCH   1   9
ATOM      9  C   UNL     1       9.892   0.702  22.369  0.00  0.00    +0.086 C 
BRANCH   9  13
ATOM     10  C   UNL     1       7.529   5.033  23.214  0.00  0.00    +0.150 C 
ATOM     11  N   UNL     1       8.502   3.970  23.171  0.00  0.00    -0.340 N 
ATOM     12  C   UNL     1       8.346   2.770  22.541  0.00  0.00    +0.110 A 
ATOM     13  C   UNL     1       9.514   2.079  22.784  0.00  0.00    +0.061 A 
ATOM     14  N   UNL     1      10.375   2.852  23.528  0.00  0.00    -0.241 NA
ATOM     15  C   UNL     1       9.731   3.973  23.762  0.00  0.00    +0.199 A 
ENDBRANCH   9  13
ENDBRANCH   1   9
TORSDOF 5
ENDMDL
MODEL 7
REMARK VINA RESULT:      -4.2      3.813      5.446
REMARK  Name = 
REMARK  6 active torsions:
REMARK  status: ('A' for Active; 'I' for Inactive)
REMARK    1  A    between atoms: C_1  and  N_2
REMARK    2  A    between atoms: C_5  and  C_6
REMARK    3  A    between atoms: C_6  and  CA_7
REMARK    4  A    between atoms: CA_7  and  N_9
REMARK    5  A    between atoms: CA_7  and  C_10
REMARK    6  A    between atoms: C_10  and  O_11
REMARK                            x       y       z     vdW  Elec       q    Type
REMARK                         _______ _______ _______ _____ _____    ______ ____
ROOT
ATOM      1  CA  UNL     1       9.702   0.477  22.923  0.00  0.00    +0.166 C 
ENDROOT
BRANCH   1   2
ATOM      2  N   UNL     1       9.745   1.246  21.631  0.00  0.00    -0.318 NA
ATOM      3  H1  UNL     1      10.397   0.746  21.017  0.00  0.00    +0.119 HD
ATOM      4  H2  UNL     1       8.835   1.113  21.172  0.00  0.00    +0.119 HD
ENDBRANCH   1   2
BRANCH   1   5
ATOM      5  C   UNL     1      10.475   1.293  23.967  0.00  0.00    +0.322 C 
ATOM      6  OXT UNL     1      10.943   2.406  23.794  0.00  0.00    -0.249 OA
BRANCH   5   7
ATOM      7  O   UNL     1      10.540   0.629  25.152  0.00  0.00    -0.480 OA
ATOM      8  H   UNL     1      11.504   0.517  25.350  0.00  0.00    +0.295 HD
ENDBRANCH   5   7
ENDBRANCH   1   5
BRANCH   1   9
ATOM      9  C   UNL     1      10.378  -0.897  22.829  0.00  0.00    +0.086 C 
BRANCH   9  13
ATOM     10  C   UNL     1       6.639  -4.225  22.811  0.00  0.00    +0.150 C 
ATOM     11  N   UNL     1       7.847  -3.499  23.114  0.00  0.00    -0.340 N 
ATOM     12  C   UNL     1       8.255  -2.343  22.514  0.00  0.00    +0.110 A 
ATOM     13  C   UNL     1       9.460  -2.033  23.109  0.00  0.00    +0.061 A 
ATOM     14  N   UNL     1       9.769  -2.969  24.068  0.00  0.00    -0.241 NA
ATOM     15  C   UNL     1       8.792  -3.847  24.033  0.00  0.00    +0.199 A 
ENDBRANCH   9  13
ENDBRANCH   1   9
TORSDOF 5
ENDMDL
MODEL 8
REMARK VINA RESULT:      -4.2      4.230      5.897
REMARK  Name = 
REMARK  6 active torsions:
REMARK  status: ('A' for Active; 'I' for Inactive)
REMARK    1  A    between atoms: C_1  and  N_2
REMARK    2  A    between atoms: C_5  and  C_6
REMARK    3  A    between atoms: C_6  and  CA_7
REMARK    4  A    between atoms: CA_7  and  N_9
REMARK    5  A    between atoms: CA_7  and  C_10
REMARK    6  A    between atoms: C_10  and  O_11
REMARK                            x       y       z     vdW  Elec       q    Type
REMARK                         _______ _______ _______ _____ _____    ______ ____
ROOT
ATOM      1  CA  UNL     1       9.849   0.157  22.430  0.00  0.00    +0.166 C 
ENDROOT
BRANCH   1   2
ATOM      2  N   UNL     1       9.453   0.260  23.878  0.00  0.00    -0.318 NA
ATOM      3  H1  UNL     1       9.720  -0.629  24.316  0.00  0.00    +0.119 HD
ATOM      4  H2  UNL     1      10.087   0.940  24.315  0.00  0.00    +0.119 HD
ENDBRANCH   1   2
BRANCH   1   5
ATOM      5  C   UNL     1       9.350   1.426  21.728  0.00  0.00    +0.322 C 
ATOM      6  OXT UNL     1       8.209   1.621  21.342  0.00  0.00    -0.249 OA
BRANCH   5   7
ATOM      7  O   UNL     1      10.344   2.348  21.623  0.00  0.00    -0.480 OA
ATOM      8  H   UNL     1      10.979   1.989  20.954  0.00  0.00    +0.295 HD
ENDBRANCH   5   7
ENDBRANCH   1   5
BRANCH   1   9
ATOM      9  C   UNL     1       9.210  -1.040  21.714  0.00  0.00    +0.086 C 
BRANCH   9  13
ATOM     10  C   UNL     1       6.747  -4.351  24.546  0.00  0.00    +0.150 C 
ATOM     11  N   UNL     1       7.120  -3.187  23.782  0.00  0.00    -0.340 N 
ATOM     12  C   UNL     1       8.287  -3.026  23.093  0.00  0.00    +0.110 A 
ATOM     13  C   UNL     1       8.209  -1.764  22.541  0.00  0.00    +0.061 A 
ATOM     14  N   UNL     1       7.009  -1.178  22.868  0.00  0.00    -0.241 NA
ATOM     15  C   UNL     1       6.387  -2.048  23.631  0.00  0.00    +0.199 A 
ENDBRANCH   9  13
ENDBRANCH   1   9
TORSDOF 5
ENDMDL
MODEL 9
REMARK VINA RESULT:      -4.2      3.423      4.536
REMARK  Name = 
REMARK  6 active torsions:
REMARK  status: ('A' for Active; 'I' for Inactive)
REMARK    1  A    between atoms: C_1  and  N_2
REMARK    2  A    between atoms: C_5  and  C_6
REMARK    3  A    between atoms: C_6  and  CA_7
REMARK    4  A    between atoms: CA_7  and  N_9
REMARK    5  A    between atoms: CA_7  and  C_10
REMARK    6  A    between atoms: C_10  and  O_11
REMARK                            x       y       z     vdW  Elec       q    Type
REMARK                         _______ _______ _______ _____ _____    ______ ____
ROOT
ATOM      1  CA  UNL     1       9.416  -1.165  24.502  0.00  0.00    +0.166 C 
ENDROOT
BRANCH   1   2
ATOM      2  N   UNL     1      10.337   0.010  24.321  0.00  0.00    -0.318 NA
ATOM      3  H1  UNL     1       9.875   0.813  24.764  0.00  0.00    +0.119 HD
ATOM      4  H2  UNL     1      11.155  -0.154  24.921  0.00  0.00    +0.119 HD
ENDBRANCH   1   2
BRANCH   1   5
ATOM      5  C   UNL     1      10.028  -2.348  23.741  0.00  0.00    +0.322 C 
ATOM      6  OXT UNL     1      10.044  -3.506  24.124  0.00  0.00    -0.249 OA
BRANCH   5   7
ATOM      7  O   UNL     1      10.525  -1.949  22.540  0.00  0.00    -0.480 OA
ATOM      8  H   UNL     1      10.910  -1.049  22.690  0.00  0.00    +0.295 HD
ENDBRANCH   5   7
ENDBRANCH   1   5
BRANCH   1   9
ATOM      9  C   UNL     1       8.015  -0.928  23.922  0.00  0.00    +0.086 C 
BRANCH   9  13
ATOM     10  C   UNL     1       6.895   3.623  22.167  0.00  0.00    +0.150 C 
ATOM     11  N   UNL     1       7.438   2.300  22.339  0.00  0.00    -0.340 N 
ATOM     12  C   UNL     1       7.142   1.442  23.359  0.00  0.00    +0.110 A 
ATOM     13  C   UNL     1       7.906   0.319  23.119  0.00  0.00    +0.061 A 
ATOM     14  N   UNL     1       8.635   0.480  21.964  0.00  0.00    -0.241 NA
ATOM     15  C   UNL     1       8.349   1.687  21.531  0.00  0.00    +0.199 A 
ENDBRANCH   9  13
ENDBRANCH   1   9
TORSDOF 5
ENDMDL
