MODEL 1
REMARK VINA RESULT:      -3.4      0.000      0.000
REMARK  Name = 
REMARK  1 active torsions:
REMARK  status: ('A' for Active; 'I' for Inactive)
REMARK    1  A    between atoms: C_1  and  C_2
REMARK                            x       y       z     vdW  Elec       q    Type
REMARK                         _______ _______ _______ _____ _____    ______ ____
ROOT
ATOM      1  C   UNL     1      10.917   0.658  24.598  0.00  0.00    +0.047 C 
ATOM      2  C   UNL     1      10.307   0.937  23.279  0.00  0.00    -0.013 A 
ATOM      3  C   UNL     1       9.749   0.007  22.372  0.00  0.00    +0.137 A 
ATOM      4  N   UNL     1       9.280   0.585  21.265  0.00  0.00    -0.182 NA
ATOM      5  N   UNL     1       9.534   1.889  21.458  0.00  0.00    -0.284 N 
ATOM      6  H   UNL     1       9.260   2.545  20.734  0.00  0.00    +0.188 HD
ATOM      7  C   UNL     1      10.147   2.151  22.648  0.00  0.00    +0.108 A 
ENDROOT
TORSDOF 0
ENDMDL
MODEL 2
REMARK VINA RESULT:      -3.3      1.451      1.813
REMARK  Name = 
REMARK  1 active torsions:
REMARK  status: ('A' for Active; 'I' for Inactive)
REMARK    1  A    between atoms: C_1  and  C_2
REMARK                            x       y       z     vdW  Elec       q    Type
REMARK                         _______ _______ _______ _____ _____    ______ ____
ROOT
ATOM      1  C   UNL     1      10.773   0.785  24.396  0.00  0.00    +0.047 C 
ATOM      2  C   UNL     1      10.322   0.005  23.223  0.00  0.00    -0.013 A 
ATOM      3  C   UNL     1      10.227  -1.400  23.106  0.00  0.00    +0.137 A 
ATOM      4  N   UNL     1       9.783  -1.789  21.909  0.00  0.00    -0.182 NA
ATOM      5  N   UNL     1       9.590  -0.633  21.254  0.00  0.00    -0.284 N 
ATOM      6  H   UNL     1       9.246  -0.673  20.300  0.00  0.00    +0.188 HD
ATOM      7  C   UNL     1       9.898   0.469  21.997  0.00  0.00    +0.108 A 
ENDROOT
TORSDOF 0
ENDMDL
MODEL 3
REMARK VINA RESULT:      -3.1      7.183      7.706
REMARK  Name = 
REMARK  1 active torsions:
REMARK  status: ('A' for Active; 'I' for Inactive)
REMARK    1  A    between atoms: C_1  and  C_2
REMARK                            x       y       z     vdW  Elec       q    Type
REMARK                         _______ _______ _______ _____ _____    ______ ____
ROOT
ATOM      1  C   UNL     1       7.581  -4.546  23.275  0.00  0.00    +0.047 C 
ATOM      2  C   UNL     1       7.748  -5.032  24.662  0.00  0.00    -0.013 A 
ATOM      3  C   UNL     1       6.733  -5.318  25.603  0.00  0.00    +0.137 A 
ATOM      4  N   UNL     1       7.218  -5.740  26.772  0.00  0.00    -0.182 NA
ATOM      5  N   UNL     1       8.547  -5.729  26.584  0.00  0.00    -0.284 N 
ATOM      6  H   UNL     1       9.144  -6.019  27.352  0.00  0.00    +0.188 HD
ATOM      7  C   UNL     1       8.915  -5.313  25.338  0.00  0.00    +0.108 A 
ENDROOT
TORSDOF 0
ENDMDL
MODEL 4
REMARK VINA RESULT:      -3.0      6.787      7.410
REMARK  Name = 
REMARK  1 active torsions:
REMARK  status: ('A' for Active; 'I' for Inactive)
REMARK    1  A    between atoms: C_1  and  C_2
REMARK                            x       y       z     vdW  Elec       q    Type
REMARK                         _______ _______ _______ _____ _____    ______ ____
ROOT
ATOM      1  C   UNL     1       6.100  -5.109  25.241  0.00  0.00    +0.047 C 
ATOM      2  C   UNL     1       7.557  -5.087  25.495  0.00  0.00    -0.013 A 
ATOM      3  C   UNL     1       8.599  -5.061  24.540  0.00  0.00    +0.137 A 
ATOM      4  N   UNL     1       9.810  -5.046  25.099  0.00  0.00    -0.182 NA
ATOM      5  N   UNL     1       9.550  -5.061  26.416  0.00  0.00    -0.284 N 
ATOM      6  H   UNL     1      10.333  -5.054  27.061  0.00  0.00    +0.188 HD
ATOM      7  C   UNL     1       8.217  -5.086  26.704  0.00  0.00    +0.108 A 
ENDROOT
TORSDOF 0
ENDMDL
MODEL 5
REMARK VINA RESULT:      -3.0      2.478      2.824
REMARK  Name = 
REMARK  1 active torsions:
REMARK  status: ('A' for Active; 'I' for Inactive)
REMARK    1  A    between atoms: C_1  and  C_2
REMARK                            x       y       z     vdW  Elec       q    Type
REMARK                         _______ _______ _______ _____ _____    ______ ____
ROOT
ATOM      1  C   UNL     1       9.846   1.436  21.845  0.00  0.00    +0.047 C 
ATOM      2  C   UNL     1       9.982   0.853  23.198  0.00  0.00    -0.013 A 
ATOM      3  C   UNL     1       9.431  -0.359  23.673  0.00  0.00    +0.137 A 
ATOM      4  N   UNL     1       9.741  -0.601  24.948  0.00  0.00    -0.182 NA
ATOM      5  N   UNL     1      10.495   0.455  25.295  0.00  0.00    -0.284 N 
ATOM      6  H   UNL     1      10.858   0.497  26.242  0.00  0.00    +0.188 HD
ATOM      7  C   UNL     1      10.668   1.353  24.283  0.00  0.00    +0.108 A 
ENDROOT
TORSDOF 0
ENDMDL
MODEL 6
REMARK VINA RESULT:      -2.9      6.749      7.475
REMARK  Name = 
REMARK  1 active torsions:
REMARK  status: ('A' for Active; 'I' for Inactive)
REMARK    1  A    between atoms: C_1  and  C_2
REMARK                            x       y       z     vdW  Elec       q    Type
REMARK                         _______ _______ _______ _____ _____    ______ ____
ROOT
ATOM      1  C   UNL     1       8.043  -4.314  23.736  0.00  0.00    +0.047 C 
ATOM      2  C   UNL     1       6.976  -4.996  22.972  0.00  0.00    -0.013 A 
ATOM      3  C   UNL     1       5.582  -4.784  23.060  0.00  0.00    +0.137 A 
ATOM      4  N   UNL     1       4.888  -5.566  22.230  0.00  0.00    -0.182 NA
ATOM      5  N   UNL     1       5.836  -6.282  21.605  0.00  0.00    -0.284 N 
ATOM      6  H   UNL     1       5.545  -6.962  20.910  0.00  0.00    +0.188 HD
ATOM      7  C   UNL     1       7.101  -5.979  22.014  0.00  0.00    +0.108 A 
ENDROOT
TORSDOF 0
ENDMDL
MODEL 7
REMARK VINA RESULT:      -2.8      1.636      2.104
REMARK  Name = 
REMARK  1 active torsions:
REMARK  status: ('A' for Active; 'I' for Inactive)
REMARK    1  A    between atoms: C_1  and  C_2
REMARK                            x       y       z     vdW  Elec       q    Type
REMARK                         _______ _______ _______ _____ _____    ______ ____
ROOT
ATOM      1  C   UNL     1       8.607   3.162  24.857  0.00  0.00    +0.047 C 
ATOM      2  C   UNL     1       8.956   2.602  23.533  0.00  0.00    -0.013 A 
ATOM      3  C   UNL     1      10.083   1.818  23.198  0.00  0.00    +0.137 A 
ATOM      4  N   UNL     1      10.105   1.471  21.909  0.00  0.00    -0.182 NA
ATOM      5  N   UNL     1       8.989   2.031  21.413  0.00  0.00    -0.284 N 
ATOM      6  H   UNL     1       8.784   1.902  20.428  0.00  0.00    +0.188 HD
ATOM      7  C   UNL     1       8.268   2.718  22.344  0.00  0.00    +0.108 A 
ENDROOT
TORSDOF 0
ENDMDL
MODEL 8
REMARK VINA RESULT:      -2.8      1.616      2.226
REMARK  Name = 
REMARK  1 active torsions:
REMARK  status: ('A' for Active; 'I' for Inactive)
REMARK    1  A    between atoms: C_1  and  C_2
REMARK                            x       y       z     vdW  Elec       q    Type
REMARK                         _______ _______ _______ _____ _____    ______ ____
ROOT
ATOM      1  C   UNL     1       7.486  -0.592  23.060  0.00  0.00    +0.047 C 
ATOM      2  C   UNL     1       8.323   0.504  22.527  0.00  0.00    -0.013 A 
ATOM      3  C   UNL     1       9.731   0.617  22.576  0.00  0.00    +0.137 A 
ATOM      4  N   UNL     1      10.179   1.735  22.001  0.00  0.00    -0.182 NA
ATOM      5  N   UNL     1       9.059   2.343  21.579  0.00  0.00    -0.284 N 
ATOM      6  H   UNL     1       9.147   3.233  21.099  0.00  0.00    +0.188 HD
ATOM      7  C   UNL     1       7.923   1.647  21.869  0.00  0.00    +0.108 A 
ENDROOT
TORSDOF 0
ENDMDL
MODEL 9
REMARK VINA RESULT:      -2.8      3.610      4.125
REMARK  Name = 
REMARK  1 active torsions:
REMARK  status: ('A' for Active; 'I' for Inactive)
REMARK    1  A    between atoms: C_1  and  C_2
REMARK                            x       y       z     vdW  Elec       q    Type
REMARK                         _______ _______ _______ _____ _____    ______ ____
ROOT
ATOM      1  C   UNL     1       9.710  -0.490  21.634  0.00  0.00    +0.047 C 
ATOM      2  C   UNL     1       9.323  -1.645  22.474  0.00  0.00    -0.013 A 
ATOM      3  C   UNL     1       8.176  -2.460  22.344  0.00  0.00    +0.137 A 
ATOM      4  N   UNL     1       8.120  -3.423  23.266  0.00  0.00    -0.182 NA
ATOM      5  N   UNL     1       9.234  -3.229  23.991  0.00  0.00    -0.284 N 
ATOM      6  H   UNL     1       9.415  -3.854  24.770  0.00  0.00    +0.188 HD
ATOM      7  C   UNL     1       9.986  -2.178  23.558  0.00  0.00    +0.108 A 
ENDROOT
TORSDOF 0
ENDMDL
