MODEL 1
REMARK VINA RESULT:      -7.5      0.000      0.000
REMARK  Name = 
REMARK  6 active torsions:
REMARK  status: ('A' for Active; 'I' for Inactive)
REMARK    1  A    between atoms: O_1  and  C_2
REMARK    2  A    between atoms: C_6  and  O_7
REMARK    3  A    between atoms: C_12  and  C_14
REMARK    4  A    between atoms: C_16  and  O_17
REMARK    5  A    between atoms: C_18  and  O_19
REMARK    6  A    between atoms: C_20  and  O_21
REMARK                            x       y       z     vdW  Elec       q    Type
REMARK                         _______ _______ _______ _____ _____    ______ ____
ROOT
ATOM      1  C   UNL     1       4.004  -6.680  24.225  0.00  0.00    +0.124 A 
ATOM      2  C   UNL     1       4.089  -7.249  25.494  0.00  0.00    +0.091 A 
ATOM      3  C   UNL     1       5.056  -6.792  26.382  0.00  0.00    +0.135 A 
ATOM      4  C   UNL     1       5.931  -5.769  25.997  0.00  0.00    +0.105 A 
ATOM      5  C   UNL     1       6.965  -5.274  26.908  0.00  0.00    +0.197 A 
ATOM      6  C   UNL     1       7.832  -4.202  26.414  0.00  0.00    +0.098 A 
ATOM      7  C   UNL     1       7.640  -3.708  25.180  0.00  0.00    +0.139 A 
ATOM      8  O   UNL     1       6.672  -4.185  24.301  0.00  0.00    -0.454 OA
ATOM      9  O   UNL     1       7.096  -5.736  28.036  0.00  0.00    -0.287 OA
ATOM     10  C   UNL     1       5.840  -5.199  24.727  0.00  0.00    +0.146 A 
ATOM     11  C   UNL     1       4.869  -5.658  23.832  0.00  0.00    +0.092 A 
ENDROOT
BRANCH   7  12
ATOM     12  C   UNL     1       8.487  -2.601  24.662  0.00  0.00    +0.025 A 
ATOM     13  C   UNL     1       8.995  -2.640  23.347  0.00  0.00    +0.061 A 
ATOM     14  C   UNL     1       9.760  -1.591  22.850  0.00  0.00    +0.163 A 
ATOM     15  C   UNL     1      10.051  -0.499  23.647  0.00  0.00    +0.201 A 
ATOM     16  C   UNL     1       9.580  -0.447  24.953  0.00  0.00    +0.163 A 
ATOM     17  C   UNL     1       8.803  -1.488  25.468  0.00  0.00    +0.061 A 
BRANCH  14  18
ATOM     18  O   UNL     1      10.216  -1.649  21.566  0.00  0.00    -0.503 OA
ATOM     19  H   UNL     1       9.442  -1.933  21.038  0.00  0.00    +0.292 HD
ENDBRANCH  14  18
BRANCH  15  20
ATOM     20  O   UNL     1      10.805   0.518  23.129  0.00  0.00    -0.501 OA
ATOM     21  H   UNL     1      10.204   1.291  23.128  0.00  0.00    +0.292 HD
ENDBRANCH  15  20
BRANCH  16  22
ATOM     22  O   UNL     1       9.903   0.657  25.692  0.00  0.00    -0.503 OA
ATOM     23  H   UNL     1       9.279   1.370  25.472  0.00  0.00    +0.292 HD
ENDBRANCH  16  22
ENDBRANCH   7  12
BRANCH   1  24
ATOM     24  O   UNL     1       3.042  -7.165  23.389  0.00  0.00    -0.507 OA
ATOM     25  H   UNL     1       2.420  -6.455  23.164  0.00  0.00    +0.292 HD
ENDBRANCH   1  24
BRANCH   3  26
ATOM     26  O   UNL     1       5.095  -7.382  27.615  0.00  0.00    -0.506 OA
ATOM     27  H   UNL     1       4.884  -8.338  27.508  0.00  0.00    +0.292 HD
ENDBRANCH   3  26
TORSDOF 6
ENDMDL
MODEL 2
REMARK VINA RESULT:      -7.4      0.094      1.762
REMARK  Name = 
REMARK  6 active torsions:
REMARK  status: ('A' for Active; 'I' for Inactive)
REMARK    1  A    between atoms: O_1  and  C_2
REMARK    2  A    between atoms: C_6  and  O_7
REMARK    3  A    between atoms: C_12  and  C_14
REMARK    4  A    between atoms: C_16  and  O_17
REMARK    5  A    between atoms: C_18  and  O_19
REMARK    6  A    between atoms: C_20  and  O_21
REMARK                            x       y       z     vdW  Elec       q    Type
REMARK                         _______ _______ _______ _____ _____    ______ ____
ROOT
ATOM      1  C   UNL     1       3.965  -6.764  24.287  0.00  0.00    +0.124 A 
ATOM      2  C   UNL     1       4.060  -7.319  25.561  0.00  0.00    +0.091 A 
ATOM      3  C   UNL     1       5.030  -6.849  26.438  0.00  0.00    +0.135 A 
ATOM      4  C   UNL     1       5.898  -5.826  26.037  0.00  0.00    +0.105 A 
ATOM      5  C   UNL     1       6.935  -5.316  26.937  0.00  0.00    +0.197 A 
ATOM      6  C   UNL     1       7.794  -4.245  26.426  0.00  0.00    +0.098 A 
ATOM      7  C   UNL     1       7.592  -3.764  25.189  0.00  0.00    +0.139 A 
ATOM      8  O   UNL     1       6.620  -4.255  24.321  0.00  0.00    -0.454 OA
ATOM      9  O   UNL     1       7.075  -5.765  28.069  0.00  0.00    -0.287 OA
ATOM     10  C   UNL     1       5.796  -5.268  24.762  0.00  0.00    +0.146 A 
ATOM     11  C   UNL     1       4.822  -5.742  23.877  0.00  0.00    +0.092 A 
ENDROOT
BRANCH   7  12
ATOM     12  C   UNL     1       8.430  -2.659  24.654  0.00  0.00    +0.025 A 
ATOM     13  C   UNL     1       8.764  -1.554  25.462  0.00  0.00    +0.061 A 
ATOM     14  C   UNL     1       9.575  -0.535  24.974  0.00  0.00    +0.163 A 
ATOM     15  C   UNL     1      10.050  -0.582  23.676  0.00  0.00    +0.201 A 
ATOM     16  C   UNL     1       9.717  -1.650  22.852  0.00  0.00    +0.163 A 
ATOM     17  C   UNL     1       8.910  -2.687  23.328  0.00  0.00    +0.061 A 
BRANCH  14  18
ATOM     18  O   UNL     1       9.899   0.509  25.789  0.00  0.00    -0.503 OA
ATOM     19  H   UNL     1       9.187   1.166  25.648  0.00  0.00    +0.292 HD
ENDBRANCH  14  18
BRANCH  15  20
ATOM     20  O   UNL     1      10.845   0.434  23.223  0.00  0.00    -0.501 OA
ATOM     21  H   UNL     1      11.545  -0.016  22.706  0.00  0.00    +0.292 HD
ENDBRANCH  15  20
BRANCH  16  22
ATOM     22  O   UNL     1      10.215  -1.639  21.578  0.00  0.00    -0.503 OA
ATOM     23  H   UNL     1      11.135  -1.952  21.604  0.00  0.00    +0.292 HD
ENDBRANCH  16  22
ENDBRANCH   7  12
BRANCH   1  24
ATOM     24  O   UNL     1       3.000  -7.262  23.461  0.00  0.00    -0.507 OA
ATOM     25  H   UNL     1       2.409  -6.544  23.183  0.00  0.00    +0.292 HD
ENDBRANCH   1  24
BRANCH   3  26
ATOM     26  O   UNL     1       5.079  -7.426  27.677  0.00  0.00    -0.506 OA
ATOM     27  H   UNL     1       5.391  -6.750  28.321  0.00  0.00    +0.292 HD
ENDBRANCH   3  26
TORSDOF 6
ENDMDL
MODEL 3
REMARK VINA RESULT:      -7.2      1.791      3.297
REMARK  Name = 
REMARK  6 active torsions:
REMARK  status: ('A' for Active; 'I' for Inactive)
REMARK    1  A    between atoms: O_1  and  C_2
REMARK    2  A    between atoms: C_6  and  O_7
REMARK    3  A    between atoms: C_12  and  C_14
REMARK    4  A    between atoms: C_16  and  O_17
REMARK    5  A    between atoms: C_18  and  O_19
REMARK    6  A    between atoms: C_20  and  O_21
REMARK                            x       y       z     vdW  Elec       q    Type
REMARK                         _______ _______ _______ _____ _____    ______ ____
ROOT
ATOM      1  C   UNL     1       5.696  -5.960  25.612  0.00  0.00    +0.124 A 
ATOM      2  C   UNL     1       5.050  -6.420  24.466  0.00  0.00    +0.091 A 
ATOM      3  C   UNL     1       5.195  -5.719  23.275  0.00  0.00    +0.135 A 
ATOM      4  C   UNL     1       5.986  -4.564  23.236  0.00  0.00    +0.105 A 
ATOM      5  C   UNL     1       6.150  -3.801  21.996  0.00  0.00    +0.197 A 
ATOM      6  C   UNL     1       6.997  -2.607  22.056  0.00  0.00    +0.098 A 
ATOM      7  C   UNL     1       7.595  -2.273  23.210  0.00  0.00    +0.139 A 
ATOM      8  O   UNL     1       7.430  -2.983  24.397  0.00  0.00    -0.454 OA
ATOM      9  O   UNL     1       5.605  -4.149  20.955  0.00  0.00    -0.287 OA
ATOM     10  C   UNL     1       6.635  -4.109  24.384  0.00  0.00    +0.146 A 
ATOM     11  C   UNL     1       6.489  -4.812  25.584  0.00  0.00    +0.092 A 
ENDROOT
BRANCH   7  12
ATOM     12  C   UNL     1       8.482  -1.083  23.294  0.00  0.00    +0.025 A 
ATOM     13  C   UNL     1       8.545  -0.157  22.233  0.00  0.00    +0.061 A 
ATOM     14  C   UNL     1       9.348   0.974  22.324  0.00  0.00    +0.163 A 
ATOM     15  C   UNL     1      10.116   1.197  23.452  0.00  0.00    +0.201 A 
ATOM     16  C   UNL     1      10.088   0.289  24.503  0.00  0.00    +0.163 A 
ATOM     17  C   UNL     1       9.280  -0.850  24.433  0.00  0.00    +0.061 A 
BRANCH  14  18
ATOM     18  O   UNL     1       9.369   1.862  21.289  0.00  0.00    -0.503 OA
ATOM     19  H   UNL     1       9.372   1.307  20.483  0.00  0.00    +0.292 HD
ENDBRANCH  14  18
BRANCH  15  20
ATOM     20  O   UNL     1      10.897   2.319  23.512  0.00  0.00    -0.501 OA
ATOM     21  H   UNL     1      11.378   2.327  22.659  0.00  0.00    +0.292 HD
ENDBRANCH  15  20
BRANCH  16  22
ATOM     22  O   UNL     1      10.870   0.563  25.590  0.00  0.00    -0.503 OA
ATOM     23  H   UNL     1      11.339  -0.250  25.847  0.00  0.00    +0.292 HD
ENDBRANCH  16  22
ENDBRANCH   7  12
BRANCH   1  24
ATOM     24  O   UNL     1       5.519  -6.680  26.758  0.00  0.00    -0.507 OA
ATOM     25  H   UNL     1       4.584  -6.657  27.015  0.00  0.00    +0.292 HD
ENDBRANCH   1  24
BRANCH   3  26
ATOM     26  O   UNL     1       4.543  -6.214  22.180  0.00  0.00    -0.506 OA
ATOM     27  H   UNL     1       4.847  -7.138  22.030  0.00  0.00    +0.292 HD
ENDBRANCH   3  26
TORSDOF 6
ENDMDL
MODEL 4
REMARK VINA RESULT:      -7.2      2.767      7.690
REMARK  Name = 
REMARK  6 active torsions:
REMARK  status: ('A' for Active; 'I' for Inactive)
REMARK    1  A    between atoms: O_1  and  C_2
REMARK    2  A    between atoms: C_6  and  O_7
REMARK    3  A    between atoms: C_12  and  C_14
REMARK    4  A    between atoms: C_16  and  O_17
REMARK    5  A    between atoms: C_18  and  O_19
REMARK    6  A    between atoms: C_20  and  O_21
REMARK                            x       y       z     vdW  Elec       q    Type
REMARK                         _______ _______ _______ _____ _____    ______ ____
ROOT
ATOM      1  C   UNL     1       8.604   3.314  24.643  0.00  0.00    +0.124 A 
ATOM      2  C   UNL     1       9.125   3.380  23.353  0.00  0.00    +0.091 A 
ATOM      3  C   UNL     1       9.430   2.203  22.679  0.00  0.00    +0.135 A 
ATOM      4  C   UNL     1       9.212   0.967  23.299  0.00  0.00    +0.105 A 
ATOM      5  C   UNL     1       9.532  -0.289  22.618  0.00  0.00    +0.197 A 
ATOM      6  C   UNL     1       9.268  -1.531  23.349  0.00  0.00    +0.098 A 
ATOM      7  C   UNL     1       8.736  -1.477  24.580  0.00  0.00    +0.139 A 
ATOM      8  O   UNL     1       8.445  -0.286  25.242  0.00  0.00    -0.454 OA
ATOM      9  O   UNL     1       9.997  -0.300  21.484  0.00  0.00    -0.287 OA
ATOM     10  C   UNL     1       8.685   0.904  24.590  0.00  0.00    +0.146 A 
ATOM     11  C   UNL     1       8.380   2.088  25.269  0.00  0.00    +0.092 A 
ENDROOT
BRANCH   7  12
ATOM     12  C   UNL     1       8.432  -2.721  25.335  0.00  0.00    +0.025 A 
ATOM     13  C   UNL     1       9.186  -3.893  25.124  0.00  0.00    +0.061 A 
ATOM     14  C   UNL     1       8.924  -5.047  25.853  0.00  0.00    +0.163 A 
ATOM     15  C   UNL     1       7.903  -5.069  26.785  0.00  0.00    +0.201 A 
ATOM     16  C   UNL     1       7.132  -3.933  26.997  0.00  0.00    +0.163 A 
ATOM     17  C   UNL     1       7.385  -2.761  26.279  0.00  0.00    +0.061 A 
BRANCH  14  18
ATOM     18  O   UNL     1       9.688  -6.157  25.641  0.00  0.00    -0.503 OA
ATOM     19  H   UNL     1       9.132  -6.904  25.946  0.00  0.00    +0.292 HD
ENDBRANCH  14  18
BRANCH  15  20
ATOM     20  O   UNL     1       7.670  -6.219  27.487  0.00  0.00    -0.501 OA
ATOM     21  H   UNL     1       8.210  -6.124  28.298  0.00  0.00    +0.292 HD
ENDBRANCH  15  20
BRANCH  16  22
ATOM     22  O   UNL     1       6.135  -4.016  27.930  0.00  0.00    -0.503 OA
ATOM     23  H   UNL     1       5.380  -3.486  27.624  0.00  0.00    +0.292 HD
ENDBRANCH  16  22
ENDBRANCH   7  12
BRANCH   1  24
ATOM     24  O   UNL     1       8.325   4.496  25.263  0.00  0.00    -0.507 OA
ATOM     25  H   UNL     1       8.552   4.430  26.204  0.00  0.00    +0.292 HD
ENDBRANCH   1  24
BRANCH   3  26
ATOM     26  O   UNL     1       9.936   2.324  21.414  0.00  0.00    -0.506 OA
ATOM     27  H   UNL     1      10.081   1.421  21.051  0.00  0.00    +0.292 HD
ENDBRANCH   3  26
TORSDOF 6
ENDMDL
MODEL 5
REMARK VINA RESULT:      -7.1      3.245      4.440
REMARK  Name = 
REMARK  6 active torsions:
REMARK  status: ('A' for Active; 'I' for Inactive)
REMARK    1  A    between atoms: O_1  and  C_2
REMARK    2  A    between atoms: C_6  and  O_7
REMARK    3  A    between atoms: C_12  and  C_14
REMARK    4  A    between atoms: C_16  and  O_17
REMARK    5  A    between atoms: C_18  and  O_19
REMARK    6  A    between atoms: C_20  and  O_21
REMARK                            x       y       z     vdW  Elec       q    Type
REMARK                         _______ _______ _______ _____ _____    ______ ____
ROOT
ATOM      1  C   UNL     1       5.414  -4.554  22.811  0.00  0.00    +0.124 A 
ATOM      2  C   UNL     1       6.492  -5.318  23.250  0.00  0.00    +0.091 A 
ATOM      3  C   UNL     1       7.702  -4.693  23.527  0.00  0.00    +0.135 A 
ATOM      4  C   UNL     1       7.826  -3.308  23.367  0.00  0.00    +0.105 A 
ATOM      5  C   UNL     1       9.091  -2.623  23.643  0.00  0.00    +0.197 A 
ATOM      6  C   UNL     1       9.121  -1.172  23.445  0.00  0.00    +0.098 A 
ATOM      7  C   UNL     1       8.010  -0.532  23.047  0.00  0.00    +0.139 A 
ATOM      8  O   UNL     1       6.809  -1.178  22.764  0.00  0.00    -0.454 OA
ATOM      9  O   UNL     1      10.079  -3.238  24.027  0.00  0.00    -0.287 OA
ATOM     10  C   UNL     1       6.742  -2.544  22.932  0.00  0.00    +0.146 A 
ATOM     11  C   UNL     1       5.524  -3.172  22.650  0.00  0.00    +0.092 A 
ENDROOT
BRANCH   7  12
ATOM     12  C   UNL     1       8.003   0.943  22.863  0.00  0.00    +0.025 A 
ATOM     13  C   UNL     1       6.846   1.605  22.406  0.00  0.00    +0.061 A 
ATOM     14  C   UNL     1       6.827   2.988  22.265  0.00  0.00    +0.163 A 
ATOM     15  C   UNL     1       7.955   3.735  22.553  0.00  0.00    +0.201 A 
ATOM     16  C   UNL     1       9.115   3.104  22.984  0.00  0.00    +0.163 A 
ATOM     17  C   UNL     1       9.151   1.715  23.139  0.00  0.00    +0.061 A 
BRANCH  14  18
ATOM     18  O   UNL     1       5.684   3.601  21.844  0.00  0.00    -0.503 OA
ATOM     19  H   UNL     1       5.102   3.611  22.631  0.00  0.00    +0.292 HD
ENDBRANCH  14  18
BRANCH  15  20
ATOM     20  O   UNL     1       7.907   5.094  22.405  0.00  0.00    -0.501 OA
ATOM     21  H   UNL     1       7.151   5.247  21.801  0.00  0.00    +0.292 HD
ENDBRANCH  15  20
BRANCH  16  22
ATOM     22  O   UNL     1      10.199   3.895  23.249  0.00  0.00    -0.503 OA
ATOM     23  H   UNL     1      10.054   4.765  22.839  0.00  0.00    +0.292 HD
ENDBRANCH  16  22
ENDBRANCH   7  12
BRANCH   1  24
ATOM     24  O   UNL     1       4.249  -5.213  22.548  0.00  0.00    -0.507 OA
ATOM     25  H   UNL     1       4.153  -5.960  23.160  0.00  0.00    +0.292 HD
ENDBRANCH   1  24
BRANCH   3  26
ATOM     26  O   UNL     1       8.728  -5.489  23.958  0.00  0.00    -0.506 OA
ATOM     27  H   UNL     1       9.575  -5.011  23.806  0.00  0.00    +0.292 HD
ENDBRANCH   3  26
TORSDOF 6
ENDMDL
MODEL 6
REMARK VINA RESULT:      -7.1      1.112      6.972
REMARK  Name = 
REMARK  6 active torsions:
REMARK  status: ('A' for Active; 'I' for Inactive)
REMARK    1  A    between atoms: O_1  and  C_2
REMARK    2  A    between atoms: C_6  and  O_7
REMARK    3  A    between atoms: C_12  and  C_14
REMARK    4  A    between atoms: C_16  and  O_17
REMARK    5  A    between atoms: C_18  and  O_19
REMARK    6  A    between atoms: C_20  and  O_21
REMARK                            x       y       z     vdW  Elec       q    Type
REMARK                         _______ _______ _______ _____ _____    ______ ____
ROOT
ATOM      1  C   UNL     1       9.422  -0.850  22.179  0.00  0.00    +0.124 A 
ATOM      2  C   UNL     1       9.968  -0.135  23.242  0.00  0.00    +0.091 A 
ATOM      3  C   UNL     1       9.627  -0.482  24.544  0.00  0.00    +0.135 A 
ATOM      4  C   UNL     1       8.744  -1.544  24.775  0.00  0.00    +0.105 A 
ATOM      5  C   UNL     1       8.360  -1.927  26.136  0.00  0.00    +0.197 A 
ATOM      6  C   UNL     1       7.429  -3.050  26.275  0.00  0.00    +0.098 A 
ATOM      7  C   UNL     1       6.988  -3.687  25.179  0.00  0.00    +0.139 A 
ATOM      8  O   UNL     1       7.334  -3.318  23.881  0.00  0.00    -0.454 OA
ATOM      9  O   UNL     1       8.801  -1.335  27.114  0.00  0.00    -0.287 OA
ATOM     10  C   UNL     1       8.202  -2.261  23.708  0.00  0.00    +0.146 A 
ATOM     11  C   UNL     1       8.543  -1.911  22.397  0.00  0.00    +0.092 A 
ENDROOT
BRANCH   7  12
ATOM     12  C   UNL     1       6.065  -4.847  25.290  0.00  0.00    +0.025 A 
ATOM     13  C   UNL     1       5.286  -5.255  24.188  0.00  0.00    +0.061 A 
ATOM     14  C   UNL     1       4.447  -6.359  24.280  0.00  0.00    +0.163 A 
ATOM     15  C   UNL     1       4.349  -7.065  25.466  0.00  0.00    +0.201 A 
ATOM     16  C   UNL     1       5.090  -6.671  26.572  0.00  0.00    +0.163 A 
ATOM     17  C   UNL     1       5.945  -5.568  26.496  0.00  0.00    +0.061 A 
BRANCH  14  18
ATOM     18  O   UNL     1       3.724  -6.741  23.189  0.00  0.00    -0.503 OA
ATOM     19  H   UNL     1       4.176  -6.319  22.430  0.00  0.00    +0.292 HD
ENDBRANCH  14  18
BRANCH  15  20
ATOM     20  O   UNL     1       3.515  -8.147  25.527  0.00  0.00    -0.501 OA
ATOM     21  H   UNL     1       3.111  -8.194  24.636  0.00  0.00    +0.292 HD
ENDBRANCH  15  20
BRANCH  16  22
ATOM     22  O   UNL     1       4.949  -7.407  27.717  0.00  0.00    -0.503 OA
ATOM     23  H   UNL     1       4.000  -7.493  27.914  0.00  0.00    +0.292 HD
ENDBRANCH  16  22
ENDBRANCH   7  12
BRANCH   1  24
ATOM     24  O   UNL     1       9.783  -0.468  20.920  0.00  0.00    -0.507 OA
ATOM     25  H   UNL     1       9.090   0.093  20.539  0.00  0.00    +0.292 HD
ENDBRANCH   1  24
BRANCH   3  26
ATOM     26  O   UNL     1      10.193   0.250  25.551  0.00  0.00    -0.506 OA
ATOM     27  H   UNL     1      10.805  -0.336  26.053  0.00  0.00    +0.292 HD
ENDBRANCH   3  26
TORSDOF 6
ENDMDL
MODEL 7
REMARK VINA RESULT:      -6.9      1.622      2.419
REMARK  Name = 
REMARK  6 active torsions:
REMARK  status: ('A' for Active; 'I' for Inactive)
REMARK    1  A    between atoms: O_1  and  C_2
REMARK    2  A    between atoms: C_6  and  O_7
REMARK    3  A    between atoms: C_12  and  C_14
REMARK    4  A    between atoms: C_16  and  O_17
REMARK    5  A    between atoms: C_18  and  O_19
REMARK    6  A    between atoms: C_20  and  O_21
REMARK                            x       y       z     vdW  Elec       q    Type
REMARK                         _______ _______ _______ _____ _____    ______ ____
ROOT
ATOM      1  C   UNL     1       4.764  -5.639  23.356  0.00  0.00    +0.124 A 
ATOM      2  C   UNL     1       5.011  -6.229  24.593  0.00  0.00    +0.091 A 
ATOM      3  C   UNL     1       5.968  -5.674  25.433  0.00  0.00    +0.135 A 
ATOM      4  C   UNL     1       6.672  -4.532  25.033  0.00  0.00    +0.105 A 
ATOM      5  C   UNL     1       7.693  -3.931  25.894  0.00  0.00    +0.197 A 
ATOM      6  C   UNL     1       8.376  -2.738  25.386  0.00  0.00    +0.098 A 
ATOM      7  C   UNL     1       8.035  -2.237  24.188  0.00  0.00    +0.139 A 
ATOM      8  O   UNL     1       7.079  -2.813  23.355  0.00  0.00    -0.454 OA
ATOM      9  O   UNL     1       7.962  -4.404  26.992  0.00  0.00    -0.287 OA
ATOM     10  C   UNL     1       6.419  -3.941  23.794  0.00  0.00    +0.146 A 
ATOM     11  C   UNL     1       5.457  -4.499  22.947  0.00  0.00    +0.092 A 
ENDROOT
BRANCH   7  12
ATOM     12  C   UNL     1       8.691  -1.012  23.659  0.00  0.00    +0.025 A 
ATOM     13  C   UNL     1       9.807  -0.454  24.314  0.00  0.00    +0.061 A 
ATOM     14  C   UNL     1      10.442   0.672  23.802  0.00  0.00    +0.163 A 
ATOM     15  C   UNL     1       9.972   1.276  22.650  0.00  0.00    +0.201 A 
ATOM     16  C   UNL     1       8.861   0.757  21.998  0.00  0.00    +0.163 A 
ATOM     17  C   UNL     1       8.214  -0.379  22.492  0.00  0.00    +0.061 A 
BRANCH  14  18
ATOM     18  O   UNL     1      11.534   1.173  24.447  0.00  0.00    -0.503 OA
ATOM     19  H   UNL     1      11.290   2.094  24.673  0.00  0.00    +0.292 HD
ENDBRANCH  14  18
BRANCH  15  20
ATOM     20  O   UNL     1      10.617   2.382  22.170  0.00  0.00    -0.501 OA
ATOM     21  H   UNL     1      11.060   2.766  22.955  0.00  0.00    +0.292 HD
ENDBRANCH  15  20
BRANCH  16  22
ATOM     22  O   UNL     1       8.442   1.399  20.865  0.00  0.00    -0.503 OA
ATOM     23  H   UNL     1       8.046   0.743  20.266  0.00  0.00    +0.292 HD
ENDBRANCH  16  22
ENDBRANCH   7  12
BRANCH   1  24
ATOM     24  O   UNL     1       3.817  -6.222  22.565  0.00  0.00    -0.507 OA
ATOM     25  H   UNL     1       3.049  -6.467  23.104  0.00  0.00    +0.292 HD
ENDBRANCH   1  24
BRANCH   3  26
ATOM     26  O   UNL     1       6.170  -6.290  26.638  0.00  0.00    -0.506 OA
ATOM     27  H   UNL     1       5.795  -7.199  26.587  0.00  0.00    +0.292 HD
ENDBRANCH   3  26
TORSDOF 6
ENDMDL
MODEL 8
REMARK VINA RESULT:      -6.9      2.751      4.118
REMARK  Name = 
REMARK  6 active torsions:
REMARK  status: ('A' for Active; 'I' for Inactive)
REMARK    1  A    between atoms: O_1  and  C_2
REMARK    2  A    between atoms: C_6  and  O_7
REMARK    3  A    between atoms: C_12  and  C_14
REMARK    4  A    between atoms: C_16  and  O_17
REMARK    5  A    between atoms: C_18  and  O_19
REMARK    6  A    between atoms: C_20  and  O_21
REMARK                            x       y       z     vdW  Elec       q    Type
REMARK                         _______ _______ _______ _____ _____    ______ ____
ROOT
ATOM      1  C   UNL     1       6.075  -4.157  27.428  0.00  0.00    +0.124 A 
ATOM      2  C   UNL     1       6.914  -5.224  27.118  0.00  0.00    +0.091 A 
ATOM      3  C   UNL     1       8.005  -5.013  26.283  0.00  0.00    +0.135 A 
ATOM      4  C   UNL     1       8.251  -3.736  25.764  0.00  0.00    +0.105 A 
ATOM      5  C   UNL     1       9.387  -3.486  24.875  0.00  0.00    +0.197 A 
ATOM      6  C   UNL     1       9.561  -2.117  24.383  0.00  0.00    +0.098 A 
ATOM      7  C   UNL     1       8.706  -1.158  24.772  0.00  0.00    +0.139 A 
ATOM      8  O   UNL     1       7.612  -1.391  25.603  0.00  0.00    -0.454 OA
ATOM      9  O   UNL     1      10.160  -4.383  24.559  0.00  0.00    -0.287 OA
ATOM     10  C   UNL     1       7.411  -2.668  26.081  0.00  0.00    +0.146 A 
ATOM     11  C   UNL     1       6.311  -2.879  26.919  0.00  0.00    +0.092 A 
ENDROOT
BRANCH   7  12
ATOM     12  C   UNL     1       8.872   0.246  24.311  0.00  0.00    +0.025 A 
ATOM     13  C   UNL     1       8.429   1.321  25.108  0.00  0.00    +0.061 A 
ATOM     14  C   UNL     1       8.613   2.635  24.693  0.00  0.00    +0.163 A 
ATOM     15  C   UNL     1       9.219   2.907  23.480  0.00  0.00    +0.201 A 
ATOM     16  C   UNL     1       9.645   1.864  22.667  0.00  0.00    +0.163 A 
ATOM     17  C   UNL     1       9.476   0.537  23.070  0.00  0.00    +0.061 A 
BRANCH  14  18
ATOM     18  O   UNL     1       8.194   3.654  25.498  0.00  0.00    -0.503 OA
ATOM     19  H   UNL     1       7.838   3.211  26.295  0.00  0.00    +0.292 HD
ENDBRANCH  14  18
BRANCH  15  20
ATOM     20  O   UNL     1       9.387   4.210  23.099  0.00  0.00    -0.501 OA
ATOM     21  H   UNL     1       9.244   4.724  23.920  0.00  0.00    +0.292 HD
ENDBRANCH  15  20
BRANCH  16  22
ATOM     22  O   UNL     1      10.234   2.196  21.478  0.00  0.00    -0.503 OA
ATOM     23  H   UNL     1      11.092   1.741  21.421  0.00  0.00    +0.292 HD
ENDBRANCH  16  22
ENDBRANCH   7  12
BRANCH   1  24
ATOM     24  O   UNL     1       5.015  -4.415  28.248  0.00  0.00    -0.507 OA
ATOM     25  H   UNL     1       4.344  -3.724  28.138  0.00  0.00    +0.292 HD
ENDBRANCH   1  24
BRANCH   3  26
ATOM     26  O   UNL     1       8.798  -6.094  26.012  0.00  0.00    -0.506 OA
ATOM     27  H   UNL     1       9.271  -5.927  25.165  0.00  0.00    +0.292 HD
ENDBRANCH   3  26
TORSDOF 6
ENDMDL
MODEL 9
REMARK VINA RESULT:      -6.8      1.421      7.436
REMARK  Name = 
REMARK  6 active torsions:
REMARK  status: ('A' for Active; 'I' for Inactive)
REMARK    1  A    between atoms: O_1  and  C_2
REMARK    2  A    between atoms: C_6  and  O_7
REMARK    3  A    between atoms: C_12  and  C_14
REMARK    4  A    between atoms: C_16  and  O_17
REMARK    5  A    between atoms: C_18  and  O_19
REMARK    6  A    between atoms: C_20  and  O_21
REMARK                            x       y       z     vdW  Elec       q    Type
REMARK                         _______ _______ _______ _____ _____    ______ ____
ROOT
ATOM      1  C   UNL     1       9.844  -0.401  24.791  0.00  0.00    +0.124 A 
ATOM      2  C   UNL     1       9.912  -0.581  23.412  0.00  0.00    +0.091 A 
ATOM      3  C   UNL     1       9.270  -1.671  22.835  0.00  0.00    +0.135 A 
ATOM      4  C   UNL     1       8.563  -2.572  23.640  0.00  0.00    +0.105 A 
ATOM      5  C   UNL     1       7.884  -3.733  23.060  0.00  0.00    +0.197 A 
ATOM      6  C   UNL     1       7.171  -4.618  23.985  0.00  0.00    +0.098 A 
ATOM      7  C   UNL     1       7.147  -4.330  25.295  0.00  0.00    +0.139 A 
ATOM      8  O   UNL     1       7.804  -3.238  25.857  0.00  0.00    -0.454 OA
ATOM      9  O   UNL     1       7.910  -3.952  21.855  0.00  0.00    -0.287 OA
ATOM     10  C   UNL     1       8.493  -2.385  25.021  0.00  0.00    +0.146 A 
ATOM     11  C   UNL     1       9.140  -1.291  25.603  0.00  0.00    +0.092 A 
ENDROOT
BRANCH   7  12
ATOM     12  C   UNL     1       6.408  -5.195  26.253  0.00  0.00    +0.025 A 
ATOM     13  C   UNL     1       6.779  -5.242  27.612  0.00  0.00    +0.061 A 
ATOM     14  C   UNL     1       6.070  -6.025  28.516  0.00  0.00    +0.163 A 
ATOM     15  C   UNL     1       4.998  -6.788  28.089  0.00  0.00    +0.201 A 
ATOM     16  C   UNL     1       4.626  -6.775  26.750  0.00  0.00    +0.163 A 
ATOM     17  C   UNL     1       5.322  -5.988  25.829  0.00  0.00    +0.061 A 
BRANCH  14  18
ATOM     18  O   UNL     1       6.439  -6.030  29.829  0.00  0.00    -0.503 OA
ATOM     19  H   UNL     1       7.327  -6.444  29.836  0.00  0.00    +0.292 HD
ENDBRANCH  14  18
BRANCH  15  20
ATOM     20  O   UNL     1       4.319  -7.548  29.000  0.00  0.00    -0.501 OA
ATOM     21  H   UNL     1       5.003  -7.825  29.645  0.00  0.00    +0.292 HD
ENDBRANCH  15  20
BRANCH  16  22
ATOM     22  O   UNL     1       3.560  -7.552  26.388  0.00  0.00    -0.503 OA
ATOM     23  H   UNL     1       3.721  -8.460  26.697  0.00  0.00    +0.292 HD
ENDBRANCH  16  22
ENDBRANCH   7  12
BRANCH   1  24
ATOM     24  O   UNL     1      10.493   0.680  25.311  0.00  0.00    -0.507 OA
ATOM     25  H   UNL     1      10.116   1.494  24.942  0.00  0.00    +0.292 HD
ENDBRANCH   1  24
BRANCH   3  26
ATOM     26  O   UNL     1       9.366  -1.800  21.477  0.00  0.00    -0.506 OA
ATOM     27  H   UNL     1       8.547  -1.433  21.072  0.00  0.00    +0.292 HD
ENDBRANCH   3  26
TORSDOF 6
ENDMDL
