MODEL 1
REMARK VINA RESULT:      -6.5      0.000      0.000
REMARK  Name = 
REMARK  9 active torsions:
REMARK  status: ('A' for Active; 'I' for Inactive)
REMARK    1  A    between atoms: O_1  and  P_2
REMARK    2  A    between atoms: P_2  and  O_3
REMARK    3  A    between atoms: P_2  and  O_5
REMARK    4  A    between atoms: O_5  and  P_6
REMARK    5  A    between atoms: P_6  and  O_7
REMARK    6  A    between atoms: P_6  and  O_9
REMARK    7  A    between atoms: O_9  and  C_10
REMARK    8  A    between atoms: C_10  and  C_11
REMARK    9  A    between atoms: C_14  and  N_20
REMARK                            x       y       z     vdW  Elec       q    Type
REMARK                         _______ _______ _______ _____ _____    ______ ____
ROOT
ATOM      1  C   UNL     1       9.635  -0.110  23.446  0.00  0.00    +0.181 C 
ATOM      2  C   UNL     1       9.828  -0.111  24.951  0.00  0.00    +0.201 C 
ATOM      3  F   UNL     1      10.983   0.536  25.251  0.00  0.00    -0.243 F 
ATOM      4  C   UNL     1       8.634   0.641  25.498  0.00  0.00    +0.094 C 
ATOM      5  C   UNL     1       7.917   1.180  24.267  0.00  0.00    +0.227 C 
ATOM      6  O   UNL     1       8.273   0.279  23.202  0.00  0.00    -0.348 OA
ENDROOT
BRANCH   5   7
ATOM      7  N   UNL     1       8.154   2.545  23.766  0.00  0.00    -0.274 N 
ATOM      8  C   UNL     1       7.560   3.051  22.620  0.00  0.00    +0.331 A 
ATOM      9  O   UNL     1       6.815   2.434  21.866  0.00  0.00    -0.246 OA
ATOM     10  N   UNL     1       7.839   4.366  22.333  0.00  0.00    -0.275 N 
ATOM     11  H   UNL     1       7.380   4.746  21.519  0.00  0.00    +0.173 HD
ATOM     12  C   UNL     1       8.543   5.233  23.112  0.00  0.00    +0.254 A 
ATOM     13  O   UNL     1       8.646   6.426  22.865  0.00  0.00    -0.268 OA
ATOM     14  C   UNL     1       9.175   4.642  24.296  0.00  0.00    +0.088 A 
ATOM     15  C   UNL     1       8.957   3.356  24.563  0.00  0.00    +0.098 A 
ENDBRANCH   5   7
BRANCH   1  16
ATOM     16  C   UNL     1       9.941  -1.442  22.777  0.00  0.00    +0.207 C 
BRANCH  16  17
ATOM     17  O   UNL     1       8.739  -2.110  22.419  0.00  0.00    -0.284 OA
BRANCH  17  18
ATOM     18  P   UNL     1       8.335  -3.464  23.419  0.00  0.00    +0.483 P 
ATOM     19  O   UNL     1       9.749  -3.454  23.988  0.00  0.00    -0.227 OA
BRANCH  18  20
ATOM     20  O   UNL     1       7.379  -2.494  24.316  0.00  0.00    -0.302 OA
ATOM     21  H   UNL     1       6.879  -2.938  25.026  0.00  0.00    +0.222 HD
ENDBRANCH  18  20
BRANCH  18  22
ATOM     22  O   UNL     1       7.929  -4.816  24.419  0.00  0.00    -0.186 OA
BRANCH  22  23
ATOM     23  P   UNL     1       8.412  -5.087  25.904  0.00  0.00    +0.481 P 
ATOM     24  O   UNL     1       7.511  -5.921  26.752  0.00  0.00    -0.227 OA
BRANCH  23  25
ATOM     25  O   UNL     1       8.861  -3.729  26.608  0.00  0.00    -0.302 OA
ATOM     26  H   UNL     1       9.056  -3.042  25.943  0.00  0.00    +0.222 HD
ENDBRANCH  23  25
BRANCH  23  27
ATOM     27  O   UNL     1       9.868  -5.727  25.701  0.00  0.00    -0.302 OA
ATOM     28  H   UNL     1      10.507  -5.012  25.523  0.00  0.00    +0.222 HD
ENDBRANCH  23  27
ENDBRANCH  22  23
ENDBRANCH  18  22
ENDBRANCH  17  18
ENDBRANCH  16  17
ENDBRANCH   1  16
TORSDOF 9
ENDMDL
MODEL 2
REMARK VINA RESULT:      -6.4      2.746      4.019
REMARK  Name = 
REMARK  9 active torsions:
REMARK  status: ('A' for Active; 'I' for Inactive)
REMARK    1  A    between atoms: O_1  and  P_2
REMARK    2  A    between atoms: P_2  and  O_3
REMARK    3  A    between atoms: P_2  and  O_5
REMARK    4  A    between atoms: O_5  and  P_6
REMARK    5  A    between atoms: P_6  and  O_7
REMARK    6  A    between atoms: P_6  and  O_9
REMARK    7  A    between atoms: O_9  and  C_10
REMARK    8  A    between atoms: C_10  and  C_11
REMARK    9  A    between atoms: C_14  and  N_20
REMARK                            x       y       z     vdW  Elec       q    Type
REMARK                         _______ _______ _______ _____ _____    ______ ____
ROOT
ATOM      1  C   UNL     1       8.691  -2.251  24.680  0.00  0.00    +0.181 C 
ATOM      2  C   UNL     1       7.622  -2.483  23.628  0.00  0.00    +0.201 C 
ATOM      3  F   UNL     1       6.616  -1.590  23.813  0.00  0.00    -0.243 F 
ATOM      4  C   UNL     1       8.317  -2.244  22.306  0.00  0.00    +0.094 C 
ATOM      5  C   UNL     1       9.697  -1.718  22.682  0.00  0.00    +0.227 C 
ATOM      6  O   UNL     1       9.954  -2.248  23.995  0.00  0.00    -0.348 OA
ENDROOT
BRANCH   5   7
ATOM      7  N   UNL     1       9.988  -0.275  22.742  0.00  0.00    -0.274 N 
ATOM      8  C   UNL     1       9.611   0.621  21.752  0.00  0.00    +0.331 A 
ATOM      9  O   UNL     1       9.042   0.335  20.704  0.00  0.00    -0.246 OA
ATOM     10  N   UNL     1       9.904   1.941  22.000  0.00  0.00    -0.275 N 
ATOM     11  H   UNL     1       9.599   2.598  21.297  0.00  0.00    +0.173 HD
ATOM     12  C   UNL     1      10.420   2.454  23.150  0.00  0.00    +0.254 A 
ATOM     13  O   UNL     1      10.535   3.654  23.358  0.00  0.00    -0.268 OA
ATOM     14  C   UNL     1      10.829   1.464  24.152  0.00  0.00    +0.088 A 
ATOM     15  C   UNL     1      10.599   0.175  23.908  0.00  0.00    +0.098 A 
ENDBRANCH   5   7
BRANCH   1  16
ATOM     16  C   UNL     1       8.691  -3.276  25.805  0.00  0.00    +0.207 C 
BRANCH  16  17
ATOM     17  O   UNL     1       7.613  -4.189  25.650  0.00  0.00    -0.284 OA
BRANCH  17  18
ATOM     18  P   UNL     1       6.861  -4.681  27.129  0.00  0.00    +0.483 P 
ATOM     19  O   UNL     1       5.555  -4.915  26.376  0.00  0.00    -0.227 OA
BRANCH  18  20
ATOM     20  O   UNL     1       7.754  -6.045  27.109  0.00  0.00    -0.302 OA
ATOM     21  H   UNL     1       8.054  -6.336  26.227  0.00  0.00    +0.222 HD
ENDBRANCH  18  20
BRANCH  18  22
ATOM     22  O   UNL     1       6.109  -5.174  28.607  0.00  0.00    -0.186 OA
BRANCH  22  23
ATOM     23  P   UNL     1       5.673  -6.642  29.016  0.00  0.00    +0.481 P 
ATOM     24  O   UNL     1       4.623  -6.752  30.070  0.00  0.00    -0.227 OA
BRANCH  23  25
ATOM     25  O   UNL     1       6.951  -7.551  29.303  0.00  0.00    -0.302 OA
ATOM     26  H   UNL     1       7.726  -7.226  28.807  0.00  0.00    +0.222 HD
ENDBRANCH  23  25
BRANCH  23  27
ATOM     27  O   UNL     1       5.242  -7.295  27.617  0.00  0.00    -0.302 OA
ATOM     28  H   UNL     1       4.325  -7.031  27.414  0.00  0.00    +0.222 HD
ENDBRANCH  23  27
ENDBRANCH  22  23
ENDBRANCH  18  22
ENDBRANCH  17  18
ENDBRANCH  16  17
ENDBRANCH   1  16
TORSDOF 9
ENDMDL
MODEL 3
REMARK VINA RESULT:      -6.4      2.062      3.050
REMARK  Name = 
REMARK  9 active torsions:
REMARK  status: ('A' for Active; 'I' for Inactive)
REMARK    1  A    between atoms: O_1  and  P_2
REMARK    2  A    between atoms: P_2  and  O_3
REMARK    3  A    between atoms: P_2  and  O_5
REMARK    4  A    between atoms: O_5  and  P_6
REMARK    5  A    between atoms: P_6  and  O_7
REMARK    6  A    between atoms: P_6  and  O_9
REMARK    7  A    between atoms: O_9  and  C_10
REMARK    8  A    between atoms: C_10  and  C_11
REMARK    9  A    between atoms: C_14  and  N_20
REMARK                            x       y       z     vdW  Elec       q    Type
REMARK                         _______ _______ _______ _____ _____    ______ ____
ROOT
ATOM      1  C   UNL     1       9.305  -1.180  23.603  0.00  0.00    +0.181 C 
ATOM      2  C   UNL     1       8.872  -1.741  22.261  0.00  0.00    +0.201 C 
ATOM      3  F   UNL     1       7.516  -1.779  22.213  0.00  0.00    -0.243 F 
ATOM      4  C   UNL     1       9.419  -0.771  21.238  0.00  0.00    +0.094 C 
ATOM      5  C   UNL     1       9.983   0.383  22.058  0.00  0.00    +0.227 C 
ATOM      6  O   UNL     1      10.315  -0.194  23.334  0.00  0.00    -0.348 OA
ENDROOT
BRANCH   5   7
ATOM      7  N   UNL     1       9.197   1.597  22.332  0.00  0.00    -0.274 N 
ATOM      8  C   UNL     1       9.715   2.713  22.972  0.00  0.00    +0.331 A 
ATOM      9  O   UNL     1      10.850   2.819  23.424  0.00  0.00    -0.246 OA
ATOM     10  N   UNL     1       8.862   3.786  23.087  0.00  0.00    -0.275 N 
ATOM     11  H   UNL     1       9.249   4.610  23.521  0.00  0.00    +0.173 HD
ATOM     12  C   UNL     1       7.618   3.892  22.545  0.00  0.00    +0.254 A 
ATOM     13  O   UNL     1       6.960   4.923  22.572  0.00  0.00    -0.268 OA
ATOM     14  C   UNL     1       7.105   2.677  21.906  0.00  0.00    +0.088 A 
ATOM     15  C   UNL     1       7.898   1.610  21.829  0.00  0.00    +0.098 A 
ENDBRANCH   5   7
BRANCH   1  16
ATOM     16  C   UNL     1       9.821  -2.227  24.580  0.00  0.00    +0.207 C 
BRANCH  16  17
ATOM     17  O   UNL     1       9.518  -3.536  24.117  0.00  0.00    -0.284 OA
BRANCH  17  18
ATOM     18  P   UNL     1       8.869  -4.599  25.318  0.00  0.00    +0.483 P 
ATOM     19  O   UNL     1       7.826  -5.080  24.316  0.00  0.00    -0.227 OA
BRANCH  18  20
ATOM     20  O   UNL     1      10.208  -5.522  25.199  0.00  0.00    -0.302 OA
ATOM     21  H   UNL     1      10.836  -5.260  24.500  0.00  0.00    +0.222 HD
ENDBRANCH  18  20
BRANCH  18  22
ATOM     22  O   UNL     1       8.222  -5.662  26.520  0.00  0.00    -0.186 OA
BRANCH  22  23
ATOM     23  P   UNL     1       6.846  -5.508  27.292  0.00  0.00    +0.481 P 
ATOM     24  O   UNL     1       6.347  -4.115  27.486  0.00  0.00    -0.227 OA
BRANCH  23  25
ATOM     25  O   UNL     1       6.852  -6.368  28.634  0.00  0.00    -0.302 OA
ATOM     26  H   UNL     1       7.725  -6.782  28.776  0.00  0.00    +0.222 HD
ENDBRANCH  23  25
BRANCH  23  27
ATOM     27  O   UNL     1       5.847  -6.429  26.440  0.00  0.00    -0.302 OA
ATOM     28  H   UNL     1       6.256  -7.306  26.313  0.00  0.00    +0.222 HD
ENDBRANCH  23  27
ENDBRANCH  22  23
ENDBRANCH  18  22
ENDBRANCH  17  18
ENDBRANCH  16  17
ENDBRANCH   1  16
TORSDOF 9
ENDMDL
MODEL 4
REMARK VINA RESULT:      -6.3      5.471      8.451
REMARK  Name = 
REMARK  9 active torsions:
REMARK  status: ('A' for Active; 'I' for Inactive)
REMARK    1  A    between atoms: O_1  and  P_2
REMARK    2  A    between atoms: P_2  and  O_3
REMARK    3  A    between atoms: P_2  and  O_5
REMARK    4  A    between atoms: O_5  and  P_6
REMARK    5  A    between atoms: P_6  and  O_7
REMARK    6  A    between atoms: P_6  and  O_9
REMARK    7  A    between atoms: O_9  and  C_10
REMARK    8  A    between atoms: C_10  and  C_11
REMARK    9  A    between atoms: C_14  and  N_20
REMARK                            x       y       z     vdW  Elec       q    Type
REMARK                         _______ _______ _______ _____ _____    ______ ____
ROOT
ATOM      1  C   UNL     1       7.119  -4.311  23.128  0.00  0.00    +0.181 C 
ATOM      2  C   UNL     1       7.092  -5.478  22.158  0.00  0.00    +0.201 C 
ATOM      3  F   UNL     1       8.034  -6.384  22.526  0.00  0.00    -0.243 F 
ATOM      4  C   UNL     1       5.704  -6.063  22.289  0.00  0.00    +0.094 C 
ATOM      5  C   UNL     1       5.072  -5.309  23.453  0.00  0.00    +0.227 C 
ATOM      6  O   UNL     1       5.755  -4.042  23.492  0.00  0.00    -0.348 OA
ENDROOT
BRANCH   5   7
ATOM      7  N   UNL     1       5.091  -5.843  24.826  0.00  0.00    -0.274 N 
ATOM      8  C   UNL     1       4.455  -7.020  25.195  0.00  0.00    +0.331 A 
ATOM      9  O   UNL     1       3.775  -7.728  24.461  0.00  0.00    -0.246 OA
ATOM     10  N   UNL     1       4.629  -7.407  26.502  0.00  0.00    -0.275 N 
ATOM     11  H   UNL     1       4.197  -8.281  26.763  0.00  0.00    +0.173 HD
ATOM     12  C   UNL     1       5.441  -6.815  27.421  0.00  0.00    +0.254 A 
ATOM     13  O   UNL     1       5.654  -7.285  28.530  0.00  0.00    -0.268 OA
ATOM     14  C   UNL     1       6.065  -5.560  26.992  0.00  0.00    +0.088 A 
ATOM     15  C   UNL     1       5.868  -5.141  25.743  0.00  0.00    +0.098 A 
ENDBRANCH   5   7
BRANCH   1  16
ATOM     16  C   UNL     1       7.787  -3.059  22.579  0.00  0.00    +0.207 C 
BRANCH  16  17
ATOM     17  O   UNL     1       8.994  -2.788  23.278  0.00  0.00    -0.284 OA
BRANCH  17  18
ATOM     18  P   UNL     1       9.561  -1.159  23.145  0.00  0.00    +0.483 P 
ATOM     19  O   UNL     1      10.209  -1.503  21.808  0.00  0.00    -0.227 OA
BRANCH  18  20
ATOM     20  O   UNL     1       8.027  -0.664  22.896  0.00  0.00    -0.302 OA
ATOM     21  H   UNL     1       7.776   0.163  23.348  0.00  0.00    +0.222 HD
ENDBRANCH  18  20
BRANCH  18  22
ATOM     22  O   UNL     1      10.127   0.471  23.012  0.00  0.00    -0.186 OA
BRANCH  22  23
ATOM     23  P   UNL     1       9.411   1.675  22.269  0.00  0.00    +0.481 P 
ATOM     24  O   UNL     1       8.450   2.477  23.081  0.00  0.00    -0.227 OA
BRANCH  23  25
ATOM     25  O   UNL     1       8.810   1.199  20.871  0.00  0.00    -0.302 OA
ATOM     26  H   UNL     1       8.823   1.928  20.223  0.00  0.00    +0.222 HD
ENDBRANCH  23  25
BRANCH  23  27
ATOM     27  O   UNL     1      10.640   2.534  21.704  0.00  0.00    -0.302 OA
ATOM     28  H   UNL     1      10.294   3.236  21.121  0.00  0.00    +0.222 HD
ENDBRANCH  23  27
ENDBRANCH  22  23
ENDBRANCH  18  22
ENDBRANCH  17  18
ENDBRANCH  16  17
ENDBRANCH   1  16
TORSDOF 9
ENDMDL
MODEL 5
REMARK VINA RESULT:      -6.3      2.322      3.459
REMARK  Name = 
REMARK  9 active torsions:
REMARK  status: ('A' for Active; 'I' for Inactive)
REMARK    1  A    between atoms: O_1  and  P_2
REMARK    2  A    between atoms: P_2  and  O_3
REMARK    3  A    between atoms: P_2  and  O_5
REMARK    4  A    between atoms: O_5  and  P_6
REMARK    5  A    between atoms: P_6  and  O_7
REMARK    6  A    between atoms: P_6  and  O_9
REMARK    7  A    between atoms: O_9  and  C_10
REMARK    8  A    between atoms: C_10  and  C_11
REMARK    9  A    between atoms: C_14  and  N_20
REMARK                            x       y       z     vdW  Elec       q    Type
REMARK                         _______ _______ _______ _____ _____    ______ ____
ROOT
ATOM      1  C   UNL     1       8.762  -1.591  24.581  0.00  0.00    +0.181 C 
ATOM      2  C   UNL     1       9.230  -2.377  23.369  0.00  0.00    +0.201 C 
ATOM      3  F   UNL     1       8.216  -2.451  22.469  0.00  0.00    -0.243 F 
ATOM      4  C   UNL     1      10.387  -1.580  22.810  0.00  0.00    +0.094 C 
ATOM      5  C   UNL     1      10.405  -0.294  23.627  0.00  0.00    +0.227 C 
ATOM      6  O   UNL     1       9.798  -0.643  24.885  0.00  0.00    -0.348 OA
ENDROOT
BRANCH   5   7
ATOM      7  N   UNL     1       9.738   0.933  23.159  0.00  0.00    -0.274 N 
ATOM      8  C   UNL     1       9.228   1.083  21.878  0.00  0.00    +0.331 A 
ATOM      9  O   UNL     1       9.303   0.256  20.975  0.00  0.00    -0.246 OA
ATOM     10  N   UNL     1       8.578   2.268  21.629  0.00  0.00    -0.275 N 
ATOM     11  H   UNL     1       8.176   2.364  20.709  0.00  0.00    +0.173 HD
ATOM     12  C   UNL     1       8.297   3.243  22.536  0.00  0.00    +0.254 A 
ATOM     13  O   UNL     1       7.599   4.216  22.282  0.00  0.00    -0.268 OA
ATOM     14  C   UNL     1       8.883   3.052  23.867  0.00  0.00    +0.088 A 
ATOM     15  C   UNL     1       9.560   1.932  24.112  0.00  0.00    +0.098 A 
ENDBRANCH   5   7
BRANCH   1  16
ATOM     16  C   UNL     1       8.445  -2.450  25.796  0.00  0.00    +0.207 C 
BRANCH  16  17
ATOM     17  O   UNL     1       7.811  -3.659  25.402  0.00  0.00    -0.284 OA
BRANCH  17  18
ATOM     18  P   UNL     1       7.584  -4.808  26.676  0.00  0.00    +0.483 P 
ATOM     19  O   UNL     1       6.642  -5.604  25.779  0.00  0.00    -0.227 OA
BRANCH  18  20
ATOM     20  O   UNL     1       9.114  -5.327  26.458  0.00  0.00    -0.302 OA
ATOM     21  H   UNL     1       9.441  -5.960  27.124  0.00  0.00    +0.222 HD
ENDBRANCH  18  20
BRANCH  18  22
ATOM     22  O   UNL     1       7.358  -5.957  27.950  0.00  0.00    -0.186 OA
BRANCH  22  23
ATOM     23  P   UNL     1       6.054  -6.172  28.824  0.00  0.00    +0.481 P 
ATOM     24  O   UNL     1       6.183  -5.901  30.286  0.00  0.00    -0.227 OA
BRANCH  23  25
ATOM     25  O   UNL     1       5.385  -7.583  28.502  0.00  0.00    -0.302 OA
ATOM     26  H   UNL     1       4.488  -7.636  28.883  0.00  0.00    +0.222 HD
ENDBRANCH  23  25
BRANCH  23  27
ATOM     27  O   UNL     1       4.972  -5.240  28.097  0.00  0.00    -0.302 OA
ATOM     28  H   UNL     1       5.432  -4.488  27.679  0.00  0.00    +0.222 HD
ENDBRANCH  23  27
ENDBRANCH  22  23
ENDBRANCH  18  22
ENDBRANCH  17  18
ENDBRANCH  16  17
ENDBRANCH   1  16
TORSDOF 9
ENDMDL
MODEL 6
REMARK VINA RESULT:      -6.2      1.724      2.288
REMARK  Name = 
REMARK  9 active torsions:
REMARK  status: ('A' for Active; 'I' for Inactive)
REMARK    1  A    between atoms: O_1  and  P_2
REMARK    2  A    between atoms: P_2  and  O_3
REMARK    3  A    between atoms: P_2  and  O_5
REMARK    4  A    between atoms: O_5  and  P_6
REMARK    5  A    between atoms: P_6  and  O_7
REMARK    6  A    between atoms: P_6  and  O_9
REMARK    7  A    between atoms: O_9  and  C_10
REMARK    8  A    between atoms: C_10  and  C_11
REMARK    9  A    between atoms: C_14  and  N_20
REMARK                            x       y       z     vdW  Elec       q    Type
REMARK                         _______ _______ _______ _____ _____    ______ ____
ROOT
ATOM      1  C   UNL     1       8.208  -0.203  22.923  0.00  0.00    +0.181 C 
ATOM      2  C   UNL     1       9.595  -0.511  22.389  0.00  0.00    +0.201 C 
ATOM      3  F   UNL     1       9.783   0.166  21.227  0.00  0.00    -0.243 F 
ATOM      4  C   UNL     1      10.543  -0.018  23.459  0.00  0.00    +0.094 C 
ATOM      5  C   UNL     1       9.654   0.703  24.465  0.00  0.00    +0.227 C 
ATOM      6  O   UNL     1       8.358   0.093  24.321  0.00  0.00    -0.348 OA
ENDROOT
BRANCH   5   7
ATOM      7  N   UNL     1       9.447   2.160  24.414  0.00  0.00    -0.274 N 
ATOM      8  C   UNL     1       8.476   2.818  25.154  0.00  0.00    +0.331 A 
ATOM      9  O   UNL     1       7.654   2.287  25.892  0.00  0.00    -0.246 OA
ATOM     10  N   UNL     1       8.464   4.188  25.038  0.00  0.00    -0.275 N 
ATOM     11  H   UNL     1       7.781   4.672  25.602  0.00  0.00    +0.173 HD
ATOM     12  C   UNL     1       9.367   4.952  24.364  0.00  0.00    +0.254 A 
ATOM     13  O   UNL     1       9.378   6.174  24.407  0.00  0.00    -0.268 OA
ATOM     14  C   UNL     1      10.354   4.208  23.575  0.00  0.00    +0.088 A 
ATOM     15  C   UNL     1      10.350   2.877  23.635  0.00  0.00    +0.098 A 
ENDBRANCH   5   7
BRANCH   1  16
ATOM     16  C   UNL     1       7.197  -1.322  22.716  0.00  0.00    +0.207 C 
BRANCH  16  17
ATOM     17  O   UNL     1       7.859  -2.544  22.418  0.00  0.00    -0.284 OA
BRANCH  17  18
ATOM     18  P   UNL     1       7.804  -3.726  23.680  0.00  0.00    +0.483 P 
ATOM     19  O   UNL     1       7.609  -4.820  22.636  0.00  0.00    -0.227 OA
BRANCH  18  20
ATOM     20  O   UNL     1       9.397  -3.497  23.940  0.00  0.00    -0.302 OA
ATOM     21  H   UNL     1       9.870  -3.012  23.238  0.00  0.00    +0.222 HD
ENDBRANCH  18  20
BRANCH  18  22
ATOM     22  O   UNL     1       7.750  -4.908  24.944  0.00  0.00    -0.186 OA
BRANCH  22  23
ATOM     23  P   UNL     1       8.677  -4.978  26.228  0.00  0.00    +0.481 P 
ATOM     24  O   UNL     1       8.874  -3.700  26.973  0.00  0.00    -0.227 OA
BRANCH  23  25
ATOM     25  O   UNL     1      10.042  -5.733  25.900  0.00  0.00    -0.302 OA
ATOM     26  H   UNL     1      10.488  -6.014  26.721  0.00  0.00    +0.222 HD
ENDBRANCH  23  25
BRANCH  23  27
ATOM     27  O   UNL     1       7.989  -6.128  27.108  0.00  0.00    -0.302 OA
ATOM     28  H   UNL     1       8.364  -6.104  28.009  0.00  0.00    +0.222 HD
ENDBRANCH  23  27
ENDBRANCH  22  23
ENDBRANCH  18  22
ENDBRANCH  17  18
ENDBRANCH  16  17
ENDBRANCH   1  16
TORSDOF 9
ENDMDL
MODEL 7
REMARK VINA RESULT:      -6.2      4.065      8.021
REMARK  Name = 
REMARK  9 active torsions:
REMARK  status: ('A' for Active; 'I' for Inactive)
REMARK    1  A    between atoms: O_1  and  P_2
REMARK    2  A    between atoms: P_2  and  O_3
REMARK    3  A    between atoms: P_2  and  O_5
REMARK    4  A    between atoms: O_5  and  P_6
REMARK    5  A    between atoms: P_6  and  O_7
REMARK    6  A    between atoms: P_6  and  O_9
REMARK    7  A    between atoms: O_9  and  C_10
REMARK    8  A    between atoms: C_10  and  C_11
REMARK    9  A    between atoms: C_14  and  N_20
REMARK                            x       y       z     vdW  Elec       q    Type
REMARK                         _______ _______ _______ _____ _____    ______ ____
ROOT
ATOM      1  C   UNL     1       8.134  -0.927  24.232  0.00  0.00    +0.181 C 
ATOM      2  C   UNL     1       9.648  -0.929  24.134  0.00  0.00    +0.201 C 
ATOM      3  F   UNL     1      10.172  -0.719  25.369  0.00  0.00    -0.243 F 
ATOM      4  C   UNL     1      10.005  -2.308  23.627  0.00  0.00    +0.094 C 
ATOM      5  C   UNL     1       8.690  -3.076  23.629  0.00  0.00    +0.227 C 
ATOM      6  O   UNL     1       7.669  -2.070  23.494  0.00  0.00    -0.348 OA
ENDROOT
BRANCH   5   7
ATOM      7  N   UNL     1       8.293  -3.934  24.759  0.00  0.00    -0.274 N 
ATOM      8  C   UNL     1       9.130  -4.882  25.327  0.00  0.00    +0.331 A 
ATOM      9  O   UNL     1      10.264  -5.159  24.948  0.00  0.00    -0.246 OA
ATOM     10  N   UNL     1       8.624  -5.549  26.418  0.00  0.00    -0.275 N 
ATOM     11  H   UNL     1       9.244  -6.214  26.854  0.00  0.00    +0.173 HD
ATOM     12  C   UNL     1       7.443  -5.294  27.046  0.00  0.00    +0.254 A 
ATOM     13  O   UNL     1       7.109  -5.835  28.091  0.00  0.00    -0.268 OA
ATOM     14  C   UNL     1       6.583  -4.306  26.390  0.00  0.00    +0.088 A 
ATOM     15  C   UNL     1       7.036  -3.684  25.302  0.00  0.00    +0.098 A 
ENDBRANCH   5   7
BRANCH   1  16
ATOM     16  C   UNL     1       7.477   0.347  23.720  0.00  0.00    +0.207 C 
BRANCH  16  17
ATOM     17  O   UNL     1       8.437   1.187  23.093  0.00  0.00    -0.284 OA
BRANCH  17  18
ATOM     18  P   UNL     1       8.622   2.746  23.821  0.00  0.00    +0.483 P 
ATOM     19  O   UNL     1      10.055   2.390  24.200  0.00  0.00    -0.227 OA
BRANCH  18  20
ATOM     20  O   UNL     1       8.602   3.421  22.336  0.00  0.00    -0.302 OA
ATOM     21  H   UNL     1       8.206   2.874  21.633  0.00  0.00    +0.222 HD
ENDBRANCH  18  20
BRANCH  18  22
ATOM     22  O   UNL     1       8.806   4.306  24.547  0.00  0.00    -0.186 OA
BRANCH  22  23
ATOM     23  P   UNL     1       9.613   5.541  23.968  0.00  0.00    +0.481 P 
ATOM     24  O   UNL     1      10.005   6.595  24.950  0.00  0.00    -0.227 OA
BRANCH  23  25
ATOM     25  O   UNL     1       8.898   6.126  22.669  0.00  0.00    -0.302 OA
ATOM     26  H   UNL     1       9.305   6.971  22.400  0.00  0.00    +0.222 HD
ENDBRANCH  23  25
BRANCH  23  27
ATOM     27  O   UNL     1      10.865   4.849  23.244  0.00  0.00    -0.302 OA
ATOM     28  H   UNL     1      10.614   4.620  22.329  0.00  0.00    +0.222 HD
ENDBRANCH  23  27
ENDBRANCH  22  23
ENDBRANCH  18  22
ENDBRANCH  17  18
ENDBRANCH  16  17
ENDBRANCH   1  16
TORSDOF 9
ENDMDL
MODEL 8
REMARK VINA RESULT:      -6.1      5.112      8.037
REMARK  Name = 
REMARK  9 active torsions:
REMARK  status: ('A' for Active; 'I' for Inactive)
REMARK    1  A    between atoms: O_1  and  P_2
REMARK    2  A    between atoms: P_2  and  O_3
REMARK    3  A    between atoms: P_2  and  O_5
REMARK    4  A    between atoms: O_5  and  P_6
REMARK    5  A    between atoms: P_6  and  O_7
REMARK    6  A    between atoms: P_6  and  O_9
REMARK    7  A    between atoms: O_9  and  C_10
REMARK    8  A    between atoms: C_10  and  C_11
REMARK    9  A    between atoms: C_14  and  N_20
REMARK                            x       y       z     vdW  Elec       q    Type
REMARK                         _______ _______ _______ _____ _____    ______ ____
ROOT
ATOM      1  C   UNL     1       7.565  -2.872  24.920  0.00  0.00    +0.181 C 
ATOM      2  C   UNL     1       8.496  -3.784  25.699  0.00  0.00    +0.201 C 
ATOM      3  F   UNL     1       7.928  -4.079  26.896  0.00  0.00    -0.243 F 
ATOM      4  C   UNL     1       8.627  -5.027  24.847  0.00  0.00    +0.094 C 
ATOM      5  C   UNL     1       7.628  -4.830  23.714  0.00  0.00    +0.227 C 
ATOM      6  O   UNL     1       7.483  -3.403  23.587  0.00  0.00    -0.348 OA
ENDROOT
BRANCH   5   7
ATOM      7  N   UNL     1       6.267  -5.391  23.772  0.00  0.00    -0.274 N 
ATOM      8  C   UNL     1       5.438  -5.496  22.666  0.00  0.00    +0.331 A 
ATOM      9  O   UNL     1       5.699  -5.107  21.533  0.00  0.00    -0.246 OA
ATOM     10  N   UNL     1       4.225  -6.106  22.885  0.00  0.00    -0.275 N 
ATOM     11  H   UNL     1       3.634  -6.216  22.074  0.00  0.00    +0.173 HD
ATOM     12  C   UNL     1       3.815  -6.701  24.039  0.00  0.00    +0.254 A 
ATOM     13  O   UNL     1       2.777  -7.342  24.131  0.00  0.00    -0.268 OA
ATOM     14  C   UNL     1       4.713  -6.535  25.185  0.00  0.00    +0.088 A 
ATOM     15  C   UNL     1       5.871  -5.903  25.005  0.00  0.00    +0.098 A 
ENDBRANCH   5   7
BRANCH   1  16
ATOM     16  C   UNL     1       7.999  -1.414  24.893  0.00  0.00    +0.207 C 
BRANCH  16  17
ATOM     17  O   UNL     1       9.384  -1.299  25.189  0.00  0.00    -0.284 OA
BRANCH  17  18
ATOM     18  P   UNL     1      10.119   0.176  24.661  0.00  0.00    +0.483 P 
ATOM     19  O   UNL     1       9.622  -0.093  23.245  0.00  0.00    -0.227 OA
BRANCH  18  20
ATOM     20  O   UNL     1       8.990   1.013  25.487  0.00  0.00    -0.302 OA
ATOM     21  H   UNL     1       9.133   1.977  25.532  0.00  0.00    +0.222 HD
ENDBRANCH  18  20
BRANCH  18  22
ATOM     22  O   UNL     1      10.854   1.652  24.135  0.00  0.00    -0.186 OA
BRANCH  22  23
ATOM     23  P   UNL     1      10.221   2.748  23.181  0.00  0.00    +0.481 P 
ATOM     24  O   UNL     1       8.920   3.334  23.617  0.00  0.00    -0.227 OA
BRANCH  23  25
ATOM     25  O   UNL     1      10.210   2.243  21.669  0.00  0.00    -0.302 OA
ATOM     26  H   UNL     1       9.842   1.342  21.608  0.00  0.00    +0.222 HD
ENDBRANCH  23  25
BRANCH  23  27
ATOM     27  O   UNL     1      11.394   3.833  23.048  0.00  0.00    -0.302 OA
ATOM     28  H   UNL     1      11.499   4.072  22.108  0.00  0.00    +0.222 HD
ENDBRANCH  23  27
ENDBRANCH  22  23
ENDBRANCH  18  22
ENDBRANCH  17  18
ENDBRANCH  16  17
ENDBRANCH   1  16
TORSDOF 9
ENDMDL
MODEL 9
REMARK VINA RESULT:      -6.1      4.739      7.637
REMARK  Name = 
REMARK  9 active torsions:
REMARK  status: ('A' for Active; 'I' for Inactive)
REMARK    1  A    between atoms: O_1  and  P_2
REMARK    2  A    between atoms: P_2  and  O_3
REMARK    3  A    between atoms: P_2  and  O_5
REMARK    4  A    between atoms: O_5  and  P_6
REMARK    5  A    between atoms: P_6  and  O_7
REMARK    6  A    between atoms: P_6  and  O_9
REMARK    7  A    between atoms: O_9  and  C_10
REMARK    8  A    between atoms: C_10  and  C_11
REMARK    9  A    between atoms: C_14  and  N_20
REMARK                            x       y       z     vdW  Elec       q    Type
REMARK                         _______ _______ _______ _____ _____    ______ ____
ROOT
ATOM      1  C   UNL     1       8.657  -3.082  24.176  0.00  0.00    +0.181 C 
ATOM      2  C   UNL     1       8.534  -3.190  25.685  0.00  0.00    +0.201 C 
ATOM      3  F   UNL     1       7.570  -2.336  26.114  0.00  0.00    -0.243 F 
ATOM      4  C   UNL     1       8.133  -4.625  25.942  0.00  0.00    +0.094 C 
ATOM      5  C   UNL     1       7.878  -5.212  24.560  0.00  0.00    +0.227 C 
ATOM      6  O   UNL     1       8.685  -4.425  23.665  0.00  0.00    -0.348 OA
ENDROOT
BRANCH   5   7
ATOM      7  N   UNL     1       6.526  -5.265  23.977  0.00  0.00    -0.274 N 
ATOM      8  C   UNL     1       6.241  -5.881  22.767  0.00  0.00    +0.331 A 
ATOM      9  O   UNL     1       7.059  -6.408  22.020  0.00  0.00    -0.246 OA
ATOM     10  N   UNL     1       4.916  -5.896  22.402  0.00  0.00    -0.275 N 
ATOM     11  H   UNL     1       4.702  -6.374  21.540  0.00  0.00    +0.173 HD
ATOM     12  C   UNL     1       3.864  -5.469  23.155  0.00  0.00    +0.254 A 
ATOM     13  O   UNL     1       2.697  -5.631  22.829  0.00  0.00    -0.268 OA
ATOM     14  C   UNL     1       4.220  -4.800  24.409  0.00  0.00    +0.088 A 
ATOM     15  C   UNL     1       5.504  -4.730  24.756  0.00  0.00    +0.098 A 
ENDBRANCH   5   7
BRANCH   1  16
ATOM     16  C   UNL     1       9.874  -2.301  23.703  0.00  0.00    +0.207 C 
BRANCH  16  17
ATOM     17  O   UNL     1       9.681  -1.830  22.376  0.00  0.00    -0.284 OA
BRANCH  17  18
ATOM     18  P   UNL     1       9.732  -0.109  22.202  0.00  0.00    +0.483 P 
ATOM     19  O   UNL     1       8.265  -0.033  22.613  0.00  0.00    -0.227 OA
BRANCH  18  20
ATOM     20  O   UNL     1      10.676  -0.020  23.529  0.00  0.00    -0.302 OA
ATOM     21  H   UNL     1      11.393  -0.679  23.577  0.00  0.00    +0.222 HD
ENDBRANCH  18  20
BRANCH  18  22
ATOM     22  O   UNL     1       9.783   1.612  22.029  0.00  0.00    -0.186 OA
BRANCH  22  23
ATOM     23  P   UNL     1       9.874   2.688  23.189  0.00  0.00    +0.481 P 
ATOM     24  O   UNL     1      11.240   3.183  23.529  0.00  0.00    -0.227 OA
BRANCH  23  25
ATOM     25  O   UNL     1       9.040   2.217  24.463  0.00  0.00    -0.302 OA
ATOM     26  H   UNL     1       8.098   2.454  24.367  0.00  0.00    +0.222 HD
ENDBRANCH  23  25
BRANCH  23  27
ATOM     27  O   UNL     1       8.885   3.846  22.688  0.00  0.00    -0.302 OA
ATOM     28  H   UNL     1       9.354   4.406  22.042  0.00  0.00    +0.222 HD
ENDBRANCH  23  27
ENDBRANCH  22  23
ENDBRANCH  18  22
ENDBRANCH  17  18
ENDBRANCH  16  17
ENDBRANCH   1  16
TORSDOF 9
ENDMDL
