MODEL 1
REMARK VINA RESULT:      -7.6      0.000      0.000
REMARK  Name = 
REMARK  5 active torsions:
REMARK  status: ('A' for Active; 'I' for Inactive)
REMARK    1  A    between atoms: O_1  and  C_2
REMARK    2  A    between atoms: C_2  and  C_4
REMARK    3  A    between atoms: C_6  and  N_7
REMARK    4  A    between atoms: N_7  and  C_8
REMARK    5  A    between atoms: C_9  and  C_15
REMARK                            x       y       z     vdW  Elec       q    Type
REMARK                         _______ _______ _______ _____ _____    ______ ____
ROOT
ATOM      1  C   UNL     1       8.151  -4.355  24.772  0.00  0.00    +0.107 C 
ATOM      2  C   UNL     1       9.389  -4.900  25.388  0.00  0.00    +0.265 C 
ATOM      3  O   UNL     1      10.467  -4.965  24.826  0.00  0.00    -0.268 OA
ATOM      4  N   UNL     1       9.071  -5.332  26.621  0.00  0.00    -0.247 N 
ATOM      5  H   UNL     1       9.713  -5.774  27.257  0.00  0.00    +0.158 HD
ATOM      6  C   UNL     1       7.737  -5.262  26.817  0.00  0.00    +0.253 C 
ATOM      7  O   UNL     1       7.139  -5.659  27.800  0.00  0.00    -0.270 OA
ATOM      8  C   UNL     1       7.138  -4.653  25.603  0.00  0.00    +0.070 C 
ENDROOT
BRANCH   8   9
ATOM      9  C   UNL     1       5.707  -4.470  25.337  0.00  0.00    -0.010 A 
ATOM     10  C   UNL     1       4.974  -3.445  25.945  0.00  0.00    +0.009 A 
ATOM     11  C   UNL     1       3.618  -3.268  25.653  0.00  0.00    +0.002 A 
ATOM     12  C   UNL     1       2.979  -4.114  24.748  0.00  0.00    +0.020 A 
ATOM     13  C   UNL     1       3.691  -5.149  24.155  0.00  0.00    +0.042 A 
ATOM     14 CL   UNL     1       2.920  -6.190  23.021  0.00  0.00    -0.084 Cl
ATOM     15  C   UNL     1       5.035  -5.340  24.460  0.00  0.00    +0.028 A 
ENDBRANCH   8   9
BRANCH   1  16
ATOM     16  N   UNL     1       8.201  -3.803  23.506  0.00  0.00    -0.310 N 
ATOM     17  H   UNL     1       8.614  -4.470  22.846  0.00  0.00    +0.152 HD
BRANCH  16  23
ATOM     18  C   UNL     1       9.534  -0.271  23.783  0.00  0.00    +0.079 A 
ATOM     19  C   UNL     1       9.530   0.087  22.430  0.00  0.00    +0.055 A 
ATOM     20 CL   UNL     1      10.100   1.607  21.840  0.00  0.00    -0.083 Cl
ATOM     21  C   UNL     1       9.064  -0.821  21.476  0.00  0.00    +0.022 A 
ATOM     22  C   UNL     1       8.630  -2.092  21.862  0.00  0.00    +0.025 A 
ATOM     23  C   UNL     1       8.659  -2.495  23.203  0.00  0.00    +0.032 A 
ATOM     24  C   UNL     1       9.071  -1.555  24.157  0.00  0.00    +0.039 A 
BRANCH  18  25
ATOM     25  C   UNL     1      10.067   0.579  24.883  0.00  0.00    +0.338 C 
ATOM     26  O   UNL     1      11.265   0.639  25.117  0.00  0.00    -0.245 OA
BRANCH  25  27
ATOM     27  O   UNL     1       9.158   1.219  25.642  0.00  0.00    -0.477 OA
ATOM     28  H   UNL     1       9.512   1.688  26.422  0.00  0.00    +0.295 HD
ENDBRANCH  25  27
ENDBRANCH  18  25
ENDBRANCH  16  23
ENDBRANCH   1  16
TORSDOF 5
ENDMDL
MODEL 2
REMARK VINA RESULT:      -7.5      2.642      3.782
REMARK  Name = 
REMARK  5 active torsions:
REMARK  status: ('A' for Active; 'I' for Inactive)
REMARK    1  A    between atoms: O_1  and  C_2
REMARK    2  A    between atoms: C_2  and  C_4
REMARK    3  A    between atoms: C_6  and  N_7
REMARK    4  A    between atoms: N_7  and  C_8
REMARK    5  A    between atoms: C_9  and  C_15
REMARK                            x       y       z     vdW  Elec       q    Type
REMARK                         _______ _______ _______ _____ _____    ______ ____
ROOT
ATOM      1  C   UNL     1       5.868  -5.990  26.768  0.00  0.00    +0.107 C 
ATOM      2  C   UNL     1       5.239  -6.924  27.738  0.00  0.00    +0.265 C 
ATOM      3  O   UNL     1       5.840  -7.509  28.620  0.00  0.00    -0.268 OA
ATOM      4  N   UNL     1       3.936  -7.023  27.418  0.00  0.00    -0.247 N 
ATOM      5  H   UNL     1       3.272  -7.611  27.894  0.00  0.00    +0.158 HD
ATOM      6  C   UNL     1       3.682  -6.371  26.263  0.00  0.00    +0.253 C 
ATOM      7  O   UNL     1       2.616  -6.352  25.676  0.00  0.00    -0.270 OA
ATOM      8  C   UNL     1       4.945  -5.725  25.828  0.00  0.00    +0.070 C 
ENDROOT
BRANCH   8   9
ATOM      9  C   UNL     1       5.159  -4.989  24.576  0.00  0.00    -0.010 A 
ATOM     10  C   UNL     1       5.011  -3.599  24.509  0.00  0.00    +0.009 A 
ATOM     11  C   UNL     1       5.251  -2.914  23.314  0.00  0.00    +0.002 A 
ATOM     12  C   UNL     1       5.644  -3.611  22.173  0.00  0.00    +0.020 A 
ATOM     13  C   UNL     1       5.772  -4.993  22.222  0.00  0.00    +0.042 A 
ATOM     14 CL   UNL     1       6.275  -5.865  20.825  0.00  0.00    -0.084 Cl
ATOM     15  C   UNL     1       5.513  -5.680  23.404  0.00  0.00    +0.028 A 
ENDBRANCH   8   9
BRANCH   1  16
ATOM     16  N   UNL     1       7.208  -5.674  26.890  0.00  0.00    -0.310 N 
ATOM     17  H   UNL     1       7.497  -5.740  27.871  0.00  0.00    +0.152 HD
BRANCH  16  23
ATOM     18  C   UNL     1       8.387  -2.171  26.074  0.00  0.00    +0.079 A 
ATOM     19  C   UNL     1       9.169  -2.445  24.946  0.00  0.00    +0.055 A 
ATOM     20 CL   UNL     1      10.072  -1.245  24.093  0.00  0.00    -0.083 Cl
ATOM     21  C   UNL     1       9.260  -3.754  24.470  0.00  0.00    +0.022 A 
ATOM     22  C   UNL     1       8.600  -4.795  25.129  0.00  0.00    +0.025 A 
ATOM     23  C   UNL     1       7.842  -4.561  26.284  0.00  0.00    +0.032 A 
ATOM     24  C   UNL     1       7.709  -3.235  26.717  0.00  0.00    +0.039 A 
BRANCH  18  25
ATOM     25  C   UNL     1       8.266  -0.834  26.717  0.00  0.00    +0.338 C 
ATOM     26  O   UNL     1       7.377  -0.056  26.405  0.00  0.00    -0.245 OA
BRANCH  25  27
ATOM     27  O   UNL     1       9.223  -0.505  27.605  0.00  0.00    -0.477 OA
ATOM     28  H   UNL     1       9.313   0.449  27.797  0.00  0.00    +0.295 HD
ENDBRANCH  25  27
ENDBRANCH  18  25
ENDBRANCH  16  23
ENDBRANCH   1  16
TORSDOF 5
ENDMDL
MODEL 3
REMARK VINA RESULT:      -7.3      1.651      2.165
REMARK  Name = 
REMARK  5 active torsions:
REMARK  status: ('A' for Active; 'I' for Inactive)
REMARK    1  A    between atoms: O_1  and  C_2
REMARK    2  A    between atoms: C_2  and  C_4
REMARK    3  A    between atoms: C_6  and  N_7
REMARK    4  A    between atoms: N_7  and  C_8
REMARK    5  A    between atoms: C_9  and  C_15
REMARK                            x       y       z     vdW  Elec       q    Type
REMARK                         _______ _______ _______ _____ _____    ______ ____
ROOT
ATOM      1  C   UNL     1       8.093  -3.890  24.927  0.00  0.00    +0.107 C 
ATOM      2  C   UNL     1       9.317  -4.652  25.289  0.00  0.00    +0.265 C 
ATOM      3  O   UNL     1      10.368  -4.600  24.675  0.00  0.00    -0.268 OA
ATOM      4  N   UNL     1       9.019  -5.413  26.357  0.00  0.00    -0.247 N 
ATOM      5  H   UNL     1       9.656  -6.053  26.801  0.00  0.00    +0.158 HD
ATOM      6  C   UNL     1       7.700  -5.339  26.637  0.00  0.00    +0.253 C 
ATOM      7  O   UNL     1       7.116  -5.979  27.491  0.00  0.00    -0.270 OA
ATOM      8  C   UNL     1       7.096  -4.370  25.688  0.00  0.00    +0.070 C 
ENDROOT
BRANCH   8   9
ATOM      9  C   UNL     1       5.670  -4.048  25.565  0.00  0.00    -0.010 A 
ATOM     10  C   UNL     1       5.072  -3.056  26.351  0.00  0.00    +0.009 A 
ATOM     11  C   UNL     1       3.719  -2.742  26.195  0.00  0.00    +0.002 A 
ATOM     12  C   UNL     1       2.947  -3.416  25.250  0.00  0.00    +0.020 A 
ATOM     13  C   UNL     1       3.524  -4.418  24.480  0.00  0.00    +0.042 A 
ATOM     14 CL   UNL     1       2.588  -5.246  23.296  0.00  0.00    -0.084 Cl
ATOM     15  C   UNL     1       4.865  -4.747  24.648  0.00  0.00    +0.028 A 
ENDBRANCH   8   9
BRANCH   1  16
ATOM     16  N   UNL     1       8.131  -2.992  23.877  0.00  0.00    -0.310 N 
ATOM     17  H   UNL     1       8.720  -3.357  23.122  0.00  0.00    +0.152 HD
BRANCH  16  23
ATOM     18  C   UNL     1       8.744   0.668  23.132  0.00  0.00    +0.079 A 
ATOM     19  C   UNL     1       8.755   1.173  24.438  0.00  0.00    +0.055 A 
ATOM     20 CL   UNL     1       8.936   2.849  24.814  0.00  0.00    -0.083 Cl
ATOM     21  C   UNL     1       8.596   0.302  25.517  0.00  0.00    +0.022 A 
ATOM     22  C   UNL     1       8.396  -1.064  25.301  0.00  0.00    +0.025 A 
ATOM     23  C   UNL     1       8.339  -1.595  24.005  0.00  0.00    +0.032 A 
ATOM     24  C   UNL     1       8.560  -0.721  22.933  0.00  0.00    +0.039 A 
BRANCH  18  25
ATOM     25  C   UNL     1       8.834   1.500  21.901  0.00  0.00    +0.338 C 
ATOM     26  O   UNL     1       7.861   1.691  21.188  0.00  0.00    -0.245 OA
BRANCH  25  27
ATOM     27  O   UNL     1      10.056   1.970  21.582  0.00  0.00    -0.477 OA
ATOM     28  H   UNL     1      10.810   1.418  21.867  0.00  0.00    +0.295 HD
ENDBRANCH  25  27
ENDBRANCH  18  25
ENDBRANCH  16  23
ENDBRANCH   1  16
TORSDOF 5
ENDMDL
MODEL 4
REMARK VINA RESULT:      -7.3      1.716      2.188
REMARK  Name = 
REMARK  5 active torsions:
REMARK  status: ('A' for Active; 'I' for Inactive)
REMARK    1  A    between atoms: O_1  and  C_2
REMARK    2  A    between atoms: C_2  and  C_4
REMARK    3  A    between atoms: C_6  and  N_7
REMARK    4  A    between atoms: N_7  and  C_8
REMARK    5  A    between atoms: C_9  and  C_15
REMARK                            x       y       z     vdW  Elec       q    Type
REMARK                         _______ _______ _______ _____ _____    ______ ____
ROOT
ATOM      1  C   UNL     1       7.857  -4.359  24.269  0.00  0.00    +0.107 C 
ATOM      2  C   UNL     1       9.085  -4.695  25.037  0.00  0.00    +0.265 C 
ATOM      3  O   UNL     1      10.220  -4.529  24.628  0.00  0.00    -0.268 OA
ATOM      4  N   UNL     1       8.696  -5.243  26.202  0.00  0.00    -0.247 N 
ATOM      5  H   UNL     1       9.322  -5.590  26.908  0.00  0.00    +0.158 HD
ATOM      6  C   UNL     1       7.360  -5.433  26.212  0.00  0.00    +0.253 C 
ATOM      7  O   UNL     1       6.725  -5.986  27.092  0.00  0.00    -0.270 OA
ATOM      8  C   UNL     1       6.821  -4.883  24.943  0.00  0.00    +0.070 C 
ENDROOT
BRANCH   8   9
ATOM      9  C   UNL     1       5.428  -4.956  24.487  0.00  0.00    -0.010 A 
ATOM     10  C   UNL     1       5.033  -5.843  23.478  0.00  0.00    +0.009 A 
ATOM     11  C   UNL     1       3.695  -5.920  23.081  0.00  0.00    +0.002 A 
ATOM     12  C   UNL     1       2.735  -5.113  23.689  0.00  0.00    +0.020 A 
ATOM     13  C   UNL     1       3.118  -4.214  24.675  0.00  0.00    +0.042 A 
ATOM     14 CL   UNL     1       1.941  -3.224  25.448  0.00  0.00    -0.084 Cl
ATOM     15  C   UNL     1       4.453  -4.120  25.058  0.00  0.00    +0.028 A 
ENDBRANCH   8   9
BRANCH   1  16
ATOM     16  N   UNL     1       7.966  -3.741  23.038  0.00  0.00    -0.310 N 
ATOM     17  H   UNL     1       8.623  -4.256  22.442  0.00  0.00    +0.152 HD
BRANCH  16  23
ATOM     18  C   UNL     1       7.500   0.015  23.072  0.00  0.00    +0.079 A 
ATOM     19  C   UNL     1       8.625   0.397  22.330  0.00  0.00    +0.055 A 
ATOM     20 CL   UNL     1       9.053   2.041  22.018  0.00  0.00    -0.083 Cl
ATOM     21  C   UNL     1       9.478  -0.581  21.817  0.00  0.00    +0.022 A 
ATOM     22  C   UNL     1       9.233  -1.935  22.063  0.00  0.00    +0.025 A 
ATOM     23  C   UNL     1       8.139  -2.348  22.836  0.00  0.00    +0.032 A 
ATOM     24  C   UNL     1       7.256  -1.361  23.295  0.00  0.00    +0.039 A 
BRANCH  18  25
ATOM     25  C   UNL     1       6.557   0.962  23.727  0.00  0.00    +0.338 C 
ATOM     26  O   UNL     1       6.549   1.117  24.939  0.00  0.00    -0.245 OA
BRANCH  25  27
ATOM     27  O   UNL     1       5.672   1.582  22.923  0.00  0.00    -0.477 OA
ATOM     28  H   UNL     1       4.765   1.667  23.276  0.00  0.00    +0.295 HD
ENDBRANCH  25  27
ENDBRANCH  18  25
ENDBRANCH  16  23
ENDBRANCH   1  16
TORSDOF 5
ENDMDL
MODEL 5
REMARK VINA RESULT:      -7.2      2.779      5.781
REMARK  Name = 
REMARK  5 active torsions:
REMARK  status: ('A' for Active; 'I' for Inactive)
REMARK    1  A    between atoms: O_1  and  C_2
REMARK    2  A    between atoms: C_2  and  C_4
REMARK    3  A    between atoms: C_6  and  N_7
REMARK    4  A    between atoms: N_7  and  C_8
REMARK    5  A    between atoms: C_9  and  C_15
REMARK                            x       y       z     vdW  Elec       q    Type
REMARK                         _______ _______ _______ _____ _____    ______ ____
ROOT
ATOM      1  C   UNL     1       9.462  -1.122  24.363  0.00  0.00    +0.107 C 
ATOM      2  C   UNL     1      10.352   0.046  24.136  0.00  0.00    +0.265 C 
ATOM      3  O   UNL     1      10.920   0.662  25.021  0.00  0.00    -0.268 OA
ATOM      4  N   UNL     1      10.358   0.300  22.816  0.00  0.00    -0.247 N 
ATOM      5  H   UNL     1      10.858   1.057  22.380  0.00  0.00    +0.158 HD
ATOM      6  C   UNL     1       9.458  -0.481  22.180  0.00  0.00    +0.253 C 
ATOM      7  O   UNL     1       9.175  -0.424  20.998  0.00  0.00    -0.270 OA
ATOM      8  C   UNL     1       8.858  -1.384  23.193  0.00  0.00    +0.070 C 
ENDROOT
BRANCH   8   9
ATOM      9  C   UNL     1       7.765  -2.338  22.967  0.00  0.00    -0.010 A 
ATOM     10  C   UNL     1       6.424  -1.941  23.014  0.00  0.00    +0.009 A 
ATOM     11  C   UNL     1       5.399  -2.859  22.763  0.00  0.00    +0.002 A 
ATOM     12  C   UNL     1       5.705  -4.185  22.462  0.00  0.00    +0.020 A 
ATOM     13  C   UNL     1       7.031  -4.596  22.434  0.00  0.00    +0.042 A 
ATOM     14 CL   UNL     1       7.423  -6.226  22.045  0.00  0.00    -0.084 Cl
ATOM     15  C   UNL     1       8.052  -3.689  22.704  0.00  0.00    +0.028 A 
ENDBRANCH   8   9
BRANCH   1  16
ATOM     16  N   UNL     1       9.304  -1.625  25.641  0.00  0.00    -0.310 N 
ATOM     17  H   UNL     1      10.113  -2.200  25.896  0.00  0.00    +0.152 HD
BRANCH  16  23
ATOM     18  C   UNL     1       6.723  -4.141  26.797  0.00  0.00    +0.079 A 
ATOM     19  C   UNL     1       5.683  -3.268  27.139  0.00  0.00    +0.055 A 
ATOM     20 CL   UNL     1       4.181  -3.787  27.817  0.00  0.00    -0.083 Cl
ATOM     21  C   UNL     1       5.844  -1.894  26.951  0.00  0.00    +0.022 A 
ATOM     22  C   UNL     1       7.046  -1.384  26.453  0.00  0.00    +0.025 A 
ATOM     23  C   UNL     1       8.121  -2.227  26.139  0.00  0.00    +0.032 A 
ATOM     24  C   UNL     1       7.926  -3.608  26.275  0.00  0.00    +0.039 A 
BRANCH  18  25
ATOM     25  C   UNL     1       6.698  -5.613  27.014  0.00  0.00    +0.338 C 
ATOM     26  O   UNL     1       5.949  -6.338  26.377  0.00  0.00    -0.245 OA
BRANCH  25  27
ATOM     27  O   UNL     1       7.493  -6.091  27.991  0.00  0.00    -0.477 OA
ATOM     28  H   UNL     1       7.267  -5.806  28.898  0.00  0.00    +0.295 HD
ENDBRANCH  25  27
ENDBRANCH  18  25
ENDBRANCH  16  23
ENDBRANCH   1  16
TORSDOF 5
ENDMDL
MODEL 6
REMARK VINA RESULT:      -7.1      2.184      2.782
REMARK  Name = 
REMARK  5 active torsions:
REMARK  status: ('A' for Active; 'I' for Inactive)
REMARK    1  A    between atoms: O_1  and  C_2
REMARK    2  A    between atoms: C_2  and  C_4
REMARK    3  A    between atoms: C_6  and  N_7
REMARK    4  A    between atoms: N_7  and  C_8
REMARK    5  A    between atoms: C_9  and  C_15
REMARK                            x       y       z     vdW  Elec       q    Type
REMARK                         _______ _______ _______ _____ _____    ______ ____
ROOT
ATOM      1  C   UNL     1       8.135  -3.924  25.076  0.00  0.00    +0.107 C 
ATOM      2  C   UNL     1       9.334  -4.737  25.412  0.00  0.00    +0.265 C 
ATOM      3  O   UNL     1      10.346  -4.783  24.737  0.00  0.00    -0.268 OA
ATOM      4  N   UNL     1       9.059  -5.417  26.540  0.00  0.00    -0.247 N 
ATOM      5  H   UNL     1       9.684  -6.068  26.983  0.00  0.00    +0.158 HD
ATOM      6  C   UNL     1       7.766  -5.248  26.890  0.00  0.00    +0.253 C 
ATOM      7  O   UNL     1       7.200  -5.802  27.813  0.00  0.00    -0.270 OA
ATOM      8  C   UNL     1       7.161  -4.300  25.921  0.00  0.00    +0.070 C 
ENDROOT
BRANCH   8   9
ATOM      9  C   UNL     1       5.750  -3.900  25.862  0.00  0.00    -0.010 A 
ATOM     10  C   UNL     1       4.778  -4.727  25.287  0.00  0.00    +0.009 A 
ATOM     11  C   UNL     1       3.434  -4.342  25.271  0.00  0.00    +0.002 A 
ATOM     12  C   UNL     1       3.046  -3.125  25.830  0.00  0.00    +0.020 A 
ATOM     13  C   UNL     1       4.005  -2.286  26.382  0.00  0.00    +0.042 A 
ATOM     14 CL   UNL     1       3.539  -0.789  27.093  0.00  0.00    -0.084 Cl
ATOM     15  C   UNL     1       5.347  -2.658  26.382  0.00  0.00    +0.028 A 
ENDBRANCH   8   9
BRANCH   1  16
ATOM     16  N   UNL     1       8.159  -3.091  23.974  0.00  0.00    -0.310 N 
ATOM     17  H   UNL     1       8.707  -3.518  23.221  0.00  0.00    +0.152 HD
BRANCH  16  23
ATOM     18  C   UNL     1       8.413   0.576  23.072  0.00  0.00    +0.079 A 
ATOM     19  C   UNL     1       9.005   1.064  24.242  0.00  0.00    +0.055 A 
ATOM     20 CL   UNL     1       9.349   2.735  24.517  0.00  0.00    -0.083 Cl
ATOM     21  C   UNL     1       9.332   0.180  25.272  0.00  0.00    +0.022 A 
ATOM     22  C   UNL     1       9.045  -1.182  25.153  0.00  0.00    +0.025 A 
ATOM     23  C   UNL     1       8.415  -1.697  24.011  0.00  0.00    +0.032 A 
ATOM     24  C   UNL     1       8.147  -0.809  22.960  0.00  0.00    +0.039 A 
BRANCH  18  25
ATOM     25  C   UNL     1       7.957   1.424  21.936  0.00  0.00    +0.338 C 
ATOM     26  O   UNL     1       6.867   1.975  21.950  0.00  0.00    -0.245 OA
BRANCH  25  27
ATOM     27  O   UNL     1       8.779   1.493  20.871  0.00  0.00    -0.477 OA
ATOM     28  H   UNL     1       8.340   1.514  19.998  0.00  0.00    +0.295 HD
ENDBRANCH  25  27
ENDBRANCH  18  25
ENDBRANCH  16  23
ENDBRANCH   1  16
TORSDOF 5
ENDMDL
MODEL 7
REMARK VINA RESULT:      -7.0      2.907      3.754
REMARK  Name = 
REMARK  5 active torsions:
REMARK  status: ('A' for Active; 'I' for Inactive)
REMARK    1  A    between atoms: O_1  and  C_2
REMARK    2  A    between atoms: C_2  and  C_4
REMARK    3  A    between atoms: C_6  and  N_7
REMARK    4  A    between atoms: N_7  and  C_8
REMARK    5  A    between atoms: C_9  and  C_15
REMARK                            x       y       z     vdW  Elec       q    Type
REMARK                         _______ _______ _______ _____ _____    ______ ____
ROOT
ATOM      1  C   UNL     1       6.772  -5.427  23.572  0.00  0.00    +0.107 C 
ATOM      2  C   UNL     1       6.407  -5.827  22.187  0.00  0.00    +0.265 C 
ATOM      3  O   UNL     1       7.127  -5.684  21.216  0.00  0.00    -0.268 OA
ATOM      4  N   UNL     1       5.152  -6.311  22.224  0.00  0.00    -0.247 N 
ATOM      5  H   UNL     1       4.639  -6.632  21.421  0.00  0.00    +0.158 HD
ATOM      6  C   UNL     1       4.613  -6.133  23.449  0.00  0.00    +0.253 C 
ATOM      7  O   UNL     1       3.466  -6.391  23.766  0.00  0.00    -0.270 OA
ATOM      8  C   UNL     1       5.658  -5.533  24.314  0.00  0.00    +0.070 C 
ENDROOT
BRANCH   8   9
ATOM      9  C   UNL     1       5.485  -5.083  25.701  0.00  0.00    -0.010 A 
ATOM     10  C   UNL     1       4.879  -3.858  26.004  0.00  0.00    +0.009 A 
ATOM     11  C   UNL     1       4.695  -3.464  27.332  0.00  0.00    +0.002 A 
ATOM     12  C   UNL     1       5.112  -4.290  28.374  0.00  0.00    +0.020 A 
ATOM     13  C   UNL     1       5.735  -5.498  28.085  0.00  0.00    +0.042 A 
ATOM     14 CL   UNL     1       6.239  -6.538  29.361  0.00  0.00    -0.084 Cl
ATOM     15  C   UNL     1       5.939  -5.884  26.764  0.00  0.00    +0.028 A 
ENDBRANCH   8   9
BRANCH   1  16
ATOM     16  N   UNL     1       8.034  -4.928  23.830  0.00  0.00    -0.310 N 
ATOM     17  H   UNL     1       8.495  -5.490  24.553  0.00  0.00    +0.152 HD
BRANCH  16  23
ATOM     18  C   UNL     1       8.866  -1.278  23.269  0.00  0.00    +0.079 A 
ATOM     19  C   UNL     1       8.976  -0.856  24.600  0.00  0.00    +0.055 A 
ATOM     20 CL   UNL     1       9.291   0.777  25.064  0.00  0.00    -0.083 Cl
ATOM     21  C   UNL     1       8.807  -1.780  25.633  0.00  0.00    +0.022 A 
ATOM     22  C   UNL     1       8.502  -3.113  25.348  0.00  0.00    +0.025 A 
ATOM     23  C   UNL     1       8.346  -3.559  24.029  0.00  0.00    +0.032 A 
ATOM     24  C   UNL     1       8.577  -2.637  22.999  0.00  0.00    +0.039 A 
BRANCH  18  25
ATOM     25  C   UNL     1       8.957  -0.380  22.086  0.00  0.00    +0.338 C 
ATOM     26  O   UNL     1       8.250   0.612  21.983  0.00  0.00    -0.245 OA
BRANCH  25  27
ATOM     27  O   UNL     1       9.806  -0.755  21.110  0.00  0.00    -0.477 OA
ATOM     28  H   UNL     1      10.336  -0.038  20.711  0.00  0.00    +0.295 HD
ENDBRANCH  25  27
ENDBRANCH  18  25
ENDBRANCH  16  23
ENDBRANCH   1  16
TORSDOF 5
ENDMDL
MODEL 8
REMARK VINA RESULT:      -7.0      3.276      5.259
REMARK  Name = 
REMARK  5 active torsions:
REMARK  status: ('A' for Active; 'I' for Inactive)
REMARK    1  A    between atoms: O_1  and  C_2
REMARK    2  A    between atoms: C_2  and  C_4
REMARK    3  A    between atoms: C_6  and  N_7
REMARK    4  A    between atoms: N_7  and  C_8
REMARK    5  A    between atoms: C_9  and  C_15
REMARK                            x       y       z     vdW  Elec       q    Type
REMARK                         _______ _______ _______ _____ _____    ______ ____
ROOT
ATOM      1  C   UNL     1       7.525  -3.621  25.868  0.00  0.00    +0.107 C 
ATOM      2  C   UNL     1       7.696  -4.780  26.783  0.00  0.00    +0.265 C 
ATOM      3  O   UNL     1       6.981  -5.013  27.740  0.00  0.00    -0.268 OA
ATOM      4  N   UNL     1       8.786  -5.457  26.379  0.00  0.00    -0.247 N 
ATOM      5  H   UNL     1       9.154  -6.275  26.835  0.00  0.00    +0.158 HD
ATOM      6  C   UNL     1       9.423  -4.784  25.396  0.00  0.00    +0.253 C 
ATOM      7  O   UNL     1      10.482  -5.100  24.888  0.00  0.00    -0.270 OA
ATOM      8  C   UNL     1       8.616  -3.578  25.086  0.00  0.00    +0.070 C 
ENDROOT
BRANCH   8   9
ATOM      9  C   UNL     1       8.977  -2.509  24.147  0.00  0.00    -0.010 A 
ATOM     10  C   UNL     1       8.594  -2.556  22.801  0.00  0.00    +0.009 A 
ATOM     11  C   UNL     1       8.920  -1.512  21.931  0.00  0.00    +0.002 A 
ATOM     12  C   UNL     1       9.631  -0.407  22.396  0.00  0.00    +0.020 A 
ATOM     13  C   UNL     1      10.035  -0.359  23.724  0.00  0.00    +0.042 A 
ATOM     14 CL   UNL     1      10.898   1.007  24.317  0.00  0.00    -0.084 Cl
ATOM     15  C   UNL     1       9.731  -1.407  24.587  0.00  0.00    +0.028 A 
ENDBRANCH   8   9
BRANCH   1  16
ATOM     16  N   UNL     1       6.448  -2.771  26.032  0.00  0.00    -0.310 N 
ATOM     17  H   UNL     1       5.669  -3.068  25.435  0.00  0.00    +0.152 HD
BRANCH  16  23
ATOM     18  C   UNL     1       6.140   0.885  25.101  0.00  0.00    +0.079 A 
ATOM     19  C   UNL     1       6.759   1.462  26.216  0.00  0.00    +0.055 A 
ATOM     20 CL   UNL     1       6.901   3.167  26.456  0.00  0.00    -0.083 Cl
ATOM     21  C   UNL     1       7.284   0.643  27.217  0.00  0.00    +0.022 A 
ATOM     22  C   UNL     1       7.170  -0.747  27.126  0.00  0.00    +0.025 A 
ATOM     23  C   UNL     1       6.520  -1.355  26.043  0.00  0.00    +0.032 A 
ATOM     24  C   UNL     1       6.051  -0.525  25.016  0.00  0.00    +0.039 A 
BRANCH  18  25
ATOM     25  C   UNL     1       5.483   1.649  24.006  0.00  0.00    +0.338 C 
ATOM     26  O   UNL     1       4.460   2.288  24.199  0.00  0.00    -0.245 OA
BRANCH  25  27
ATOM     27  O   UNL     1       6.037   1.542  22.782  0.00  0.00    -0.477 OA
ATOM     28  H   UNL     1       6.933   1.921  22.688  0.00  0.00    +0.295 HD
ENDBRANCH  25  27
ENDBRANCH  18  25
ENDBRANCH  16  23
ENDBRANCH   1  16
TORSDOF 5
ENDMDL
MODEL 9
REMARK VINA RESULT:      -6.9      2.138      6.890
REMARK  Name = 
REMARK  5 active torsions:
REMARK  status: ('A' for Active; 'I' for Inactive)
REMARK    1  A    between atoms: O_1  and  C_2
REMARK    2  A    between atoms: C_2  and  C_4
REMARK    3  A    between atoms: C_6  and  N_7
REMARK    4  A    between atoms: N_7  and  C_8
REMARK    5  A    between atoms: C_9  and  C_15
REMARK                            x       y       z     vdW  Elec       q    Type
REMARK                         _______ _______ _______ _____ _____    ______ ____
ROOT
ATOM      1  C   UNL     1       7.349  -3.990  25.900  0.00  0.00    +0.107 C 
ATOM      2  C   UNL     1       7.593  -5.056  26.907  0.00  0.00    +0.265 C 
ATOM      3  O   UNL     1       6.849  -5.308  27.838  0.00  0.00    -0.268 OA
ATOM      4  N   UNL     1       8.776  -5.625  26.616  0.00  0.00    -0.247 N 
ATOM      5  H   UNL     1       9.205  -6.361  27.150  0.00  0.00    +0.158 HD
ATOM      6  C   UNL     1       9.393  -4.949  25.623  0.00  0.00    +0.253 C 
ATOM      7  O   UNL     1      10.512  -5.171  25.198  0.00  0.00    -0.270 OA
ATOM      8  C   UNL     1       8.476  -3.870  25.179  0.00  0.00    +0.070 C 
ENDROOT
BRANCH   8   9
ATOM      9  C   UNL     1       8.772  -2.832  24.185  0.00  0.00    -0.010 A 
ATOM     10  C   UNL     1       8.256  -2.894  22.885  0.00  0.00    +0.009 A 
ATOM     11  C   UNL     1       8.523  -1.877  21.964  0.00  0.00    +0.002 A 
ATOM     12  C   UNL     1       9.307  -0.785  22.331  0.00  0.00    +0.020 A 
ATOM     13  C   UNL     1       9.843  -0.724  23.611  0.00  0.00    +0.042 A 
ATOM     14 CL   UNL     1      10.798   0.627  24.085  0.00  0.00    -0.084 Cl
ATOM     15  C   UNL     1       9.596  -1.745  24.524  0.00  0.00    +0.028 A 
ENDBRANCH   8   9
BRANCH   1  16
ATOM     16  N   UNL     1       6.174  -3.264  25.942  0.00  0.00    -0.310 N 
ATOM     17  H   UNL     1       6.102  -2.759  26.831  0.00  0.00    +0.152 HD
BRANCH  16  23
ATOM     18  C   UNL     1       3.368  -5.396  24.559  0.00  0.00    +0.079 A 
ATOM     19  C   UNL     1       2.274  -4.596  24.908  0.00  0.00    +0.055 A 
ATOM     20 CL   UNL     1       0.631  -5.038  24.608  0.00  0.00    -0.083 Cl
ATOM     21  C   UNL     1       2.487  -3.376  25.551  0.00  0.00    +0.022 A 
ATOM     22  C   UNL     1       3.782  -2.963  25.875  0.00  0.00    +0.025 A 
ATOM     23  C   UNL     1       4.896  -3.759  25.576  0.00  0.00    +0.032 A 
ATOM     24  C   UNL     1       4.674  -4.953  24.877  0.00  0.00    +0.039 A 
BRANCH  18  25
ATOM     25  C   UNL     1       3.268  -6.744  23.935  0.00  0.00    +0.338 C 
ATOM     26  O   UNL     1       3.593  -7.753  24.542  0.00  0.00    -0.245 OA
BRANCH  25  27
ATOM     27  O   UNL     1       2.867  -6.782  22.650  0.00  0.00    -0.477 OA
ATOM     28  H   UNL     1       2.862  -5.925  22.181  0.00  0.00    +0.295 HD
ENDBRANCH  25  27
ENDBRANCH  18  25
ENDBRANCH  16  23
ENDBRANCH   1  16
TORSDOF 5
ENDMDL
