MODEL 1
REMARK VINA RESULT:      -5.3      0.000      0.000
REMARK  Name = 
REMARK  8 active torsions:
REMARK  status: ('A' for Active; 'I' for Inactive)
REMARK    1  A    between atoms: C_1  and  C_2
REMARK    2  A    between atoms: C_2  and  N_3
REMARK    3  A    between atoms: N_7  and  C_8
REMARK    4  A    between atoms: C_8  and  C_9
REMARK    5  A    between atoms: C_8  and  C_10
REMARK    6  A    between atoms: C_8  and  C_11
REMARK    7  A    between atoms: C_13  and  S_14
REMARK    8  A    between atoms: S_14  and  C_15
REMARK                            x       y       z     vdW  Elec       q    Type
REMARK                         _______ _______ _______ _____ _____    ______ ____
ROOT
ATOM      1  N   UNL     1       8.410  -3.282  26.055  0.00  0.00    -0.314 N 
ATOM      2  H   UNL     1       8.804  -2.436  26.455  0.00  0.00    +0.149 HD
ATOM      3  C   UNL     1       8.217  -3.022  24.708  0.00  0.00    +0.220 A 
ATOM      4  N   UNL     1       7.436  -3.790  23.969  0.00  0.00    -0.189 NA
ATOM      5  C   UNL     1       7.375  -3.447  22.687  0.00  0.00    +0.194 A 
ATOM      6  N   UNL     1       8.004  -2.415  22.131  0.00  0.00    -0.189 NA
ATOM      7  C   UNL     1       8.750  -1.703  22.958  0.00  0.00    +0.221 A 
ATOM      8  N   UNL     1       9.414  -0.629  22.391  0.00  0.00    -0.309 N 
ATOM      9  H   UNL     1       9.019  -0.511  21.463  0.00  0.00    +0.149 HD
ATOM     10  N   UNL     1       8.875  -1.971  24.247  0.00  0.00    -0.181 NA
ENDROOT
BRANCH   8  11
ATOM     11  C   UNL     1       9.629   0.618  23.137  0.00  0.00    +0.026 C 
ATOM     12  C   UNL     1       8.342   1.082  23.837  0.00  0.00    +0.031 C 
ATOM     13  C   UNL     1      10.027   1.691  22.103  0.00  0.00    +0.031 C 
ATOM     14  C   UNL     1      10.788   0.492  24.140  0.00  0.00    +0.031 C 
ENDBRANCH   8  11
BRANCH   1  16
ATOM     15  C   UNL     1       7.593  -5.298  27.110  0.00  0.00    +0.024 C 
ATOM     16  C   UNL     1       7.283  -3.848  26.768  0.00  0.00    +0.101 C 
ENDBRANCH   1  16
BRANCH   5  17
ATOM     17  S   UNL     1       6.318  -4.388  21.606  0.00  0.00    -0.089 S 
ATOM     18  C   UNL     1       6.977  -6.048  21.892  0.00  0.00    +0.093 C 
ENDBRANCH   5  17
TORSDOF 3
ENDMDL
MODEL 2
REMARK VINA RESULT:      -5.1      2.403      5.723
REMARK  Name = 
REMARK  8 active torsions:
REMARK  status: ('A' for Active; 'I' for Inactive)
REMARK    1  A    between atoms: C_1  and  C_2
REMARK    2  A    between atoms: C_2  and  N_3
REMARK    3  A    between atoms: N_7  and  C_8
REMARK    4  A    between atoms: C_8  and  C_9
REMARK    5  A    between atoms: C_8  and  C_10
REMARK    6  A    between atoms: C_8  and  C_11
REMARK    7  A    between atoms: C_13  and  S_14
REMARK    8  A    between atoms: S_14  and  C_15
REMARK                            x       y       z     vdW  Elec       q    Type
REMARK                         _______ _______ _______ _____ _____    ______ ____
ROOT
ATOM      1  N   UNL     1       9.772  -1.220  21.887  0.00  0.00    -0.314 N 
ATOM      2  H   UNL     1       9.311  -1.636  21.083  0.00  0.00    +0.149 HD
ATOM      3  C   UNL     1       9.108  -1.698  23.006  0.00  0.00    +0.220 A 
ATOM      4  N   UNL     1       9.249  -1.116  24.184  0.00  0.00    -0.189 NA
ATOM      5  C   UNL     1       8.586  -1.704  25.174  0.00  0.00    +0.194 A 
ATOM      6  N   UNL     1       7.811  -2.779  25.056  0.00  0.00    -0.189 NA
ATOM      7  C   UNL     1       7.728  -3.278  23.835  0.00  0.00    +0.221 A 
ATOM      8  N   UNL     1       6.928  -4.399  23.699  0.00  0.00    -0.309 N 
ATOM      9  H   UNL     1       6.414  -4.486  24.570  0.00  0.00    +0.149 HD
ATOM     10  N   UNL     1       8.355  -2.764  22.790  0.00  0.00    -0.181 NA
ENDROOT
BRANCH   8  11
ATOM     11  C   UNL     1       6.136  -4.631  22.484  0.00  0.00    +0.026 C 
ATOM     12  C   UNL     1       5.712  -3.307  21.829  0.00  0.00    +0.031 C 
ATOM     13  C   UNL     1       4.861  -5.380  22.922  0.00  0.00    +0.031 C 
ATOM     14  C   UNL     1       6.877  -5.531  21.480  0.00  0.00    +0.031 C 
ENDBRANCH   8  11
BRANCH   1  16
ATOM     15  C   UNL     1       8.702   0.870  21.311  0.00  0.00    +0.024 C 
ATOM     16  C   UNL     1       9.974   0.213  21.824  0.00  0.00    +0.101 C 
ENDBRANCH   1  16
BRANCH   5  17
ATOM     17  S   UNL     1       8.669  -0.979  26.798  0.00  0.00    -0.089 S 
ATOM     18  C   UNL     1       7.555   0.429  26.569  0.00  0.00    +0.093 C 
ENDBRANCH   5  17
TORSDOF 3
ENDMDL
MODEL 3
REMARK VINA RESULT:      -5.0      1.761      3.412
REMARK  Name = 
REMARK  8 active torsions:
REMARK  status: ('A' for Active; 'I' for Inactive)
REMARK    1  A    between atoms: C_1  and  C_2
REMARK    2  A    between atoms: C_2  and  N_3
REMARK    3  A    between atoms: N_7  and  C_8
REMARK    4  A    between atoms: C_8  and  C_9
REMARK    5  A    between atoms: C_8  and  C_10
REMARK    6  A    between atoms: C_8  and  C_11
REMARK    7  A    between atoms: C_13  and  S_14
REMARK    8  A    between atoms: S_14  and  C_15
REMARK                            x       y       z     vdW  Elec       q    Type
REMARK                         _______ _______ _______ _____ _____    ______ ____
ROOT
ATOM      1  N   UNL     1       6.705  -3.823  21.871  0.00  0.00    -0.314 N 
ATOM      2  H   UNL     1       6.786  -3.137  21.127  0.00  0.00    +0.149 HD
ATOM      3  C   UNL     1       7.469  -3.346  22.924  0.00  0.00    +0.220 A 
ATOM      4  N   UNL     1       7.833  -4.137  23.918  0.00  0.00    -0.189 NA
ATOM      5  C   UNL     1       8.528  -3.536  24.877  0.00  0.00    +0.194 A 
ATOM      6  N   UNL     1       8.883  -2.254  24.890  0.00  0.00    -0.189 NA
ATOM      7  C   UNL     1       8.480  -1.552  23.845  0.00  0.00    +0.221 A 
ATOM      8  N   UNL     1       8.839  -0.215  23.847  0.00  0.00    -0.309 N 
ATOM      9  H   UNL     1       9.518  -0.106  24.594  0.00  0.00    +0.149 HD
ATOM     10  N   UNL     1       7.781  -2.062  22.845  0.00  0.00    -0.181 NA
ENDROOT
BRANCH   8  11
ATOM     11  C   UNL     1       9.167   0.491  22.602  0.00  0.00    +0.026 C 
ATOM     12  C   UNL     1       9.818  -0.451  21.577  0.00  0.00    +0.031 C 
ATOM     13  C   UNL     1      10.193   1.583  22.968  0.00  0.00    +0.031 C 
ATOM     14  C   UNL     1       7.939   1.196  22.002  0.00  0.00    +0.031 C 
ENDBRANCH   8  11
BRANCH   1  16
ATOM     15  C   UNL     1       5.693  -6.018  21.814  0.00  0.00    +0.024 C 
ATOM     16  C   UNL     1       6.933  -5.201  21.485  0.00  0.00    +0.101 C 
ENDBRANCH   1  16
BRANCH   5  17
ATOM     17  S   UNL     1       9.107  -4.517  26.246  0.00  0.00    -0.089 S 
ATOM     18  C   UNL     1       7.548  -5.267  26.775  0.00  0.00    +0.093 C 
ENDBRANCH   5  17
TORSDOF 3
ENDMDL
MODEL 4
REMARK VINA RESULT:      -4.8      2.481      3.637
REMARK  Name = 
REMARK  8 active torsions:
REMARK  status: ('A' for Active; 'I' for Inactive)
REMARK    1  A    between atoms: C_1  and  C_2
REMARK    2  A    between atoms: C_2  and  N_3
REMARK    3  A    between atoms: N_7  and  C_8
REMARK    4  A    between atoms: C_8  and  C_9
REMARK    5  A    between atoms: C_8  and  C_10
REMARK    6  A    between atoms: C_8  and  C_11
REMARK    7  A    between atoms: C_13  and  S_14
REMARK    8  A    between atoms: S_14  and  C_15
REMARK                            x       y       z     vdW  Elec       q    Type
REMARK                         _______ _______ _______ _____ _____    ______ ____
ROOT
ATOM      1  N   UNL     1       6.216  -3.824  21.516  0.00  0.00    -0.314 N 
ATOM      2  H   UNL     1       7.113  -3.726  21.051  0.00  0.00    +0.149 HD
ATOM      3  C   UNL     1       6.258  -2.988  22.621  0.00  0.00    +0.220 A 
ATOM      4  N   UNL     1       5.385  -3.113  23.605  0.00  0.00    -0.189 NA
ATOM      5  C   UNL     1       5.519  -2.220  24.580  0.00  0.00    +0.194 A 
ATOM      6  N   UNL     1       6.445  -1.267  24.636  0.00  0.00    -0.189 NA
ATOM      7  C   UNL     1       7.276  -1.234  23.608  0.00  0.00    +0.221 A 
ATOM      8  N   UNL     1       8.243  -0.244  23.651  0.00  0.00    -0.309 N 
ATOM      9  H   UNL     1       8.212   0.139  24.591  0.00  0.00    +0.149 HD
ATOM     10  N   UNL     1       7.218  -2.078  22.592  0.00  0.00    -0.181 NA
ENDROOT
BRANCH   8  11
ATOM     11  C   UNL     1       9.592  -0.468  23.115  0.00  0.00    +0.026 C 
ATOM     12  C   UNL     1      10.073  -1.902  23.387  0.00  0.00    +0.031 C 
ATOM     13  C   UNL     1      10.532   0.503  23.859  0.00  0.00    +0.031 C 
ATOM     14  C   UNL     1       9.675  -0.133  21.617  0.00  0.00    +0.031 C 
ENDBRANCH   8  11
BRANCH   1  16
ATOM     15  C   UNL     1       6.998  -6.073  21.930  0.00  0.00    +0.024 C 
ATOM     16  C   UNL     1       5.777  -5.183  21.756  0.00  0.00    +0.101 C 
ENDBRANCH   1  16
BRANCH   5  17
ATOM     17  S   UNL     1       4.422  -2.321  25.979  0.00  0.00    -0.089 S 
ATOM     18  C   UNL     1       3.170  -3.446  25.315  0.00  0.00    +0.093 C 
ENDBRANCH   5  17
TORSDOF 3
ENDMDL
MODEL 5
REMARK VINA RESULT:      -4.8      1.316      1.786
REMARK  Name = 
REMARK  8 active torsions:
REMARK  status: ('A' for Active; 'I' for Inactive)
REMARK    1  A    between atoms: C_1  and  C_2
REMARK    2  A    between atoms: C_2  and  N_3
REMARK    3  A    between atoms: N_7  and  C_8
REMARK    4  A    between atoms: C_8  and  C_9
REMARK    5  A    between atoms: C_8  and  C_10
REMARK    6  A    between atoms: C_8  and  C_11
REMARK    7  A    between atoms: C_13  and  S_14
REMARK    8  A    between atoms: S_14  and  C_15
REMARK                            x       y       z     vdW  Elec       q    Type
REMARK                         _______ _______ _______ _____ _____    ______ ____
ROOT
ATOM      1  N   UNL     1       8.078  -3.872  26.168  0.00  0.00    -0.314 N 
ATOM      2  H   UNL     1       8.422  -2.952  26.426  0.00  0.00    +0.149 HD
ATOM      3  C   UNL     1       7.860  -3.835  24.800  0.00  0.00    +0.220 A 
ATOM      4  N   UNL     1       7.122  -4.754  24.201  0.00  0.00    -0.189 NA
ATOM      5  C   UNL     1       7.031  -4.617  22.883  0.00  0.00    +0.194 A 
ATOM      6  N   UNL     1       7.591  -3.648  22.164  0.00  0.00    -0.189 NA
ATOM      7  C   UNL     1       8.298  -2.773  22.859  0.00  0.00    +0.221 A 
ATOM      8  N   UNL     1       8.890  -1.762  22.123  0.00  0.00    -0.309 N 
ATOM      9  H   UNL     1       8.482  -1.813  21.194  0.00  0.00    +0.149 HD
ATOM     10  N   UNL     1       8.449  -2.831  24.171  0.00  0.00    -0.181 NA
ENDROOT
BRANCH   8  11
ATOM     11  C   UNL     1       9.032  -0.404  22.665  0.00  0.00    +0.026 C 
ATOM     12  C   UNL     1       9.387   0.606  21.562  0.00  0.00    +0.031 C 
ATOM     13  C   UNL     1      10.202  -0.448  23.669  0.00  0.00    +0.031 C 
ATOM     14  C   UNL     1       7.778   0.039  23.436  0.00  0.00    +0.031 C 
ENDBRANCH   8  11
BRANCH   1  16
ATOM     15  C   UNL     1       5.945  -3.300  27.151  0.00  0.00    +0.024 C 
ATOM     16  C   UNL     1       6.994  -4.388  26.978  0.00  0.00    +0.101 C 
ENDBRANCH   1  16
BRANCH   5  17
ATOM     17  S   UNL     1       6.026  -5.776  21.977  0.00  0.00    -0.089 S 
ATOM     18  C   UNL     1       4.507  -5.705  22.958  0.00  0.00    +0.093 C 
ENDBRANCH   5  17
TORSDOF 3
ENDMDL
MODEL 6
REMARK VINA RESULT:      -4.7      4.063      7.246
REMARK  Name = 
REMARK  8 active torsions:
REMARK  status: ('A' for Active; 'I' for Inactive)
REMARK    1  A    between atoms: C_1  and  C_2
REMARK    2  A    between atoms: C_2  and  N_3
REMARK    3  A    between atoms: N_7  and  C_8
REMARK    4  A    between atoms: C_8  and  C_9
REMARK    5  A    between atoms: C_8  and  C_10
REMARK    6  A    between atoms: C_8  and  C_11
REMARK    7  A    between atoms: C_13  and  S_14
REMARK    8  A    between atoms: S_14  and  C_15
REMARK                            x       y       z     vdW  Elec       q    Type
REMARK                         _______ _______ _______ _____ _____    ______ ____
ROOT
ATOM      1  N   UNL     1      11.448   3.665  23.663  0.00  0.00    -0.314 N 
ATOM      2  H   UNL     1      11.935   2.806  23.426  0.00  0.00    +0.149 HD
ATOM      3  C   UNL     1      10.095   3.388  23.546  0.00  0.00    +0.220 A 
ATOM      4  N   UNL     1       9.202   4.361  23.476  0.00  0.00    -0.189 NA
ATOM      5  C   UNL     1       7.941   3.950  23.406  0.00  0.00    +0.194 A 
ATOM      6  N   UNL     1       7.539   2.682  23.384  0.00  0.00    -0.189 NA
ATOM      7  C   UNL     1       8.510   1.787  23.447  0.00  0.00    +0.221 A 
ATOM      8  N   UNL     1       8.105   0.463  23.429  0.00  0.00    -0.309 N 
ATOM      9  H   UNL     1       7.122   0.472  23.175  0.00  0.00    +0.149 HD
ATOM     10  N   UNL     1       9.792   2.101  23.522  0.00  0.00    -0.181 NA
ENDROOT
BRANCH   8  11
ATOM     11  C   UNL     1       8.908  -0.573  22.766  0.00  0.00    +0.026 C 
ATOM     12  C   UNL     1       9.433  -0.091  21.405  0.00  0.00    +0.031 C 
ATOM     13  C   UNL     1       7.970  -1.772  22.520  0.00  0.00    +0.031 C 
ATOM     14  C   UNL     1      10.059  -1.064  23.659  0.00  0.00    +0.031 C 
ENDBRANCH   8  11
BRANCH   1  16
ATOM     15  C   UNL     1      12.382   5.862  24.041  0.00  0.00    +0.024 C 
ATOM     16  C   UNL     1      11.919   4.860  22.994  0.00  0.00    +0.101 C 
ENDBRANCH   1  16
BRANCH   5  17
ATOM     17  S   UNL     1       6.657   5.176  23.265  0.00  0.00    -0.089 S 
ATOM     18  C   UNL     1       7.356   6.211  21.957  0.00  0.00    +0.093 C 
ENDBRANCH   5  17
TORSDOF 3
ENDMDL
MODEL 7
REMARK VINA RESULT:      -4.7      2.547      5.085
REMARK  Name = 
REMARK  8 active torsions:
REMARK  status: ('A' for Active; 'I' for Inactive)
REMARK    1  A    between atoms: C_1  and  C_2
REMARK    2  A    between atoms: C_2  and  N_3
REMARK    3  A    between atoms: N_7  and  C_8
REMARK    4  A    between atoms: C_8  and  C_9
REMARK    5  A    between atoms: C_8  and  C_10
REMARK    6  A    between atoms: C_8  and  C_11
REMARK    7  A    between atoms: C_13  and  S_14
REMARK    8  A    between atoms: S_14  and  C_15
REMARK                            x       y       z     vdW  Elec       q    Type
REMARK                         _______ _______ _______ _____ _____    ______ ____
ROOT
ATOM      1  N   UNL     1       6.965  -1.028  26.055  0.00  0.00    -0.314 N 
ATOM      2  H   UNL     1       6.620  -1.943  26.330  0.00  0.00    +0.149 HD
ATOM      3  C   UNL     1       7.473  -1.173  24.774  0.00  0.00    +0.220 A 
ATOM      4  N   UNL     1       8.275  -0.262  24.250  0.00  0.00    -0.189 NA
ATOM      5  C   UNL     1       8.654  -0.512  23.001  0.00  0.00    +0.194 A 
ATOM      6  N   UNL     1       8.311  -1.580  22.286  0.00  0.00    -0.189 NA
ATOM      7  C   UNL     1       7.516  -2.436  22.905  0.00  0.00    +0.221 A 
ATOM      8  N   UNL     1       7.148  -3.550  22.171  0.00  0.00    -0.309 N 
ATOM      9  H   UNL     1       7.743  -3.555  21.348  0.00  0.00    +0.149 HD
ATOM     10  N   UNL     1       7.084  -2.270  24.144  0.00  0.00    -0.181 NA
ENDROOT
BRANCH   8  11
ATOM     11  C   UNL     1       6.961  -4.859  22.810  0.00  0.00    +0.026 C 
ATOM     12  C   UNL     1       8.052  -5.134  23.857  0.00  0.00    +0.031 C 
ATOM     13  C   UNL     1       7.087  -5.919  21.696  0.00  0.00    +0.031 C 
ATOM     14  C   UNL     1       5.558  -5.002  23.424  0.00  0.00    +0.031 C 
ENDBRANCH   8  11
BRANCH   1  16
ATOM     15  C   UNL     1       6.997   0.643  27.801  0.00  0.00    +0.024 C 
ATOM     16  C   UNL     1       7.823  -0.364  27.015  0.00  0.00    +0.101 C 
ENDBRANCH   1  16
BRANCH   5  17
ATOM     17  S   UNL     1       9.770   0.628  22.210  0.00  0.00    -0.089 S 
ATOM     18  C   UNL     1      10.340   1.559  23.652  0.00  0.00    +0.093 C 
ENDBRANCH   5  17
TORSDOF 3
ENDMDL
MODEL 8
REMARK VINA RESULT:      -4.6      4.738      7.616
REMARK  Name = 
REMARK  8 active torsions:
REMARK  status: ('A' for Active; 'I' for Inactive)
REMARK    1  A    between atoms: C_1  and  C_2
REMARK    2  A    between atoms: C_2  and  N_3
REMARK    3  A    between atoms: N_7  and  C_8
REMARK    4  A    between atoms: C_8  and  C_9
REMARK    5  A    between atoms: C_8  and  C_10
REMARK    6  A    between atoms: C_8  and  C_11
REMARK    7  A    between atoms: C_13  and  S_14
REMARK    8  A    between atoms: S_14  and  C_15
REMARK                            x       y       z     vdW  Elec       q    Type
REMARK                         _______ _______ _______ _____ _____    ______ ____
ROOT
ATOM      1  N   UNL     1      11.226   5.122  22.977  0.00  0.00    -0.314 N 
ATOM      2  H   UNL     1      10.781   6.002  23.222  0.00  0.00    +0.149 HD
ATOM      3  C   UNL     1      10.453   4.124  23.549  0.00  0.00    +0.220 A 
ATOM      4  N   UNL     1      10.919   2.896  23.690  0.00  0.00    -0.189 NA
ATOM      5  C   UNL     1      10.056   2.034  24.218  0.00  0.00    +0.194 A 
ATOM      6  N   UNL     1       8.818   2.321  24.613  0.00  0.00    -0.189 NA
ATOM      7  C   UNL     1       8.453   3.579  24.440  0.00  0.00    +0.221 A 
ATOM      8  N   UNL     1       7.166   3.891  24.843  0.00  0.00    -0.309 N 
ATOM      9  H   UNL     1       6.836   3.091  25.375  0.00  0.00    +0.149 HD
ATOM     10  N   UNL     1       9.241   4.506  23.920  0.00  0.00    -0.181 NA
ENDROOT
BRANCH   8  11
ATOM     11  C   UNL     1       6.843   5.200  25.425  0.00  0.00    +0.026 C 
ATOM     12  C   UNL     1       7.881   5.618  26.478  0.00  0.00    +0.031 C 
ATOM     13  C   UNL     1       5.479   5.047  26.130  0.00  0.00    +0.031 C 
ATOM     14  C   UNL     1       6.684   6.283  24.345  0.00  0.00    +0.031 C 
ENDBRANCH   8  11
BRANCH   1  16
ATOM     15  C   UNL     1      13.386   5.677  22.045  0.00  0.00    +0.024 C 
ATOM     16  C   UNL     1      12.652   5.049  23.220  0.00  0.00    +0.101 C 
ENDBRANCH   1  16
BRANCH   5  17
ATOM     17  S   UNL     1      10.592   0.358  24.493  0.00  0.00    -0.089 S 
ATOM     18  C   UNL     1      10.161  -0.374  22.896  0.00  0.00    +0.093 C 
ENDBRANCH   5  17
TORSDOF 3
ENDMDL
MODEL 9
REMARK VINA RESULT:      -4.5      2.496      3.367
REMARK  Name = 
REMARK  8 active torsions:
REMARK  status: ('A' for Active; 'I' for Inactive)
REMARK    1  A    between atoms: C_1  and  C_2
REMARK    2  A    between atoms: C_2  and  N_3
REMARK    3  A    between atoms: N_7  and  C_8
REMARK    4  A    between atoms: C_8  and  C_9
REMARK    5  A    between atoms: C_8  and  C_10
REMARK    6  A    between atoms: C_8  and  C_11
REMARK    7  A    between atoms: C_13  and  S_14
REMARK    8  A    between atoms: S_14  and  C_15
REMARK                            x       y       z     vdW  Elec       q    Type
REMARK                         _______ _______ _______ _____ _____    ______ ____
ROOT
ATOM      1  N   UNL     1       7.095  -5.290  27.268  0.00  0.00    -0.314 N 
ATOM      2  H   UNL     1       7.772  -4.540  27.370  0.00  0.00    +0.149 HD
ATOM      3  C   UNL     1       6.647  -5.234  25.958  0.00  0.00    +0.220 A 
ATOM      4  N   UNL     1       5.543  -5.857  25.586  0.00  0.00    -0.189 NA
ATOM      5  C   UNL     1       5.255  -5.750  24.294  0.00  0.00    +0.194 A 
ATOM      6  N   UNL     1       5.964  -5.070  23.396  0.00  0.00    -0.189 NA
ATOM      7  C   UNL     1       7.043  -4.473  23.872  0.00  0.00    +0.221 A 
ATOM      8  N   UNL     1       7.793  -3.765  22.948  0.00  0.00    -0.309 N 
ATOM      9  H   UNL     1       7.223  -3.706  22.109  0.00  0.00    +0.149 HD
ATOM     10  N   UNL     1       7.411  -4.527  25.141  0.00  0.00    -0.181 NA
ENDROOT
BRANCH   8  11
ATOM     11  C   UNL     1       8.487  -2.524  23.316  0.00  0.00    +0.026 C 
ATOM     12  C   UNL     1       7.577  -1.593  24.133  0.00  0.00    +0.031 C 
ATOM     13  C   UNL     1       8.844  -1.808  21.997  0.00  0.00    +0.031 C 
ATOM     14  C   UNL     1       9.803  -2.803  24.060  0.00  0.00    +0.031 C 
ENDBRANCH   8  11
BRANCH   1  16
ATOM     15  C   UNL     1       6.298  -6.608  29.131  0.00  0.00    +0.024 C 
ATOM     16  C   UNL     1       6.073  -5.358  28.294  0.00  0.00    +0.101 C 
ENDBRANCH   1  16
BRANCH   5  17
ATOM     17  S   UNL     1       3.765  -6.516  23.690  0.00  0.00    -0.089 S 
ATOM     18  C   UNL     1       2.677  -5.072  23.623  0.00  0.00    +0.093 C 
ENDBRANCH   5  17
TORSDOF 3
ENDMDL
