MODEL 1
REMARK VINA RESULT:      -5.2      0.000      0.000
REMARK  Name = 
REMARK  7 active torsions:
REMARK  status: ('A' for Active; 'I' for Inactive)
REMARK    1  A    between atoms: O_1  and  C_2
REMARK    2  A    between atoms: C_4  and  O_6
REMARK    3  A    between atoms: C_7  and  O_9
REMARK    4  A    between atoms: C_10  and  O_12
REMARK    5  A    between atoms: O_12  and  P_13
REMARK    6  A    between atoms: C_17  and  O_19
REMARK    7  A    between atoms: C_20  and  O_22
REMARK                            x       y       z     vdW  Elec       q    Type
REMARK                         _______ _______ _______ _____ _____    ______ ____
ROOT
ATOM      1  C   UNL     1       9.799   1.264  22.004  0.00  0.00    +0.176 C 
ATOM      2  C   UNL     1       9.178  -0.117  21.731  0.00  0.00    +0.177 C 
ATOM      3  C   UNL     1       7.998  -0.393  22.700  0.00  0.00    +0.177 C 
ATOM      4  C   UNL     1       8.368  -0.199  24.191  0.00  0.00    +0.184 C 
ATOM      5  C   UNL     1       8.950   1.205  24.433  0.00  0.00    +0.177 C 
ATOM      6  C   UNL     1      10.148   1.474  23.499  0.00  0.00    +0.177 C 
ENDROOT
BRANCH   1   7
ATOM      7  O   UNL     1       8.881   2.273  21.526  0.00  0.00    -0.386 OA
ATOM      8  H   UNL     1       8.280   1.818  20.912  0.00  0.00    +0.210 HD
ENDBRANCH   1   7
BRANCH   2   9
ATOM      9  O   UNL     1      10.215  -1.081  21.660  0.00  0.00    -0.386 OA
ATOM     10  H   UNL     1      10.225  -1.655  22.494  0.00  0.00    +0.210 HD
ENDBRANCH   2   9
BRANCH   3  11
ATOM     11  O   UNL     1       6.895   0.517  22.415  0.00  0.00    -0.386 OA
ATOM     12  H   UNL     1       6.141  -0.042  22.141  0.00  0.00    +0.210 HD
ENDBRANCH   3  11
BRANCH   5  13
ATOM     13  O   UNL     1       7.960   2.242  24.260  0.00  0.00    -0.386 OA
ATOM     14  H   UNL     1       7.507   2.318  25.127  0.00  0.00    +0.210 HD
ENDBRANCH   5  13
BRANCH   6  15
ATOM     15  O   UNL     1      11.294   0.709  23.873  0.00  0.00    -0.386 OA
ATOM     16  H   UNL     1      11.521   0.962  24.810  0.00  0.00    +0.210 HD
ENDBRANCH   6  15
BRANCH   4  17
ATOM     17  O   UNL     1       9.335  -1.131  24.629  0.00  0.00    -0.359 OA
BRANCH  17  18
ATOM     18  P   UNL     1       8.744  -2.755  24.538  0.00  0.00    -0.014 P 
ATOM     19  O   UNL     1       8.215  -4.208  24.456  0.00  0.00    -0.638 OA
ATOM     20  O   UNL     1       8.568  -2.602  26.057  0.00  0.00    -0.577 OA
ATOM     21  O   UNL     1      10.113  -3.026  23.891  0.00  0.00    -0.577 OA
ENDBRANCH  17  18
ENDBRANCH   4  17
TORSDOF 7
ENDMDL
MODEL 2
REMARK VINA RESULT:      -5.2      1.447      3.205
REMARK  Name = 
REMARK  7 active torsions:
REMARK  status: ('A' for Active; 'I' for Inactive)
REMARK    1  A    between atoms: O_1  and  C_2
REMARK    2  A    between atoms: C_4  and  O_6
REMARK    3  A    between atoms: C_7  and  O_9
REMARK    4  A    between atoms: C_10  and  O_12
REMARK    5  A    between atoms: O_12  and  P_13
REMARK    6  A    between atoms: C_17  and  O_19
REMARK    7  A    between atoms: C_20  and  O_22
REMARK                            x       y       z     vdW  Elec       q    Type
REMARK                         _______ _______ _______ _____ _____    ______ ____
ROOT
ATOM      1  C   UNL     1       7.994   2.651  23.684  0.00  0.00    +0.176 C 
ATOM      2  C   UNL     1       8.601   1.728  24.755  0.00  0.00    +0.177 C 
ATOM      3  C   UNL     1       9.869   1.015  24.214  0.00  0.00    +0.177 C 
ATOM      4  C   UNL     1       9.636   0.284  22.869  0.00  0.00    +0.184 C 
ATOM      5  C   UNL     1       9.066   1.246  21.812  0.00  0.00    +0.177 C 
ATOM      6  C   UNL     1       7.784   1.932  22.328  0.00  0.00    +0.177 C 
ENDROOT
BRANCH   1   7
ATOM      7  O   UNL     1       8.854   3.805  23.544  0.00  0.00    -0.386 OA
ATOM      8  H   UNL     1       8.946   4.179  24.438  0.00  0.00    +0.210 HD
ENDBRANCH   1   7
BRANCH   2   9
ATOM      9  O   UNL     1       7.572   0.922  25.303  0.00  0.00    -0.386 OA
ATOM     10  H   UNL     1       6.854   0.741  24.613  0.00  0.00    +0.210 HD
ENDBRANCH   2   9
BRANCH   3  11
ATOM     11  O   UNL     1      10.931   1.988  23.990  0.00  0.00    -0.386 OA
ATOM     12  H   UNL     1      11.586   1.551  23.410  0.00  0.00    +0.210 HD
ENDBRANCH   3  11
BRANCH   5  13
ATOM     13  O   UNL     1      10.025   2.250  21.416  0.00  0.00    -0.386 OA
ATOM     14  H   UNL     1       9.577   3.110  21.564  0.00  0.00    +0.210 HD
ENDBRANCH   5  13
BRANCH   6  15
ATOM     15  O   UNL     1       6.685   1.022  22.392  0.00  0.00    -0.386 OA
ATOM     16  H   UNL     1       5.948   1.415  21.849  0.00  0.00    +0.210 HD
ENDBRANCH   6  15
BRANCH   4  17
ATOM     17  O   UNL     1       8.725  -0.789  22.992  0.00  0.00    -0.359 OA
BRANCH  17  18
ATOM     18  P   UNL     1       9.491  -2.214  23.604  0.00  0.00    -0.014 P 
ATOM     19  O   UNL     1      10.177  -3.489  24.152  0.00  0.00    -0.638 OA
ATOM     20  O   UNL     1      10.521  -1.936  22.498  0.00  0.00    -0.577 OA
ATOM     21  O   UNL     1       8.124  -2.856  23.315  0.00  0.00    -0.577 OA
ENDBRANCH  17  18
ENDBRANCH   4  17
TORSDOF 7
ENDMDL
MODEL 3
REMARK VINA RESULT:      -5.1      1.601      2.913
REMARK  Name = 
REMARK  7 active torsions:
REMARK  status: ('A' for Active; 'I' for Inactive)
REMARK    1  A    between atoms: O_1  and  C_2
REMARK    2  A    between atoms: C_4  and  O_6
REMARK    3  A    between atoms: C_7  and  O_9
REMARK    4  A    between atoms: C_10  and  O_12
REMARK    5  A    between atoms: O_12  and  P_13
REMARK    6  A    between atoms: C_17  and  O_19
REMARK    7  A    between atoms: C_20  and  O_22
REMARK                            x       y       z     vdW  Elec       q    Type
REMARK                         _______ _______ _______ _____ _____    ______ ____
ROOT
ATOM      1  C   UNL     1       9.093   3.005  24.178  0.00  0.00    +0.176 C 
ATOM      2  C   UNL     1      10.174   1.940  23.926  0.00  0.00    +0.177 C 
ATOM      3  C   UNL     1       9.920   1.202  22.585  0.00  0.00    +0.177 C 
ATOM      4  C   UNL     1       8.487   0.628  22.462  0.00  0.00    +0.184 C 
ATOM      5  C   UNL     1       7.434   1.728  22.681  0.00  0.00    +0.177 C 
ATOM      6  C   UNL     1       7.657   2.443  24.030  0.00  0.00    +0.177 C 
ENDROOT
BRANCH   1   7
ATOM      7  O   UNL     1       9.327   4.108  23.272  0.00  0.00    -0.386 OA
ATOM      8  H   UNL     1       8.453   4.367  22.935  0.00  0.00    +0.210 HD
ENDBRANCH   1   7
BRANCH   2   9
ATOM      9  O   UNL     1      10.325   1.153  25.096  0.00  0.00    -0.386 OA
ATOM     10  H   UNL     1      10.274   1.732  25.924  0.00  0.00    +0.210 HD
ENDBRANCH   2   9
BRANCH   3  11
ATOM     11  O   UNL     1      10.107   2.119  21.468  0.00  0.00    -0.386 OA
ATOM     12  H   UNL     1       9.476   1.841  20.774  0.00  0.00    +0.210 HD
ENDBRANCH   3  11
BRANCH   5  13
ATOM     13  O   UNL     1       7.432   2.701  21.614  0.00  0.00    -0.386 OA
ATOM     14  H   UNL     1       7.204   3.554  22.040  0.00  0.00    +0.210 HD
ENDBRANCH   5  13
BRANCH   6  15
ATOM     15  O   UNL     1       7.315   1.606  25.136  0.00  0.00    -0.386 OA
ATOM     16  H   UNL     1       8.154   1.163  25.437  0.00  0.00    +0.210 HD
ENDBRANCH   6  15
BRANCH   4  17
ATOM     17  O   UNL     1       8.233  -0.388  23.410  0.00  0.00    -0.359 OA
BRANCH  17  18
ATOM     18  P   UNL     1       9.396  -1.664  23.309  0.00  0.00    -0.014 P 
ATOM     19  O   UNL     1      10.438  -2.805  23.218  0.00  0.00    -0.638 OA
ATOM     20  O   UNL     1       8.329  -2.345  22.438  0.00  0.00    -0.577 OA
ATOM     21  O   UNL     1       9.305  -1.627  24.844  0.00  0.00    -0.577 OA
ENDBRANCH  17  18
ENDBRANCH   4  17
TORSDOF 7
ENDMDL
MODEL 4
REMARK VINA RESULT:      -5.1      2.485      4.215
REMARK  Name = 
REMARK  7 active torsions:
REMARK  status: ('A' for Active; 'I' for Inactive)
REMARK    1  A    between atoms: O_1  and  C_2
REMARK    2  A    between atoms: C_4  and  O_6
REMARK    3  A    between atoms: C_7  and  O_9
REMARK    4  A    between atoms: C_10  and  O_12
REMARK    5  A    between atoms: O_12  and  P_13
REMARK    6  A    between atoms: C_17  and  O_19
REMARK    7  A    between atoms: C_20  and  O_22
REMARK                            x       y       z     vdW  Elec       q    Type
REMARK                         _______ _______ _______ _____ _____    ______ ____
ROOT
ATOM      1  C   UNL     1       8.865  -0.527  24.349  0.00  0.00    +0.176 C 
ATOM      2  C   UNL     1       8.163  -1.792  24.873  0.00  0.00    +0.177 C 
ATOM      3  C   UNL     1       8.440  -3.002  23.941  0.00  0.00    +0.177 C 
ATOM      4  C   UNL     1       8.114  -2.720  22.454  0.00  0.00    +0.184 C 
ATOM      5  C   UNL     1       8.863  -1.471  21.955  0.00  0.00    +0.177 C 
ATOM      6  C   UNL     1       8.563  -0.254  22.855  0.00  0.00    +0.177 C 
ENDROOT
BRANCH   1   7
ATOM      7  O   UNL     1      10.284  -0.668  24.588  0.00  0.00    -0.386 OA
ATOM      8  H   UNL     1      10.725  -0.171  23.877  0.00  0.00    +0.210 HD
ENDBRANCH   1   7
BRANCH   2   9
ATOM      9  O   UNL     1       6.812  -1.480  25.167  0.00  0.00    -0.386 OA
ATOM     10  H   UNL     1       6.198  -2.221  24.852  0.00  0.00    +0.210 HD
ENDBRANCH   2   9
BRANCH   3  11
ATOM     11  O   UNL     1       9.849  -3.368  24.004  0.00  0.00    -0.386 OA
ATOM     12  H   UNL     1      10.303  -2.836  23.320  0.00  0.00    +0.210 HD
ENDBRANCH   3  11
BRANCH   5  13
ATOM     13  O   UNL     1      10.289  -1.683  21.887  0.00  0.00    -0.386 OA
ATOM     14  H   UNL     1      10.685  -0.785  21.881  0.00  0.00    +0.210 HD
ENDBRANCH   5  13
BRANCH   6  15
ATOM     15  O   UNL     1       7.228   0.221  22.676  0.00  0.00    -0.386 OA
ATOM     16  H   UNL     1       6.745   0.063  23.533  0.00  0.00    +0.210 HD
ENDBRANCH   6  15
BRANCH   4  17
ATOM     17  O   UNL     1       6.736  -2.493  22.241  0.00  0.00    -0.359 OA
BRANCH  17  18
ATOM     18  P   UNL     1       5.827  -3.963  22.306  0.00  0.00    -0.014 P 
ATOM     19  O   UNL     1       5.015  -5.280  22.366  0.00  0.00    -0.638 OA
ATOM     20  O   UNL     1       5.638  -3.721  20.801  0.00  0.00    -0.577 OA
ATOM     21  O   UNL     1       5.017  -3.205  23.371  0.00  0.00    -0.577 OA
ENDBRANCH  17  18
ENDBRANCH   4  17
TORSDOF 7
ENDMDL
MODEL 5
REMARK VINA RESULT:      -5.1      2.095      3.332
REMARK  Name = 
REMARK  7 active torsions:
REMARK  status: ('A' for Active; 'I' for Inactive)
REMARK    1  A    between atoms: O_1  and  C_2
REMARK    2  A    between atoms: C_4  and  O_6
REMARK    3  A    between atoms: C_7  and  O_9
REMARK    4  A    between atoms: C_10  and  O_12
REMARK    5  A    between atoms: O_12  and  P_13
REMARK    6  A    between atoms: C_17  and  O_19
REMARK    7  A    between atoms: C_20  and  O_22
REMARK                            x       y       z     vdW  Elec       q    Type
REMARK                         _______ _______ _______ _____ _____    ______ ____
ROOT
ATOM      1  C   UNL     1       9.847  -0.963  24.305  0.00  0.00    +0.176 C 
ATOM      2  C   UNL     1       9.979  -2.188  23.383  0.00  0.00    +0.177 C 
ATOM      3  C   UNL     1       9.082  -2.032  22.127  0.00  0.00    +0.177 C 
ATOM      4  C   UNL     1       7.606  -1.702  22.461  0.00  0.00    +0.184 C 
ATOM      5  C   UNL     1       7.512  -0.450  23.351  0.00  0.00    +0.177 C 
ATOM      6  C   UNL     1       8.372  -0.612  24.621  0.00  0.00    +0.177 C 
ENDROOT
BRANCH   1   7
ATOM      7  O   UNL     1      10.534   0.146  23.680  0.00  0.00    -0.386 OA
ATOM      8  H   UNL     1       9.840   0.714  23.306  0.00  0.00    +0.210 HD
ENDBRANCH   1   7
BRANCH   2   9
ATOM      9  O   UNL     1       9.829  -3.365  24.160  0.00  0.00    -0.386 OA
ATOM     10  H   UNL     1      10.374  -4.122  23.767  0.00  0.00    +0.210 HD
ENDBRANCH   2   9
BRANCH   3  11
ATOM     11  O   UNL     1       9.580  -0.947  21.290  0.00  0.00    -0.386 OA
ATOM     12  H   UNL     1       8.969  -0.883  20.529  0.00  0.00    +0.210 HD
ENDBRANCH   3  11
BRANCH   5  13
ATOM     13  O   UNL     1       7.908   0.748  22.649  0.00  0.00    -0.386 OA
ATOM     14  H   UNL     1       8.382   1.294  23.312  0.00  0.00    +0.210 HD
ENDBRANCH   5  13
BRANCH   6  15
ATOM     15  O   UNL     1       7.802  -1.554  25.531  0.00  0.00    -0.386 OA
ATOM     16  H   UNL     1       8.475  -1.712  26.248  0.00  0.00    +0.210 HD
ENDBRANCH   6  15
BRANCH   4  17
ATOM     17  O   UNL     1       6.965  -2.754  23.153  0.00  0.00    -0.359 OA
BRANCH  17  18
ATOM     18  P   UNL     1       6.743  -4.141  22.143  0.00  0.00    -0.014 P 
ATOM     19  O   UNL     1       6.545  -5.383  21.240  0.00  0.00    -0.638 OA
ATOM     20  O   UNL     1       5.287  -3.655  22.076  0.00  0.00    -0.577 OA
ATOM     21  O   UNL     1       7.304  -4.895  23.362  0.00  0.00    -0.577 OA
ENDBRANCH  17  18
ENDBRANCH   4  17
TORSDOF 7
ENDMDL
MODEL 6
REMARK VINA RESULT:      -5.0      1.836      2.986
REMARK  Name = 
REMARK  7 active torsions:
REMARK  status: ('A' for Active; 'I' for Inactive)
REMARK    1  A    between atoms: O_1  and  C_2
REMARK    2  A    between atoms: C_4  and  O_6
REMARK    3  A    between atoms: C_7  and  O_9
REMARK    4  A    between atoms: C_10  and  O_12
REMARK    5  A    between atoms: O_12  and  P_13
REMARK    6  A    between atoms: C_17  and  O_19
REMARK    7  A    between atoms: C_20  and  O_22
REMARK                            x       y       z     vdW  Elec       q    Type
REMARK                         _______ _______ _______ _____ _____    ______ ____
ROOT
ATOM      1  C   UNL     1       8.598   0.166  23.489  0.00  0.00    +0.176 C 
ATOM      2  C   UNL     1      10.069  -0.284  23.527  0.00  0.00    +0.177 C 
ATOM      3  C   UNL     1      10.229  -1.701  22.914  0.00  0.00    +0.177 C 
ATOM      4  C   UNL     1       9.275  -2.750  23.536  0.00  0.00    +0.184 C 
ATOM      5  C   UNL     1       7.811  -2.284  23.445  0.00  0.00    +0.177 C 
ATOM      6  C   UNL     1       7.637  -0.892  24.086  0.00  0.00    +0.177 C 
ENDROOT
BRANCH   1   7
ATOM      7  O   UNL     1       8.259   0.479  22.119  0.00  0.00    -0.386 OA
ATOM      8  H   UNL     1       7.717   1.286  22.156  0.00  0.00    +0.210 HD
ENDBRANCH   1   7
BRANCH   2   9
ATOM      9  O   UNL     1      10.583  -0.066  24.830  0.00  0.00    -0.386 OA
ATOM     10  H   UNL     1       9.837   0.170  25.472  0.00  0.00    +0.210 HD
ENDBRANCH   2   9
BRANCH   3  11
ATOM     11  O   UNL     1       9.942  -1.661  21.485  0.00  0.00    -0.386 OA
ATOM     12  H   UNL     1      10.057  -0.731  21.207  0.00  0.00    +0.210 HD
ENDBRANCH   3  11
BRANCH   5  13
ATOM     13  O   UNL     1       7.333  -2.253  22.083  0.00  0.00    -0.386 OA
ATOM     14  H   UNL     1       6.372  -2.069  22.149  0.00  0.00    +0.210 HD
ENDBRANCH   5  13
BRANCH   6  15
ATOM     15  O   UNL     1       7.748  -0.945  25.508  0.00  0.00    -0.386 OA
ATOM     16  H   UNL     1       8.542  -0.398  25.760  0.00  0.00    +0.210 HD
ENDBRANCH   6  15
BRANCH   4  17
ATOM     17  O   UNL     1       9.554  -2.986  24.900  0.00  0.00    -0.359 OA
BRANCH  17  18
ATOM     18  P   UNL     1       8.832  -4.457  25.456  0.00  0.00    -0.014 P 
ATOM     19  O   UNL     1       8.186  -5.774  25.952  0.00  0.00    -0.638 OA
ATOM     20  O   UNL     1       8.554  -3.647  26.731  0.00  0.00    -0.577 OA
ATOM     21  O   UNL     1      10.218  -5.046  25.140  0.00  0.00    -0.577 OA
ENDBRANCH  17  18
ENDBRANCH   4  17
TORSDOF 7
ENDMDL
MODEL 7
REMARK VINA RESULT:      -5.0      1.301      2.431
REMARK  Name = 
REMARK  7 active torsions:
REMARK  status: ('A' for Active; 'I' for Inactive)
REMARK    1  A    between atoms: O_1  and  C_2
REMARK    2  A    between atoms: C_4  and  O_6
REMARK    3  A    between atoms: C_7  and  O_9
REMARK    4  A    between atoms: C_10  and  O_12
REMARK    5  A    between atoms: O_12  and  P_13
REMARK    6  A    between atoms: C_17  and  O_19
REMARK    7  A    between atoms: C_20  and  O_22
REMARK                            x       y       z     vdW  Elec       q    Type
REMARK                         _______ _______ _______ _____ _____    ______ ____
ROOT
ATOM      1  C   UNL     1       8.468   0.978  22.635  0.00  0.00    +0.176 C 
ATOM      2  C   UNL     1       7.604   0.083  23.540  0.00  0.00    +0.177 C 
ATOM      3  C   UNL     1       8.433  -0.460  24.734  0.00  0.00    +0.177 C 
ATOM      4  C   UNL     1       9.749  -1.153  24.304  0.00  0.00    +0.184 C 
ATOM      5  C   UNL     1      10.604  -0.215  23.434  0.00  0.00    +0.177 C 
ATOM      6  C   UNL     1       9.799   0.300  22.224  0.00  0.00    +0.177 C 
ENDROOT
BRANCH   1   7
ATOM      7  O   UNL     1       8.701   2.226  23.328  0.00  0.00    -0.386 OA
ATOM      8  H   UNL     1       8.118   2.212  24.106  0.00  0.00    +0.210 HD
ENDBRANCH   1   7
BRANCH   2   9
ATOM      9  O   UNL     1       6.914  -0.857  22.732  0.00  0.00    -0.386 OA
ATOM     10  H   UNL     1       6.516  -0.404  21.920  0.00  0.00    +0.210 HD
ENDBRANCH   2   9
BRANCH   3  11
ATOM     11  O   UNL     1       8.801   0.634  25.624  0.00  0.00    -0.386 OA
ATOM     12  H   UNL     1       8.825   1.441  25.073  0.00  0.00    +0.210 HD
ENDBRANCH   3  11
BRANCH   5  13
ATOM     13  O   UNL     1      11.118   0.906  24.185  0.00  0.00    -0.386 OA
ATOM     14  H   UNL     1      11.741   0.519  24.837  0.00  0.00    +0.210 HD
ENDBRANCH   5  13
BRANCH   6  15
ATOM     15  O   UNL     1       9.576  -0.729  21.259  0.00  0.00    -0.386 OA
ATOM     16  H   UNL     1      10.455  -0.929  20.836  0.00  0.00    +0.210 HD
ENDBRANCH   6  15
BRANCH   4  17
ATOM     17  O   UNL     1       9.516  -2.325  23.550  0.00  0.00    -0.359 OA
BRANCH  17  18
ATOM     18  P   UNL     1       8.692  -3.530  24.477  0.00  0.00    -0.014 P 
ATOM     19  O   UNL     1       7.954  -4.608  25.308  0.00  0.00    -0.638 OA
ATOM     20  O   UNL     1      10.075  -4.197  24.534  0.00  0.00    -0.577 OA
ATOM     21  O   UNL     1       7.788  -3.612  23.235  0.00  0.00    -0.577 OA
ENDBRANCH  17  18
ENDBRANCH   4  17
TORSDOF 7
ENDMDL
MODEL 8
REMARK VINA RESULT:      -4.9      3.626      5.926
REMARK  Name = 
REMARK  7 active torsions:
REMARK  status: ('A' for Active; 'I' for Inactive)
REMARK    1  A    between atoms: O_1  and  C_2
REMARK    2  A    between atoms: C_4  and  O_6
REMARK    3  A    between atoms: C_7  and  O_9
REMARK    4  A    between atoms: C_10  and  O_12
REMARK    5  A    between atoms: O_12  and  P_13
REMARK    6  A    between atoms: C_17  and  O_19
REMARK    7  A    between atoms: C_20  and  O_22
REMARK                            x       y       z     vdW  Elec       q    Type
REMARK                         _______ _______ _______ _____ _____    ______ ____
ROOT
ATOM      1  C   UNL     1       4.947  -5.119  23.477  0.00  0.00    +0.176 C 
ATOM      2  C   UNL     1       4.898  -3.624  23.118  0.00  0.00    +0.177 C 
ATOM      3  C   UNL     1       5.971  -3.276  22.053  0.00  0.00    +0.177 C 
ATOM      4  C   UNL     1       7.395  -3.743  22.440  0.00  0.00    +0.184 C 
ATOM      5  C   UNL     1       7.413  -5.250  22.753  0.00  0.00    +0.177 C 
ATOM      6  C   UNL     1       6.374  -5.598  23.839  0.00  0.00    +0.177 C 
ENDROOT
BRANCH   1   7
ATOM      7  O   UNL     1       4.402  -5.866  22.364  0.00  0.00    -0.386 OA
ATOM      8  H   UNL     1       5.134  -5.978  21.734  0.00  0.00    +0.210 HD
ENDBRANCH   1   7
BRANCH   2   9
ATOM      9  O   UNL     1       4.885  -2.865  24.316  0.00  0.00    -0.386 OA
ATOM     10  H   UNL     1       4.283  -2.057  24.220  0.00  0.00    +0.210 HD
ENDBRANCH   2   9
BRANCH   3  11
ATOM     11  O   UNL     1       5.643  -3.920  20.787  0.00  0.00    -0.386 OA
ATOM     12  H   UNL     1       6.144  -3.442  20.097  0.00  0.00    +0.210 HD
ENDBRANCH   3  11
BRANCH   5  13
ATOM     13  O   UNL     1       7.172  -6.053  21.578  0.00  0.00    -0.386 OA
ATOM     14  H   UNL     1       6.556  -5.527  21.025  0.00  0.00    +0.210 HD
ENDBRANCH   5  13
BRANCH   6  15
ATOM     15  O   UNL     1       6.769  -5.116  25.124  0.00  0.00    -0.386 OA
ATOM     16  H   UNL     1       6.358  -4.215  25.237  0.00  0.00    +0.210 HD
ENDBRANCH   6  15
BRANCH   4  17
ATOM     17  O   UNL     1       7.887  -3.074  23.583  0.00  0.00    -0.359 OA
BRANCH  17  18
ATOM     18  P   UNL     1       9.244  -2.071  23.202  0.00  0.00    -0.014 P 
ATOM     19  O   UNL     1      10.458  -1.173  22.861  0.00  0.00    -0.638 OA
ATOM     20  O   UNL     1      10.041  -3.142  23.963  0.00  0.00    -0.577 OA
ATOM     21  O   UNL     1       8.420  -0.990  23.923  0.00  0.00    -0.577 OA
ENDBRANCH  17  18
ENDBRANCH   4  17
TORSDOF 7
ENDMDL
MODEL 9
REMARK VINA RESULT:      -4.9      3.990      5.748
REMARK  Name = 
REMARK  7 active torsions:
REMARK  status: ('A' for Active; 'I' for Inactive)
REMARK    1  A    between atoms: O_1  and  C_2
REMARK    2  A    between atoms: C_4  and  O_6
REMARK    3  A    between atoms: C_7  and  O_9
REMARK    4  A    between atoms: C_10  and  O_12
REMARK    5  A    between atoms: O_12  and  P_13
REMARK    6  A    between atoms: C_17  and  O_19
REMARK    7  A    between atoms: C_20  and  O_22
REMARK                            x       y       z     vdW  Elec       q    Type
REMARK                         _______ _______ _______ _____ _____    ______ ____
ROOT
ATOM      1  C   UNL     1       5.767  -3.391  22.060  0.00  0.00    +0.176 C 
ATOM      2  C   UNL     1       7.225  -3.495  22.540  0.00  0.00    +0.177 C 
ATOM      3  C   UNL     1       7.537  -4.927  23.051  0.00  0.00    +0.177 C 
ATOM      4  C   UNL     1       6.530  -5.434  24.112  0.00  0.00    +0.184 C 
ATOM      5  C   UNL     1       5.087  -5.352  23.583  0.00  0.00    +0.177 C 
ATOM      6  C   UNL     1       4.756  -3.922  23.107  0.00  0.00    +0.177 C 
ENDROOT
BRANCH   1   7
ATOM      7  O   UNL     1       5.654  -4.102  20.806  0.00  0.00    -0.386 OA
ATOM      8  H   UNL     1       5.444  -5.022  21.039  0.00  0.00    +0.210 HD
ENDBRANCH   1   7
BRANCH   2   9
ATOM      9  O   UNL     1       7.501  -2.409  23.408  0.00  0.00    -0.386 OA
ATOM     10  H   UNL     1       6.921  -2.457  24.236  0.00  0.00    +0.210 HD
ENDBRANCH   2   9
BRANCH   3  11
ATOM     11  O   UNL     1       7.497  -5.872  21.942  0.00  0.00    -0.386 OA
ATOM     12  H   UNL     1       6.598  -6.258  21.942  0.00  0.00    +0.210 HD
ENDBRANCH   3  11
BRANCH   5  13
ATOM     13  O   UNL     1       4.847  -6.286  22.509  0.00  0.00    -0.386 OA
ATOM     14  H   UNL     1       4.096  -6.841  22.810  0.00  0.00    +0.210 HD
ENDBRANCH   5  13
BRANCH   6  15
ATOM     15  O   UNL     1       4.626  -3.016  24.203  0.00  0.00    -0.386 OA
ATOM     16  H   UNL     1       3.800  -2.482  24.044  0.00  0.00    +0.210 HD
ENDBRANCH   6  15
BRANCH   4  17
ATOM     17  O   UNL     1       6.581  -4.678  25.304  0.00  0.00    -0.359 OA
BRANCH  17  18
ATOM     18  P   UNL     1       8.147  -4.739  26.035  0.00  0.00    -0.014 P 
ATOM     19  O   UNL     1       9.550  -4.794  26.688  0.00  0.00    -0.638 OA
ATOM     20  O   UNL     1       7.513  -5.827  26.916  0.00  0.00    -0.577 OA
ATOM     21  O   UNL     1       7.899  -3.239  26.271  0.00  0.00    -0.577 OA
ENDBRANCH  17  18
ENDBRANCH   4  17
TORSDOF 7
ENDMDL
