MODEL 1
REMARK VINA RESULT:      -7.7      0.000      0.000
REMARK  Name = 
REMARK  5 active torsions:
REMARK  status: ('A' for Active; 'I' for Inactive)
REMARK    1  A    between atoms: C_1  and  N_2
REMARK    2  A    between atoms: N_5  and  C_8
REMARK    3  A    between atoms: C_11  and  C_14
REMARK    4  A    between atoms: C_25  and  C_27
REMARK    5  A    between atoms: C_27  and  C_28
REMARK                            x       y       z     vdW  Elec       q    Type
REMARK                         _______ _______ _______ _____ _____    ______ ____
ROOT
ATOM      1  C   UNL     1       7.895  -4.459  24.007  0.00  0.00    +0.249 C 
ATOM      2  N   UNL     1       7.811  -3.081  24.040  0.00  0.00    -0.264 N 
ATOM      3  H   UNL     1       6.999  -2.640  24.442  0.00  0.00    +0.157 HD
ATOM      4  C   UNL     1       8.864  -2.237  23.722  0.00  0.00    +0.156 A 
ATOM      5  C   UNL     1       8.858  -0.813  24.019  0.00  0.00    +0.059 A 
ATOM      6  C   UNL     1      10.080  -0.457  23.503  0.00  0.00    +0.086 A 
ATOM      7  C   UNL     1      10.233   0.867  23.685  0.00  0.00    +0.121 A 
ATOM      8  N   UNL     1       9.103   1.395  24.353  0.00  0.00    -0.291 N 
ATOM      9  C   UNL     1       8.809   2.710  24.739  0.00  0.00    +0.236 C 
ATOM     10  O   UNL     1       7.934   2.895  25.580  0.00  0.00    -0.272 OA
ATOM     11  N   UNL     1      10.776  -1.487  22.984  0.00  0.00    -0.274 N 
ATOM     12  H   UNL     1      11.709  -1.510  22.592  0.00  0.00    +0.189 HD
ATOM     13  C   UNL     1       8.249   0.272  24.569  0.00  0.00    +0.107 A 
ATOM     14  N   UNL     1      10.024  -2.624  23.095  0.00  0.00    -0.157 NA
ATOM     15  O   UNL     1       8.876  -5.137  23.722  0.00  0.00    -0.270 OA
ENDROOT
BRANCH   1  19
ATOM     16  C   UNL     1       4.403  -6.556  25.496  0.00  0.00    +0.030 A 
ATOM     17  C   UNL     1       4.666  -6.492  24.115  0.00  0.00    +0.024 A 
ATOM     18  C   UNL     1       5.786  -5.816  23.598  0.00  0.00    +0.015 A 
ATOM     19  C   UNL     1       6.683  -5.194  24.466  0.00  0.00    +0.037 A 
ATOM     20  C   UNL     1       6.464  -5.283  25.843  0.00  0.00    +0.015 A 
ATOM     21  C   UNL     1       5.339  -5.950  26.343  0.00  0.00    +0.024 A 
BRANCH  16  26
ATOM     22  C   UNL     1       0.443  -9.039  27.446  0.00  0.00    +0.105 C 
ATOM     23  N   UNL     1       0.491  -7.714  26.833  0.00  0.00    -0.302 NA
ATOM     24  C   UNL     1       0.930  -7.781  25.418  0.00  0.00    +0.103 C 
ATOM     25  C   UNL     1       2.437  -8.073  25.196  0.00  0.00    +0.120 C 
ATOM     26  N   UNL     1       3.250  -7.136  25.985  0.00  0.00    -0.327 N 
ATOM     27  C   UNL     1       2.908  -7.091  27.416  0.00  0.00    +0.120 C 
ATOM     28  C   UNL     1       1.394  -6.809  27.578  0.00  0.00    +0.103 C 
ENDBRANCH  16  26
ENDBRANCH   1  19
BRANCH   9  29
ATOM     29  C   UNL     1       9.535   3.797  23.999  0.00  0.00    +0.141 C 
BRANCH  29  30
ATOM     30  C   UNL     1       8.622   4.799  23.366  0.00  0.00    -0.001 A 
ATOM     31  S   UNL     1       8.969   6.470  23.579  0.00  0.00    -0.101 S 
ATOM     32  C   UNL     1       7.631   6.937  22.628  0.00  0.00    +0.045 A 
ATOM     33  C   UNL     1       6.938   5.851  22.144  0.00  0.00    +0.008 A 
ATOM     34  C   UNL     1       7.519   4.616  22.555  0.00  0.00    +0.011 A 
ENDBRANCH  29  30
ENDBRANCH   9  29
TORSDOF 4
ENDMDL
MODEL 2
REMARK VINA RESULT:      -7.5      3.799     11.201
REMARK  Name = 
REMARK  5 active torsions:
REMARK  status: ('A' for Active; 'I' for Inactive)
REMARK    1  A    between atoms: C_1  and  N_2
REMARK    2  A    between atoms: N_5  and  C_8
REMARK    3  A    between atoms: C_11  and  C_14
REMARK    4  A    between atoms: C_25  and  C_27
REMARK    5  A    between atoms: C_27  and  C_28
REMARK                            x       y       z     vdW  Elec       q    Type
REMARK                         _______ _______ _______ _____ _____    ______ ____
ROOT
ATOM      1  C   UNL     1       8.725  -1.814  22.496  0.00  0.00    +0.249 C 
ATOM      2  N   UNL     1       7.585  -2.256  23.136  0.00  0.00    -0.264 N 
ATOM      3  H   UNL     1       7.022  -1.604  23.659  0.00  0.00    +0.157 HD
ATOM      4  C   UNL     1       7.040  -3.518  22.958  0.00  0.00    +0.156 A 
ATOM      5  C   UNL     1       5.707  -3.880  23.412  0.00  0.00    +0.059 A 
ATOM      6  C   UNL     1       5.669  -5.195  23.018  0.00  0.00    +0.086 A 
ATOM      7  C   UNL     1       4.478  -5.700  23.385  0.00  0.00    +0.121 A 
ATOM      8  N   UNL     1       3.703  -4.697  24.014  0.00  0.00    -0.291 N 
ATOM      9  C   UNL     1       2.417  -4.758  24.570  0.00  0.00    +0.236 C 
ATOM     10  O   UNL     1       1.814  -3.709  24.772  0.00  0.00    -0.272 OA
ATOM     11  N   UNL     1       6.784  -5.609  22.385  0.00  0.00    -0.274 N 
ATOM     12  H   UNL     1       6.995  -6.500  21.955  0.00  0.00    +0.189 HD
ATOM     13  C   UNL     1       4.527  -3.532  23.991  0.00  0.00    +0.107 A 
ATOM     14  N   UNL     1       7.676  -4.572  22.347  0.00  0.00    -0.157 NA
ATOM     15  O   UNL     1       9.408  -2.430  21.685  0.00  0.00    -0.270 OA
ENDROOT
BRANCH   1  19
ATOM     16  C   UNL     1       9.810   2.288  23.396  0.00  0.00    +0.030 A 
ATOM     17  C   UNL     1       9.867   1.804  22.076  0.00  0.00    +0.024 A 
ATOM     18  C   UNL     1       9.528   0.479  21.749  0.00  0.00    +0.015 A 
ATOM     19  C   UNL     1       9.105  -0.396  22.750  0.00  0.00    +0.037 A 
ATOM     20  C   UNL     1       9.000   0.076  24.061  0.00  0.00    +0.015 A 
ATOM     21  C   UNL     1       9.351   1.395  24.373  0.00  0.00    +0.024 A 
BRANCH  16  26
ATOM     22  C   UNL     1      11.544   6.771  24.990  0.00  0.00    +0.105 C 
ATOM     23  N   UNL     1      10.970   6.411  23.696  0.00  0.00    -0.302 NA
ATOM     24  C   UNL     1       9.570   5.937  23.831  0.00  0.00    +0.103 C 
ATOM     25  C   UNL     1       9.396   4.522  24.441  0.00  0.00    +0.120 C 
ATOM     26  N   UNL     1      10.240   3.559  23.718  0.00  0.00    -0.327 N 
ATOM     27  C   UNL     1      11.658   3.942  23.627  0.00  0.00    +0.120 C 
ATOM     28  C   UNL     1      11.771   5.364  23.024  0.00  0.00    +0.103 C 
ENDBRANCH  16  26
ENDBRANCH   1  19
BRANCH   9  29
ATOM     29  C   UNL     1       1.930  -6.123  24.967  0.00  0.00    +0.141 C 
BRANCH  29  30
ATOM     30  C   UNL     1       1.448  -6.942  23.811  0.00  0.00    -0.001 A 
ATOM     31  S   UNL     1       0.639  -6.142  22.523  0.00  0.00    -0.101 S 
ATOM     32  C   UNL     1       0.444  -7.596  21.652  0.00  0.00    +0.045 A 
ATOM     33  C   UNL     1       0.991  -8.671  22.315  0.00  0.00    +0.008 A 
ATOM     34  C   UNL     1       1.587  -8.292  23.554  0.00  0.00    +0.011 A 
ENDBRANCH  29  30
ENDBRANCH   9  29
TORSDOF 4
ENDMDL
MODEL 3
REMARK VINA RESULT:      -7.4      1.833      2.354
REMARK  Name = 
REMARK  5 active torsions:
REMARK  status: ('A' for Active; 'I' for Inactive)
REMARK    1  A    between atoms: C_1  and  N_2
REMARK    2  A    between atoms: N_5  and  C_8
REMARK    3  A    between atoms: C_11  and  C_14
REMARK    4  A    between atoms: C_25  and  C_27
REMARK    5  A    between atoms: C_27  and  C_28
REMARK                            x       y       z     vdW  Elec       q    Type
REMARK                         _______ _______ _______ _____ _____    ______ ____
ROOT
ATOM      1  C   UNL     1       8.210  -3.509  24.658  0.00  0.00    +0.249 C 
ATOM      2  N   UNL     1       8.023  -2.143  24.586  0.00  0.00    -0.264 N 
ATOM      3  H   UNL     1       7.267  -1.715  25.097  0.00  0.00    +0.157 HD
ATOM      4  C   UNL     1       8.926  -1.270  23.999  0.00  0.00    +0.156 A 
ATOM      5  C   UNL     1       8.860   0.173  24.167  0.00  0.00    +0.059 A 
ATOM      6  C   UNL     1       9.932   0.552  23.395  0.00  0.00    +0.086 A 
ATOM      7  C   UNL     1      10.009   1.894  23.429  0.00  0.00    +0.121 A 
ATOM      8  N   UNL     1       8.984   2.414  24.254  0.00  0.00    -0.291 N 
ATOM      9  C   UNL     1       8.660   3.741  24.574  0.00  0.00    +0.236 C 
ATOM     10  O   UNL     1       7.946   3.953  25.548  0.00  0.00    -0.272 OA
ATOM     11  N   UNL     1      10.600  -0.479  22.844  0.00  0.00    -0.274 N 
ATOM     12  H   UNL     1      11.443  -0.483  22.282  0.00  0.00    +0.189 HD
ATOM     13  C   UNL     1       8.278   1.267  24.727  0.00  0.00    +0.107 A 
ATOM     14  N   UNL     1       9.976  -1.645  23.195  0.00  0.00    -0.157 NA
ATOM     15  O   UNL     1       9.173  -4.149  24.248  0.00  0.00    -0.270 OA
ENDROOT
BRANCH   1  19
ATOM     16  C   UNL     1       5.264  -5.700  26.967  0.00  0.00    +0.030 A 
ATOM     17  C   UNL     1       5.071  -5.468  25.593  0.00  0.00    +0.024 A 
ATOM     18  C   UNL     1       6.002  -4.757  24.815  0.00  0.00    +0.015 A 
ATOM     19  C   UNL     1       7.169  -4.270  25.404  0.00  0.00    +0.037 A 
ATOM     20  C   UNL     1       7.402  -4.526  26.757  0.00  0.00    +0.015 A 
ATOM     21  C   UNL     1       6.460  -5.226  27.521  0.00  0.00    +0.024 A 
BRANCH  16  26
ATOM     22  C   UNL     1       1.924  -8.354  29.694  0.00  0.00    +0.105 C 
ATOM     23  N   UNL     1       2.069  -6.907  29.569  0.00  0.00    -0.302 NA
ATOM     24  C   UNL     1       1.867  -6.456  28.170  0.00  0.00    +0.103 C 
ATOM     25  C   UNL     1       3.020  -6.781  27.186  0.00  0.00    +0.120 C 
ATOM     26  N   UNL     1       4.298  -6.311  27.739  0.00  0.00    -0.327 N 
ATOM     27  C   UNL     1       4.587  -6.798  29.098  0.00  0.00    +0.120 C 
ATOM     28  C   UNL     1       3.401  -6.457  30.033  0.00  0.00    +0.103 C 
ENDBRANCH  16  26
ENDBRANCH   1  19
BRANCH   9  29
ATOM     29  C   UNL     1       9.146   4.791  23.615  0.00  0.00    +0.141 C 
BRANCH  29  30
ATOM     30  C   UNL     1      10.320   5.564  24.125  0.00  0.00    -0.001 A 
ATOM     31  S   UNL     1      10.069   6.684  25.405  0.00  0.00    -0.101 S 
ATOM     32  C   UNL     1      11.721   7.108  25.449  0.00  0.00    +0.045 A 
ATOM     33  C   UNL     1      12.458   6.408  24.522  0.00  0.00    +0.008 A 
ATOM     34  C   UNL     1      11.653   5.503  23.768  0.00  0.00    +0.011 A 
ENDBRANCH  29  30
ENDBRANCH   9  29
TORSDOF 4
ENDMDL
MODEL 4
REMARK VINA RESULT:      -7.3      1.845      2.331
REMARK  Name = 
REMARK  5 active torsions:
REMARK  status: ('A' for Active; 'I' for Inactive)
REMARK    1  A    between atoms: C_1  and  N_2
REMARK    2  A    between atoms: N_5  and  C_8
REMARK    3  A    between atoms: C_11  and  C_14
REMARK    4  A    between atoms: C_25  and  C_27
REMARK    5  A    between atoms: C_27  and  C_28
REMARK                            x       y       z     vdW  Elec       q    Type
REMARK                         _______ _______ _______ _____ _____    ______ ____
ROOT
ATOM      1  C   UNL     1       7.238  -3.145  22.951  0.00  0.00    +0.249 C 
ATOM      2  N   UNL     1       7.207  -1.781  23.166  0.00  0.00    -0.264 N 
ATOM      3  H   UNL     1       6.564  -1.397  23.840  0.00  0.00    +0.157 HD
ATOM      4  C   UNL     1       8.142  -0.898  22.649  0.00  0.00    +0.156 A 
ATOM      5  C   UNL     1       8.265   0.480  23.097  0.00  0.00    +0.059 A 
ATOM      6  C   UNL     1       9.289   0.904  22.285  0.00  0.00    +0.086 A 
ATOM      7  C   UNL     1       9.527   2.198  22.565  0.00  0.00    +0.121 A 
ATOM      8  N   UNL     1       8.661   2.634  23.596  0.00  0.00    -0.291 N 
ATOM      9  C   UNL     1       8.532   3.893  24.202  0.00  0.00    +0.236 C 
ATOM     10  O   UNL     1       7.953   3.969  25.280  0.00  0.00    -0.272 OA
ATOM     11  N   UNL     1       9.770  -0.051  21.467  0.00  0.00    -0.274 N 
ATOM     12  H   UNL     1      10.543  -0.021  20.814  0.00  0.00    +0.189 HD
ATOM     13  C   UNL     1       7.878   1.487  23.925  0.00  0.00    +0.107 A 
ATOM     14  N   UNL     1       9.052  -1.199  21.664  0.00  0.00    -0.157 NA
ATOM     15  O   UNL     1       8.070  -3.777  22.309  0.00  0.00    -0.270 OA
ENDROOT
BRANCH   1  19
ATOM     16  C   UNL     1       4.106  -5.434  24.891  0.00  0.00    +0.030 A 
ATOM     17  C   UNL     1       5.367  -5.285  25.498  0.00  0.00    +0.024 A 
ATOM     18  C   UNL     1       6.407  -4.555  24.895  0.00  0.00    +0.015 A 
ATOM     19  C   UNL     1       6.196  -3.939  23.661  0.00  0.00    +0.037 A 
ATOM     20  C   UNL     1       4.938  -4.037  23.061  0.00  0.00    +0.015 A 
ATOM     21  C   UNL     1       3.916  -4.777  23.669  0.00  0.00    +0.024 A 
BRANCH  16  26
ATOM     22  C   UNL     1       0.824  -8.470  27.269  0.00  0.00    +0.105 C 
ATOM     23  N   UNL     1       0.620  -7.635  26.089  0.00  0.00    -0.302 NA
ATOM     24  C   UNL     1       1.506  -8.040  24.971  0.00  0.00    +0.103 C 
ATOM     25  C   UNL     1       3.002  -7.665  25.129  0.00  0.00    +0.120 C 
ATOM     26  N   UNL     1       3.128  -6.235  25.444  0.00  0.00    -0.327 N 
ATOM     27  C   UNL     1       2.331  -5.795  26.601  0.00  0.00    +0.120 C 
ATOM     28  C   UNL     1       0.851  -6.205  26.395  0.00  0.00    +0.103 C 
ENDBRANCH  16  26
ENDBRANCH   1  19
BRANCH   9  29
ATOM     29  C   UNL     1       9.037   5.065  23.409  0.00  0.00    +0.141 C 
BRANCH  29  30
ATOM     30  C   UNL     1      10.240   5.718  24.013  0.00  0.00    -0.001 A 
ATOM     31  S   UNL     1      10.010   6.784  25.343  0.00  0.00    -0.101 S 
ATOM     32  C   UNL     1      11.685   7.077  25.484  0.00  0.00    +0.045 A 
ATOM     33  C   UNL     1      12.412   6.373  24.551  0.00  0.00    +0.008 A 
ATOM     34  C   UNL     1      11.580   5.574  23.713  0.00  0.00    +0.011 A 
ENDBRANCH  29  30
ENDBRANCH   9  29
TORSDOF 4
ENDMDL
MODEL 5
REMARK VINA RESULT:      -7.2      2.032      2.758
REMARK  Name = 
REMARK  5 active torsions:
REMARK  status: ('A' for Active; 'I' for Inactive)
REMARK    1  A    between atoms: C_1  and  N_2
REMARK    2  A    between atoms: N_5  and  C_8
REMARK    3  A    between atoms: C_11  and  C_14
REMARK    4  A    between atoms: C_25  and  C_27
REMARK    5  A    between atoms: C_27  and  C_28
REMARK                            x       y       z     vdW  Elec       q    Type
REMARK                         _______ _______ _______ _____ _____    ______ ____
ROOT
ATOM      1  C   UNL     1       8.258  -2.578  23.932  0.00  0.00    +0.249 C 
ATOM      2  N   UNL     1       8.044  -1.229  23.730  0.00  0.00    -0.264 N 
ATOM      3  H   UNL     1       7.101  -0.874  23.691  0.00  0.00    +0.157 HD
ATOM      4  C   UNL     1       9.048  -0.275  23.761  0.00  0.00    +0.156 A 
ATOM      5  C   UNL     1       8.786   1.154  23.823  0.00  0.00    +0.059 A 
ATOM      6  C   UNL     1      10.073   1.634  23.816  0.00  0.00    +0.086 A 
ATOM      7  C   UNL     1      10.011   2.977  23.855  0.00  0.00    +0.121 A 
ATOM      8  N   UNL     1       8.661   3.395  23.910  0.00  0.00    -0.291 N 
ATOM      9  C   UNL     1       8.110   4.685  23.947  0.00  0.00    +0.236 C 
ATOM     10  O   UNL     1       6.947   4.817  24.313  0.00  0.00    -0.272 OA
ATOM     11  N   UNL     1      11.015   0.672  23.786  0.00  0.00    -0.274 N 
ATOM     12  H   UNL     1      12.024   0.747  23.825  0.00  0.00    +0.189 HD
ATOM     13  C   UNL     1       7.903   2.185  23.909  0.00  0.00    +0.107 A 
ATOM     14  N   UNL     1      10.395  -0.546  23.735  0.00  0.00    -0.157 NA
ATOM     15  O   UNL     1       9.324  -3.131  24.180  0.00  0.00    -0.270 OA
ENDROOT
BRANCH   1  19
ATOM     16  C   UNL     1       4.807  -5.205  23.950  0.00  0.00    +0.030 A 
ATOM     17  C   UNL     1       4.658  -3.823  24.168  0.00  0.00    +0.024 A 
ATOM     18  C   UNL     1       5.755  -2.943  24.175  0.00  0.00    +0.015 A 
ATOM     19  C   UNL     1       7.040  -3.435  23.945  0.00  0.00    +0.037 A 
ATOM     20  C   UNL     1       7.206  -4.797  23.683  0.00  0.00    +0.015 A 
ATOM     21  C   UNL     1       6.105  -5.663  23.690  0.00  0.00    +0.024 A 
BRANCH  16  26
ATOM     22  C   UNL     1       1.154  -8.708  24.087  0.00  0.00    +0.105 C 
ATOM     23  N   UNL     1       1.167  -7.367  24.664  0.00  0.00    -0.302 NA
ATOM     24  C   UNL     1       1.314  -6.324  23.619  0.00  0.00    +0.103 C 
ATOM     25  C   UNL     1       2.725  -6.200  22.987  0.00  0.00    +0.120 C 
ATOM     26  N   UNL     1       3.738  -6.071  24.045  0.00  0.00    -0.327 N 
ATOM     27  C   UNL     1       3.688  -7.131  25.065  0.00  0.00    +0.120 C 
ATOM     28  C   UNL     1       2.258  -7.217  25.653  0.00  0.00    +0.103 C 
ENDBRANCH  16  26
ENDBRANCH   1  19
BRANCH   9  29
ATOM     29  C   UNL     1       8.982   5.793  23.429  0.00  0.00    +0.141 C 
BRANCH  29  30
ATOM     30  C   UNL     1       9.989   6.273  24.425  0.00  0.00    -0.001 A 
ATOM     31  S   UNL     1       9.436   6.751  25.981  0.00  0.00    -0.101 S 
ATOM     32  C   UNL     1      11.019   7.107  26.509  0.00  0.00    +0.045 A 
ATOM     33  C   UNL     1      11.956   6.859  25.531  0.00  0.00    +0.008 A 
ATOM     34  C   UNL     1      11.364   6.361  24.333  0.00  0.00    +0.011 A 
ENDBRANCH  29  30
ENDBRANCH   9  29
TORSDOF 4
ENDMDL
MODEL 6
REMARK VINA RESULT:      -7.1      3.582     11.062
REMARK  Name = 
REMARK  5 active torsions:
REMARK  status: ('A' for Active; 'I' for Inactive)
REMARK    1  A    between atoms: C_1  and  N_2
REMARK    2  A    between atoms: N_5  and  C_8
REMARK    3  A    between atoms: C_11  and  C_14
REMARK    4  A    between atoms: C_25  and  C_27
REMARK    5  A    between atoms: C_27  and  C_28
REMARK                            x       y       z     vdW  Elec       q    Type
REMARK                         _______ _______ _______ _____ _____    ______ ____
ROOT
ATOM      1  C   UNL     1       8.692  -1.644  22.593  0.00  0.00    +0.249 C 
ATOM      2  N   UNL     1       7.551  -2.232  23.100  0.00  0.00    -0.264 N 
ATOM      3  H   UNL     1       6.868  -1.665  23.579  0.00  0.00    +0.157 HD
ATOM      4  C   UNL     1       7.174  -3.539  22.836  0.00  0.00    +0.156 A 
ATOM      5  C   UNL     1       5.851  -4.062  23.141  0.00  0.00    +0.059 A 
ATOM      6  C   UNL     1       6.003  -5.358  22.713  0.00  0.00    +0.086 A 
ATOM      7  C   UNL     1       4.846  -6.005  22.942  0.00  0.00    +0.121 A 
ATOM      8  N   UNL     1       3.903  -5.117  23.512  0.00  0.00    -0.291 N 
ATOM      9  C   UNL     1       2.583  -5.339  23.930  0.00  0.00    +0.236 C 
ATOM     10  O   UNL     1       1.848  -4.372  24.095  0.00  0.00    -0.272 OA
ATOM     11  N   UNL     1       7.215  -5.623  22.188  0.00  0.00    -0.274 N 
ATOM     12  H   UNL     1       7.568  -6.469  21.760  0.00  0.00    +0.189 HD
ATOM     13  C   UNL     1       4.587  -3.867  23.603  0.00  0.00    +0.107 A 
ATOM     14  N   UNL     1       7.983  -4.494  22.268  0.00  0.00    -0.157 NA
ATOM     15  O   UNL     1       9.518  -2.151  21.842  0.00  0.00    -0.270 OA
ENDROOT
BRANCH   1  19
ATOM     16  C   UNL     1       9.178   2.523  23.693  0.00  0.00    +0.030 A 
ATOM     17  C   UNL     1       9.647   2.050  22.454  0.00  0.00    +0.024 A 
ATOM     18  C   UNL     1       9.511   0.704  22.067  0.00  0.00    +0.015 A 
ATOM     19  C   UNL     1       8.882  -0.203  22.920  0.00  0.00    +0.037 A 
ATOM     20  C   UNL     1       8.371   0.256  24.137  0.00  0.00    +0.015 A 
ATOM     21  C   UNL     1       8.523   1.596  24.513  0.00  0.00    +0.024 A 
BRANCH  16  26
ATOM     22  C   UNL     1      10.307   7.108  25.525  0.00  0.00    +0.105 C 
ATOM     23  N   UNL     1       9.500   6.753  24.361  0.00  0.00    -0.302 NA
ATOM     24  C   UNL     1       8.314   5.946  24.742  0.00  0.00    +0.103 C 
ATOM     25  C   UNL     1       8.603   4.477  25.144  0.00  0.00    +0.120 C 
ATOM     26  N   UNL     1       9.406   3.821  24.102  0.00  0.00    -0.327 N 
ATOM     27  C   UNL     1      10.640   4.541  23.744  0.00  0.00    +0.120 C 
ATOM     28  C   UNL     1      10.295   6.001  23.363  0.00  0.00    +0.103 C 
ENDBRANCH  16  26
ENDBRANCH   1  19
BRANCH   9  29
ATOM     29  C   UNL     1       2.217  -6.763  24.241  0.00  0.00    +0.141 C 
BRANCH  29  30
ATOM     30  C   UNL     1       2.005  -7.019  25.699  0.00  0.00    -0.001 A 
ATOM     31  S   UNL     1       3.217  -6.503  26.804  0.00  0.00    -0.101 S 
ATOM     32  C   UNL     1       2.326  -7.063  28.147  0.00  0.00    +0.045 A 
ATOM     33  C   UNL     1       1.125  -7.621  27.773  0.00  0.00    +0.008 A 
ATOM     34  C   UNL     1       0.930  -7.579  26.360  0.00  0.00    +0.011 A 
ENDBRANCH  29  30
ENDBRANCH   9  29
TORSDOF 4
ENDMDL
MODEL 7
REMARK VINA RESULT:      -6.9      1.048      1.228
REMARK  Name = 
REMARK  5 active torsions:
REMARK  status: ('A' for Active; 'I' for Inactive)
REMARK    1  A    between atoms: C_1  and  N_2
REMARK    2  A    between atoms: N_5  and  C_8
REMARK    3  A    between atoms: C_11  and  C_14
REMARK    4  A    between atoms: C_25  and  C_27
REMARK    5  A    between atoms: C_27  and  C_28
REMARK                            x       y       z     vdW  Elec       q    Type
REMARK                         _______ _______ _______ _____ _____    ______ ____
ROOT
ATOM      1  C   UNL     1       7.852  -4.021  24.618  0.00  0.00    +0.249 C 
ATOM      2  N   UNL     1       7.748  -2.645  24.596  0.00  0.00    -0.264 N 
ATOM      3  H   UNL     1       7.006  -2.192  25.106  0.00  0.00    +0.157 HD
ATOM      4  C   UNL     1       8.716  -1.806  24.065  0.00  0.00    +0.156 A 
ATOM      5  C   UNL     1       8.732  -0.369  24.288  0.00  0.00    +0.059 A 
ATOM      6  C   UNL     1       9.844  -0.027  23.558  0.00  0.00    +0.086 A 
ATOM      7  C   UNL     1       9.999   1.307  23.646  0.00  0.00    +0.121 A 
ATOM      8  N   UNL     1       8.986   1.855  24.467  0.00  0.00    -0.291 N 
ATOM      9  C   UNL     1       8.734   3.186  24.832  0.00  0.00    +0.236 C 
ATOM     10  O   UNL     1       8.009   3.404  25.797  0.00  0.00    -0.272 OA
ATOM     11  N   UNL     1      10.463  -1.074  22.981  0.00  0.00    -0.274 N 
ATOM     12  H   UNL     1      11.318  -1.107  22.440  0.00  0.00    +0.189 HD
ATOM     13  C   UNL     1       8.202   0.735  24.878  0.00  0.00    +0.107 A 
ATOM     14  N   UNL     1       9.762  -2.212  23.272  0.00  0.00    -0.157 NA
ATOM     15  O   UNL     1       8.785  -4.702  24.206  0.00  0.00    -0.270 OA
ENDROOT
BRANCH   1  19
ATOM     16  C   UNL     1       4.723  -6.116  26.769  0.00  0.00    +0.030 A 
ATOM     17  C   UNL     1       4.583  -5.830  25.399  0.00  0.00    +0.024 A 
ATOM     18  C   UNL     1       5.575  -5.148  24.672  0.00  0.00    +0.015 A 
ATOM     19  C   UNL     1       6.749  -4.746  25.308  0.00  0.00    +0.037 A 
ATOM     20  C   UNL     1       6.927  -5.058  26.659  0.00  0.00    +0.015 A 
ATOM     21  C   UNL     1       5.926  -5.728  27.372  0.00  0.00    +0.024 A 
BRANCH  16  26
ATOM     22  C   UNL     1       1.181  -8.663  29.341  0.00  0.00    +0.105 C 
ATOM     23  N   UNL     1       1.358  -7.221  29.197  0.00  0.00    -0.302 NA
ATOM     24  C   UNL     1       1.247  -6.795  27.780  0.00  0.00    +0.103 C 
ATOM     25  C   UNL     1       2.452  -7.158  26.874  0.00  0.00    +0.120 C 
ATOM     26  N   UNL     1       3.702  -6.696  27.494  0.00  0.00    -0.327 N 
ATOM     27  C   UNL     1       3.901  -7.160  28.877  0.00  0.00    +0.120 C 
ATOM     28  C   UNL     1       2.666  -6.782  29.732  0.00  0.00    +0.103 C 
ENDBRANCH  16  26
ENDBRANCH   1  19
BRANCH   9  29
ATOM     29  C   UNL     1       9.305   4.241  23.928  0.00  0.00    +0.141 C 
BRANCH  29  30
ATOM     30  C   UNL     1       8.265   5.121  23.310  0.00  0.00    -0.001 A 
ATOM     31  S   UNL     1       8.574   6.810  23.218  0.00  0.00    -0.101 S 
ATOM     32  C   UNL     1       7.087   7.108  22.435  0.00  0.00    +0.045 A 
ATOM     33  C   UNL     1       6.371   5.951  22.233  0.00  0.00    +0.008 A 
ATOM     34  C   UNL     1       7.058   4.800  22.721  0.00  0.00    +0.011 A 
ENDBRANCH  29  30
ENDBRANCH   9  29
TORSDOF 4
ENDMDL
MODEL 8
REMARK VINA RESULT:      -6.7      1.475      1.627
REMARK  Name = 
REMARK  5 active torsions:
REMARK  status: ('A' for Active; 'I' for Inactive)
REMARK    1  A    between atoms: C_1  and  N_2
REMARK    2  A    between atoms: N_5  and  C_8
REMARK    3  A    between atoms: C_11  and  C_14
REMARK    4  A    between atoms: C_25  and  C_27
REMARK    5  A    between atoms: C_27  and  C_28
REMARK                            x       y       z     vdW  Elec       q    Type
REMARK                         _______ _______ _______ _____ _____    ______ ____
ROOT
ATOM      1  C   UNL     1       7.438  -3.037  23.547  0.00  0.00    +0.249 C 
ATOM      2  N   UNL     1       7.273  -1.706  23.872  0.00  0.00    -0.264 N 
ATOM      3  H   UNL     1       6.444  -1.411  24.363  0.00  0.00    +0.157 HD
ATOM      4  C   UNL     1       8.266  -0.749  23.734  0.00  0.00    +0.156 A 
ATOM      5  C   UNL     1       8.180   0.577  24.327  0.00  0.00    +0.059 A 
ATOM      6  C   UNL     1       9.369   1.110  23.891  0.00  0.00    +0.086 A 
ATOM      7  C   UNL     1       9.445   2.372  24.349  0.00  0.00    +0.121 A 
ATOM      8  N   UNL     1       8.298   2.675  25.120  0.00  0.00    -0.291 N 
ATOM      9  C   UNL     1       7.932   3.858  25.778  0.00  0.00    +0.236 C 
ATOM     10  O   UNL     1       7.065   3.805  26.643  0.00  0.00    -0.272 OA
ATOM     11  N   UNL     1      10.116   0.259  23.162  0.00  0.00    -0.274 N 
ATOM     12  H   UNL     1      11.041   0.378  22.768  0.00  0.00    +0.189 HD
ATOM     13  C   UNL     1       7.518   1.480  25.097  0.00  0.00    +0.107 A 
ATOM     14  N   UNL     1       9.435  -0.921  23.033  0.00  0.00    -0.157 NA
ATOM     15  O   UNL     1       8.453  -3.577  23.119  0.00  0.00    -0.270 OA
ENDROOT
BRANCH   1  19
ATOM     16  C   UNL     1       4.166  -5.710  24.526  0.00  0.00    +0.030 A 
ATOM     17  C   UNL     1       3.981  -4.653  23.616  0.00  0.00    +0.024 A 
ATOM     18  C   UNL     1       5.018  -3.764  23.280  0.00  0.00    +0.015 A 
ATOM     19  C   UNL     1       6.282  -3.928  23.846  0.00  0.00    +0.037 A 
ATOM     20  C   UNL     1       6.499  -4.997  24.719  0.00  0.00    +0.015 A 
ATOM     21  C   UNL     1       5.454  -5.867  25.052  0.00  0.00    +0.024 A 
BRANCH  16  26
ATOM     22  C   UNL     1       0.637  -8.949  26.169  0.00  0.00    +0.105 C 
ATOM     23  N   UNL     1       0.468  -7.643  25.538  0.00  0.00    -0.302 NA
ATOM     24  C   UNL     1       1.037  -7.620  24.168  0.00  0.00    +0.103 C 
ATOM     25  C   UNL     1       2.585  -7.597  24.085  0.00  0.00    +0.120 C 
ATOM     26  N   UNL     1       3.116  -6.513  24.923  0.00  0.00    -0.327 N 
ATOM     27  C   UNL     1       2.646  -6.538  26.318  0.00  0.00    +0.120 C 
ATOM     28  C   UNL     1       1.098  -6.571  26.341  0.00  0.00    +0.103 C 
ENDBRANCH  16  26
ENDBRANCH   1  19
BRANCH   9  29
ATOM     29  C   UNL     1       8.578   5.120  25.281  0.00  0.00    +0.141 C 
BRANCH  29  30
ATOM     30  C   UNL     1       7.846   5.753  24.140  0.00  0.00    -0.001 A 
ATOM     31  S   UNL     1       6.225   6.267  24.392  0.00  0.00    -0.101 S 
ATOM     32  C   UNL     1       6.093   6.860  22.798  0.00  0.00    +0.045 A 
ATOM     33  C   UNL     1       7.258   6.686  22.085  0.00  0.00    +0.008 A 
ATOM     34  C   UNL     1       8.277   6.063  22.865  0.00  0.00    +0.011 A 
ENDBRANCH  29  30
ENDBRANCH   9  29
TORSDOF 4
ENDMDL
MODEL 9
REMARK VINA RESULT:      -6.1      3.931     11.143
REMARK  Name = 
REMARK  5 active torsions:
REMARK  status: ('A' for Active; 'I' for Inactive)
REMARK    1  A    between atoms: C_1  and  N_2
REMARK    2  A    between atoms: N_5  and  C_8
REMARK    3  A    between atoms: C_11  and  C_14
REMARK    4  A    between atoms: C_25  and  C_27
REMARK    5  A    between atoms: C_27  and  C_28
REMARK                            x       y       z     vdW  Elec       q    Type
REMARK                         _______ _______ _______ _____ _____    ______ ____
ROOT
ATOM      1  C   UNL     1       8.029  -2.079  22.900  0.00  0.00    +0.249 C 
ATOM      2  N   UNL     1       6.807  -2.597  23.278  0.00  0.00    -0.264 N 
ATOM      3  H   UNL     1       6.083  -1.979  23.607  0.00  0.00    +0.157 HD
ATOM      4  C   UNL     1       6.426  -3.912  23.061  0.00  0.00    +0.156 A 
ATOM      5  C   UNL     1       5.056  -4.378  23.207  0.00  0.00    +0.059 A 
ATOM      6  C   UNL     1       5.222  -5.707  22.905  0.00  0.00    +0.086 A 
ATOM      7  C   UNL     1       4.022  -6.306  23.010  0.00  0.00    +0.121 A 
ATOM      8  N   UNL     1       3.039  -5.353  23.367  0.00  0.00    -0.291 N 
ATOM      9  C   UNL     1       1.665  -5.510  23.603  0.00  0.00    +0.236 C 
ATOM     10  O   UNL     1       0.948  -4.515  23.585  0.00  0.00    -0.272 OA
ATOM     11  N   UNL     1       6.487  -6.042  22.585  0.00  0.00    -0.274 N 
ATOM     12  H   UNL     1       6.868  -6.928  22.278  0.00  0.00    +0.189 HD
ATOM     13  C   UNL     1       3.746  -4.117  23.463  0.00  0.00    +0.107 A 
ATOM     14  N   UNL     1       7.274  -4.928  22.691  0.00  0.00    -0.157 NA
ATOM     15  O   UNL     1       8.936  -2.664  22.318  0.00  0.00    -0.270 OA
ENDROOT
BRANCH   1  19
ATOM     16  C   UNL     1       8.492   2.195  23.473  0.00  0.00    +0.030 A 
ATOM     17  C   UNL     1       9.054   1.284  24.385  0.00  0.00    +0.024 A 
ATOM     18  C   UNL     1       8.919  -0.107  24.234  0.00  0.00    +0.015 A 
ATOM     19  C   UNL     1       8.220  -0.622  23.141  0.00  0.00    +0.037 A 
ATOM     20  C   UNL     1       7.690   0.264  22.200  0.00  0.00    +0.015 A 
ATOM     21  C   UNL     1       7.823   1.647  22.370  0.00  0.00    +0.024 A 
BRANCH  16  26
ATOM     22  C   UNL     1       8.552   7.108  24.700  0.00  0.00    +0.105 C 
ATOM     23  N   UNL     1       8.968   6.462  23.459  0.00  0.00    -0.302 NA
ATOM     24  C   UNL     1       7.839   5.757  22.803  0.00  0.00    +0.103 C 
ATOM     25  C   UNL     1       7.386   4.439  23.482  0.00  0.00    +0.120 C 
ATOM     26  N   UNL     1       8.545   3.557  23.686  0.00  0.00    -0.327 N 
ATOM     27  C   UNL     1       9.665   4.185  24.406  0.00  0.00    +0.120 C 
ATOM     28  C   UNL     1      10.067   5.500  23.694  0.00  0.00    +0.103 C 
ENDBRANCH  16  26
ENDBRANCH   1  19
BRANCH   9  29
ATOM     29  C   UNL     1       1.209  -6.895  23.963  0.00  0.00    +0.141 C 
BRANCH  29  30
ATOM     30  C   UNL     1       1.018  -7.096  25.433  0.00  0.00    -0.001 A 
ATOM     31  S   UNL     1       0.986  -8.703  26.042  0.00  0.00    -0.101 S 
ATOM     32  C   UNL     1       0.785  -8.163  27.648  0.00  0.00    +0.045 A 
ATOM     33  C   UNL     1       0.755  -6.789  27.730  0.00  0.00    +0.008 A 
ATOM     34  C   UNL     1       0.907  -6.171  26.454  0.00  0.00    +0.011 A 
ENDBRANCH  29  30
ENDBRANCH   9  29
TORSDOF 4
ENDMDL
