MODEL 1
REMARK VINA RESULT:      -5.5      0.000      0.000
REMARK  Name = 
REMARK  3 active torsions:
REMARK  status: ('A' for Active; 'I' for Inactive)
REMARK    1  A    between atoms: N_6  and  C_9
REMARK    2  A    between atoms: C_13  and  C_15
REMARK    3  A    between atoms: C_15  and  O_16
REMARK                            x       y       z     vdW  Elec       q    Type
REMARK                         _______ _______ _______ _____ _____    ______ ____
ROOT
ATOM      1  N   UNL     1       4.295  -6.703  23.380  0.00  0.00    -0.343 N 
ATOM      2  H   UNL     1       3.850  -6.357  22.540  0.00  0.00    +0.144 HD
ATOM      3  H   UNL     1       3.645  -6.923  24.128  0.00  0.00    +0.144 HD
ATOM      4  C   UNL     1       5.415  -6.059  23.825  0.00  0.00    +0.123 A 
ATOM      5  C   UNL     1       6.293  -5.376  22.861  0.00  0.00    +0.061 A 
ATOM      6  C   UNL     1       7.320  -4.705  23.379  0.00  0.00    +0.096 A 
ATOM      7  N   UNL     1       7.548  -4.671  24.741  0.00  0.00    -0.272 N 
ATOM      8  C   UNL     1       6.783  -5.481  25.595  0.00  0.00    +0.352 A 
ATOM      9  O   UNL     1       7.116  -5.659  26.765  0.00  0.00    -0.244 OA
ATOM     10  N   UNL     1       5.653  -6.086  25.097  0.00  0.00    -0.178 NA
ENDROOT
BRANCH   7  11
ATOM     11  C   UNL     1       8.772  -4.071  25.299  0.00  0.00    +0.235 C 
ATOM     12  O   UNL     1       9.684  -3.689  24.242  0.00  0.00    -0.340 OA
ATOM     13  C   UNL     1       9.646  -2.277  23.989  0.00  0.00    +0.203 C 
ATOM     14  S   UNL     1       8.537  -1.453  25.149  0.00  0.00    -0.123 S 
ATOM     15  C   UNL     1       8.583  -2.870  26.245  0.00  0.00    +0.126 C 
BRANCH  13  16
ATOM     16  C   UNL     1       9.218  -1.988  22.543  0.00  0.00    +0.198 C 
BRANCH  16  17
ATOM     17  O   UNL     1      10.328  -1.664  21.706  0.00  0.00    -0.392 OA
ATOM     18  H   UNL     1       9.959  -1.234  20.912  0.00  0.00    +0.210 HD
ENDBRANCH  16  17
ENDBRANCH  13  16
ENDBRANCH   7  11
TORSDOF 3
ENDMDL
MODEL 2
REMARK VINA RESULT:      -5.5      2.579      3.623
REMARK  Name = 
REMARK  3 active torsions:
REMARK  status: ('A' for Active; 'I' for Inactive)
REMARK    1  A    between atoms: N_6  and  C_9
REMARK    2  A    between atoms: C_13  and  C_15
REMARK    3  A    between atoms: C_15  and  O_16
REMARK                            x       y       z     vdW  Elec       q    Type
REMARK                         _______ _______ _______ _____ _____    ______ ____
ROOT
ATOM      1  N   UNL     1       5.430  -7.401  28.476  0.00  0.00    -0.343 N 
ATOM      2  H   UNL     1       4.433  -7.554  28.542  0.00  0.00    +0.144 HD
ATOM      3  H   UNL     1       5.885  -7.272  29.375  0.00  0.00    +0.144 HD
ATOM      4  C   UNL     1       5.885  -6.532  27.524  0.00  0.00    +0.123 A 
ATOM      5  C   UNL     1       5.118  -6.349  26.280  0.00  0.00    +0.061 A 
ATOM      6  C   UNL     1       5.582  -5.429  25.438  0.00  0.00    +0.096 A 
ATOM      7  N   UNL     1       6.725  -4.705  25.716  0.00  0.00    -0.272 N 
ATOM      8  C   UNL     1       7.509  -5.043  26.830  0.00  0.00    +0.352 A 
ATOM      9  O   UNL     1       8.643  -4.588  26.967  0.00  0.00    -0.244 OA
ATOM     10  N   UNL     1       6.991  -5.905  27.767  0.00  0.00    -0.178 NA
ENDROOT
BRANCH   7  11
ATOM     11  C   UNL     1       7.329  -3.809  24.714  0.00  0.00    +0.235 C 
ATOM     12  O   UNL     1       7.995  -4.572  23.680  0.00  0.00    -0.340 OA
ATOM     13  C   UNL     1       7.209  -4.645  22.482  0.00  0.00    +0.203 C 
ATOM     14  S   UNL     1       5.697  -3.676  22.652  0.00  0.00    -0.123 S 
ATOM     15  C   UNL     1       6.391  -2.787  24.046  0.00  0.00    +0.126 C 
BRANCH  13  16
ATOM     16  C   UNL     1       6.873  -6.102  22.131  0.00  0.00    +0.198 C 
BRANCH  16  17
ATOM     17  O   UNL     1       5.472  -6.306  21.956  0.00  0.00    -0.392 OA
ATOM     18  H   UNL     1       5.284  -7.214  22.260  0.00  0.00    +0.210 HD
ENDBRANCH  16  17
ENDBRANCH  13  16
ENDBRANCH   7  11
TORSDOF 3
ENDMDL
MODEL 3
REMARK VINA RESULT:      -5.5      1.950      2.058
REMARK  Name = 
REMARK  3 active torsions:
REMARK  status: ('A' for Active; 'I' for Inactive)
REMARK    1  A    between atoms: N_6  and  C_9
REMARK    2  A    between atoms: C_13  and  C_15
REMARK    3  A    between atoms: C_15  and  O_16
REMARK                            x       y       z     vdW  Elec       q    Type
REMARK                         _______ _______ _______ _____ _____    ______ ____
ROOT
ATOM      1  N   UNL     1       6.050  -5.849  21.134  0.00  0.00    -0.343 N 
ATOM      2  H   UNL     1       5.157  -5.518  20.792  0.00  0.00    +0.144 HD
ATOM      3  H   UNL     1       6.046  -6.825  21.411  0.00  0.00    +0.144 HD
ATOM      4  C   UNL     1       6.738  -5.054  22.006  0.00  0.00    +0.123 A 
ATOM      5  C   UNL     1       6.568  -3.592  21.947  0.00  0.00    +0.061 A 
ATOM      6  C   UNL     1       7.211  -2.892  22.880  0.00  0.00    +0.096 A 
ATOM      7  N   UNL     1       8.000  -3.507  23.832  0.00  0.00    -0.272 N 
ATOM      8  C   UNL     1       8.264  -4.883  23.732  0.00  0.00    +0.352 A 
ATOM      9  O   UNL     1       9.146  -5.408  24.409  0.00  0.00    -0.244 OA
ATOM     10  N   UNL     1       7.524  -5.637  22.853  0.00  0.00    -0.178 NA
ENDROOT
BRANCH   7  11
ATOM     11  C   UNL     1       8.839  -2.725  24.756  0.00  0.00    +0.235 C 
ATOM     12  O   UNL     1       9.978  -2.162  24.063  0.00  0.00    -0.340 OA
ATOM     13  C   UNL     1       9.788  -0.770  23.770  0.00  0.00    +0.203 C 
ATOM     14  S   UNL     1       8.227  -0.182  24.458  0.00  0.00    -0.123 S 
ATOM     15  C   UNL     1       8.138  -1.605  25.545  0.00  0.00    +0.126 C 
BRANCH  13  16
ATOM     16  C   UNL     1       9.837  -0.513  22.257  0.00  0.00    +0.198 C 
BRANCH  16  17
ATOM     17  O   UNL     1      10.290  -1.653  21.530  0.00  0.00    -0.392 OA
ATOM     18  H   UNL     1       9.665  -1.776  20.790  0.00  0.00    +0.210 HD
ENDBRANCH  16  17
ENDBRANCH  13  16
ENDBRANCH   7  11
TORSDOF 3
ENDMDL
MODEL 4
REMARK VINA RESULT:      -5.4      2.835      5.523
REMARK  Name = 
REMARK  3 active torsions:
REMARK  status: ('A' for Active; 'I' for Inactive)
REMARK    1  A    between atoms: N_6  and  C_9
REMARK    2  A    between atoms: C_13  and  C_15
REMARK    3  A    between atoms: C_15  and  O_16
REMARK                            x       y       z     vdW  Elec       q    Type
REMARK                         _______ _______ _______ _____ _____    ______ ____
ROOT
ATOM      1  N   UNL     1       9.763   1.440  25.050  0.00  0.00    -0.343 N 
ATOM      2  H   UNL     1       9.047   2.084  25.358  0.00  0.00    +0.144 HD
ATOM      3  H   UNL     1      10.447   1.855  24.425  0.00  0.00    +0.144 HD
ATOM      4  C   UNL     1       9.375   0.190  24.655  0.00  0.00    +0.123 A 
ATOM      5  C   UNL     1       8.167  -0.414  25.239  0.00  0.00    +0.061 A 
ATOM      6  C   UNL     1       7.810  -1.599  24.746  0.00  0.00    +0.096 A 
ATOM      7  N   UNL     1       8.545  -2.222  23.757  0.00  0.00    -0.272 N 
ATOM      8  C   UNL     1       9.780  -1.682  23.364  0.00  0.00    +0.352 A 
ATOM      9  O   UNL     1      10.563  -2.332  22.674  0.00  0.00    -0.244 OA
ATOM     10  N   UNL     1      10.107  -0.411  23.773  0.00  0.00    -0.178 NA
ENDROOT
BRANCH   7  11
ATOM     11  C   UNL     1       8.246  -3.601  23.332  0.00  0.00    +0.235 C 
ATOM     12  O   UNL     1       8.898  -4.558  24.200  0.00  0.00    -0.340 OA
ATOM     13  C   UNL     1       7.982  -5.130  25.145  0.00  0.00    +0.203 C 
ATOM     14  S   UNL     1       6.308  -4.522  24.856  0.00  0.00    -0.123 S 
ATOM     15  C   UNL     1       6.759  -3.978  23.208  0.00  0.00    +0.126 C 
BRANCH  13  16
ATOM     16  C   UNL     1       8.418  -4.830  26.586  0.00  0.00    +0.198 C 
BRANCH  16  17
ATOM     17  O   UNL     1       7.969  -5.826  27.504  0.00  0.00    -0.392 OA
ATOM     18  H   UNL     1       8.664  -5.910  28.184  0.00  0.00    +0.210 HD
ENDBRANCH  16  17
ENDBRANCH  13  16
ENDBRANCH   7  11
TORSDOF 3
ENDMDL
MODEL 5
REMARK VINA RESULT:      -5.3      2.585      3.757
REMARK  Name = 
REMARK  3 active torsions:
REMARK  status: ('A' for Active; 'I' for Inactive)
REMARK    1  A    between atoms: N_6  and  C_9
REMARK    2  A    between atoms: C_13  and  C_15
REMARK    3  A    between atoms: C_15  and  O_16
REMARK                            x       y       z     vdW  Elec       q    Type
REMARK                         _______ _______ _______ _____ _____    ______ ____
ROOT
ATOM      1  N   UNL     1       8.330  -5.642  26.730  0.00  0.00    -0.343 N 
ATOM      2  H   UNL     1       8.889  -5.464  27.554  0.00  0.00    +0.144 HD
ATOM      3  H   UNL     1       8.483  -6.560  26.322  0.00  0.00    +0.144 HD
ATOM      4  C   UNL     1       8.237  -4.655  25.790  0.00  0.00    +0.123 A 
ATOM      5  C   UNL     1       8.351  -3.246  26.202  0.00  0.00    +0.061 A 
ATOM      6  C   UNL     1       8.330  -2.347  25.220  0.00  0.00    +0.096 A 
ATOM      7  N   UNL     1       8.192  -2.723  23.898  0.00  0.00    -0.272 N 
ATOM      8  C   UNL     1       7.912  -4.061  23.581  0.00  0.00    +0.352 A 
ATOM      9  O   UNL     1       7.546  -4.381  22.452  0.00  0.00    -0.244 OA
ATOM     10  N   UNL     1       8.045  -5.016  24.562  0.00  0.00    -0.178 NA
ENDROOT
BRANCH   7  11
ATOM     11  C   UNL     1       8.002  -1.724  22.832  0.00  0.00    +0.235 C 
ATOM     12  O   UNL     1       7.629  -0.442  23.391  0.00  0.00    -0.340 OA
ATOM     13  C   UNL     1       8.738   0.467  23.426  0.00  0.00    +0.203 C 
ATOM     14  S   UNL     1      10.196  -0.279  22.669  0.00  0.00    -0.123 S 
ATOM     15  C   UNL     1       9.180  -1.516  21.862  0.00  0.00    +0.126 C 
BRANCH  13  16
ATOM     16  C   UNL     1       9.048   0.904  24.865  0.00  0.00    +0.198 C 
BRANCH  16  17
ATOM     17  O   UNL     1      10.401   0.636  25.232  0.00  0.00    -0.392 OA
ATOM     18  H   UNL     1      10.893   1.469  25.102  0.00  0.00    +0.210 HD
ENDBRANCH  16  17
ENDBRANCH  13  16
ENDBRANCH   7  11
TORSDOF 3
ENDMDL
MODEL 6
REMARK VINA RESULT:      -5.2      3.006      4.279
REMARK  Name = 
REMARK  3 active torsions:
REMARK  status: ('A' for Active; 'I' for Inactive)
REMARK    1  A    between atoms: N_6  and  C_9
REMARK    2  A    between atoms: C_13  and  C_15
REMARK    3  A    between atoms: C_15  and  O_16
REMARK                            x       y       z     vdW  Elec       q    Type
REMARK                         _______ _______ _______ _____ _____    ______ ____
ROOT
ATOM      1  N   UNL     1       5.707  -3.568  24.338  0.00  0.00    -0.343 N 
ATOM      2  H   UNL     1       4.836  -3.093  24.532  0.00  0.00    +0.144 HD
ATOM      3  H   UNL     1       5.953  -4.270  25.029  0.00  0.00    +0.144 HD
ATOM      4  C   UNL     1       6.777  -2.813  23.947  0.00  0.00    +0.123 A 
ATOM      5  C   UNL     1       6.551  -1.553  23.220  0.00  0.00    +0.061 A 
ATOM      6  C   UNL     1       7.638  -0.836  22.944  0.00  0.00    +0.096 A 
ATOM      7  N   UNL     1       8.900  -1.265  23.306  0.00  0.00    -0.272 N 
ATOM      8  C   UNL     1       9.070  -2.552  23.840  0.00  0.00    +0.352 A 
ATOM      9  O   UNL     1      10.189  -3.051  23.943  0.00  0.00    -0.244 OA
ATOM     10  N   UNL     1       7.958  -3.256  24.237  0.00  0.00    -0.178 NA
ENDROOT
BRANCH   7  11
ATOM     11  C   UNL     1      10.111  -0.557  22.856  0.00  0.00    +0.235 C 
ATOM     12  O   UNL     1       9.812   0.306  21.733  0.00  0.00    -0.340 OA
ATOM     13  C   UNL     1       9.701   1.681  22.132  0.00  0.00    +0.203 C 
ATOM     14  S   UNL     1      10.070   1.865  23.889  0.00  0.00    -0.123 S 
ATOM     15  C   UNL     1      10.869   0.260  23.918  0.00  0.00    +0.126 C 
BRANCH  13  16
ATOM     16  C   UNL     1       8.305   2.236  21.818  0.00  0.00    +0.198 C 
BRANCH  16  17
ATOM     17  O   UNL     1       8.202   3.631  22.101  0.00  0.00    -0.392 OA
ATOM     18  H   UNL     1       8.272   4.092  21.243  0.00  0.00    +0.210 HD
ENDBRANCH  16  17
ENDBRANCH  13  16
ENDBRANCH   7  11
TORSDOF 3
ENDMDL
MODEL 7
REMARK VINA RESULT:      -5.2      3.348      5.637
REMARK  Name = 
REMARK  3 active torsions:
REMARK  status: ('A' for Active; 'I' for Inactive)
REMARK    1  A    between atoms: N_6  and  C_9
REMARK    2  A    between atoms: C_13  and  C_15
REMARK    3  A    between atoms: C_15  and  O_16
REMARK                            x       y       z     vdW  Elec       q    Type
REMARK                         _______ _______ _______ _____ _____    ______ ____
ROOT
ATOM      1  N   UNL     1       9.164   2.410  21.669  0.00  0.00    -0.343 N 
ATOM      2  H   UNL     1       8.372   2.965  21.374  0.00  0.00    +0.144 HD
ATOM      3  H   UNL     1       9.982   2.514  21.077  0.00  0.00    +0.144 HD
ATOM      4  C   UNL     1       8.938   1.112  22.035  0.00  0.00    +0.123 A 
ATOM      5  C   UNL     1       7.633   0.734  22.602  0.00  0.00    +0.061 A 
ATOM      6  C   UNL     1       7.462  -0.561  22.859  0.00  0.00    +0.096 A 
ATOM      7  N   UNL     1       8.460  -1.485  22.620  0.00  0.00    -0.272 N 
ATOM      8  C   UNL     1       9.739  -1.044  22.244  0.00  0.00    +0.352 A 
ATOM      9  O   UNL     1      10.702  -1.809  22.261  0.00  0.00    -0.244 OA
ATOM     10  N   UNL     1       9.903   0.267  21.864  0.00  0.00    -0.178 NA
ENDROOT
BRANCH   7  11
ATOM     11  C   UNL     1       8.331  -2.885  23.057  0.00  0.00    +0.235 C 
ATOM     12  O   UNL     1       8.910  -3.067  24.371  0.00  0.00    -0.340 OA
ATOM     13  C   UNL     1       7.904  -3.127  25.393  0.00  0.00    +0.203 C 
ATOM     14  S   UNL     1       6.254  -3.049  24.666  0.00  0.00    -0.123 S 
ATOM     15  C   UNL     1       6.912  -3.482  23.056  0.00  0.00    +0.126 C 
BRANCH  13  16
ATOM     16  C   UNL     1       8.090  -1.999  26.417  0.00  0.00    +0.198 C 
BRANCH  16  17
ATOM     17  O   UNL     1       9.031  -1.020  25.977  0.00  0.00    -0.392 OA
ATOM     18  H   UNL     1       9.850  -1.502  25.756  0.00  0.00    +0.210 HD
ENDBRANCH  16  17
ENDBRANCH  13  16
ENDBRANCH   7  11
TORSDOF 3
ENDMDL
MODEL 8
REMARK VINA RESULT:      -5.1      2.737      4.737
REMARK  Name = 
REMARK  3 active torsions:
REMARK  status: ('A' for Active; 'I' for Inactive)
REMARK    1  A    between atoms: N_6  and  C_9
REMARK    2  A    between atoms: C_13  and  C_15
REMARK    3  A    between atoms: C_15  and  O_16
REMARK                            x       y       z     vdW  Elec       q    Type
REMARK                         _______ _______ _______ _____ _____    ______ ____
ROOT
ATOM      1  N   UNL     1       9.878  -0.442  21.468  0.00  0.00    -0.343 N 
ATOM      2  H   UNL     1      10.631   0.030  21.950  0.00  0.00    +0.144 HD
ATOM      3  H   UNL     1       9.281   0.180  20.932  0.00  0.00    +0.144 HD
ATOM      4  C   UNL     1       9.172  -1.392  22.152  0.00  0.00    +0.123 A 
ATOM      5  C   UNL     1       9.831  -2.153  23.227  0.00  0.00    +0.061 A 
ATOM      6  C   UNL     1       9.057  -3.003  23.899  0.00  0.00    +0.096 A 
ATOM      7  N   UNL     1       7.721  -3.166  23.588  0.00  0.00    -0.272 N 
ATOM      8  C   UNL     1       7.192  -2.545  22.445  0.00  0.00    +0.352 A 
ATOM      9  O   UNL     1       6.087  -2.861  22.009  0.00  0.00    -0.244 OA
ATOM     10  N   UNL     1       7.938  -1.580  21.811  0.00  0.00    -0.178 NA
ENDROOT
BRANCH   7  11
ATOM     11  C   UNL     1       6.910  -4.221  24.219  0.00  0.00    +0.235 C 
ATOM     12  O   UNL     1       7.756  -5.256  24.772  0.00  0.00    -0.340 OA
ATOM     13  C   UNL     1       7.888  -5.133  26.196  0.00  0.00    +0.203 C 
ATOM     14  S   UNL     1       6.869  -3.777  26.814  0.00  0.00    -0.123 S 
ATOM     15  C   UNL     1       5.910  -3.771  25.299  0.00  0.00    +0.126 C 
BRANCH  13  16
ATOM     16  C   UNL     1       9.355  -4.925  26.598  0.00  0.00    +0.198 C 
BRANCH  16  17
ATOM     17  O   UNL     1      10.252  -5.657  25.765  0.00  0.00    -0.392 OA
ATOM     18  H   UNL     1       9.908  -5.582  24.854  0.00  0.00    +0.210 HD
ENDBRANCH  16  17
ENDBRANCH  13  16
ENDBRANCH   7  11
TORSDOF 3
ENDMDL
MODEL 9
REMARK VINA RESULT:      -4.9      2.995      5.356
REMARK  Name = 
REMARK  3 active torsions:
REMARK  status: ('A' for Active; 'I' for Inactive)
REMARK    1  A    between atoms: N_6  and  C_9
REMARK    2  A    between atoms: C_13  and  C_15
REMARK    3  A    between atoms: C_15  and  O_16
REMARK                            x       y       z     vdW  Elec       q    Type
REMARK                         _______ _______ _______ _____ _____    ______ ____
ROOT
ATOM      1  N   UNL     1      10.191  -5.601  25.606  0.00  0.00    -0.343 N 
ATOM      2  H   UNL     1      10.498  -5.225  26.494  0.00  0.00    +0.144 HD
ATOM      3  H   UNL     1      10.871  -5.498  24.860  0.00  0.00    +0.144 HD
ATOM      4  C   UNL     1       8.915  -5.327  25.200  0.00  0.00    +0.123 A 
ATOM      5  C   UNL     1       7.864  -5.101  26.207  0.00  0.00    +0.061 A 
ATOM      6  C   UNL     1       6.666  -4.763  25.734  0.00  0.00    +0.096 A 
ATOM      7  N   UNL     1       6.429  -4.648  24.378  0.00  0.00    -0.272 N 
ATOM      8  C   UNL     1       7.418  -5.044  23.463  0.00  0.00    +0.352 A 
ATOM      9  O   UNL     1       7.156  -5.186  22.271  0.00  0.00    -0.244 OA
ATOM     10  N   UNL     1       8.690  -5.285  23.926  0.00  0.00    -0.178 NA
ENDROOT
BRANCH   7  11
ATOM     11  C   UNL     1       5.070  -4.437  23.851  0.00  0.00    +0.235 C 
ATOM     12  O   UNL     1       4.422  -5.704  23.583  0.00  0.00    -0.340 OA
ATOM     13  C   UNL     1       3.484  -6.051  24.612  0.00  0.00    +0.203 C 
ATOM     14  S   UNL     1       3.371  -4.734  25.841  0.00  0.00    -0.123 S 
ATOM     15  C   UNL     1       4.126  -3.570  24.704  0.00  0.00    +0.126 C 
BRANCH  13  16
ATOM     16  C   UNL     1       3.869  -7.376  25.285  0.00  0.00    +0.198 C 
BRANCH  16  17
ATOM     17  O   UNL     1       4.358  -7.187  26.612  0.00  0.00    -0.392 OA
ATOM     18  H   UNL     1       3.737  -7.651  27.205  0.00  0.00    +0.210 HD
ENDBRANCH  16  17
ENDBRANCH  13  16
ENDBRANCH   7  11
TORSDOF 3
ENDMDL
