MODEL 1
REMARK VINA RESULT:      -3.2      0.000      0.000
REMARK  Name = 
REMARK  4 active torsions:
REMARK  status: ('A' for Active; 'I' for Inactive)
REMARK    1  A    between atoms: CB_1  and  CA_2
REMARK    2  A    between atoms: CA_2  and  N_4
REMARK    3  A    between atoms: CA_2  and  C_5
REMARK    4  A    between atoms: C_5  and  O_6
REMARK                            x       y       z     vdW  Elec       q    Type
REMARK                         _______ _______ _______ _____ _____    ______ ____
ROOT
ATOM      1  CB  ALA A   1       8.973  -3.545  24.919  0.00  0.00    +0.035 C 
ATOM      2  CA  ALA A   1       9.216  -4.647  25.939  0.00  0.00    +0.158 C 
ENDROOT
BRANCH   2   3
ATOM      3  N   ALA A   1      10.150  -5.663  25.375  0.00  0.00    -0.319 NA
ATOM      4  H1  ALA A   1      10.525  -6.212  26.153  0.00  0.00    +0.119 HD
ATOM      5  H2  ALA A   1       9.590  -6.336  24.840  0.00  0.00    +0.119 HD
ENDBRANCH   2   3
BRANCH   2   6
ATOM      6  C   ALA A   1       7.886  -5.332  26.272  0.00  0.00    +0.321 C 
ATOM      7  OXT ALA A   1       6.932  -5.426  25.516  0.00  0.00    -0.249 OA
BRANCH   6   8
ATOM      8  O   ALA A   1       7.909  -5.863  27.525  0.00  0.00    -0.480 OA
ATOM      9  H   ALA A   1       8.585  -6.585  27.499  0.00  0.00    +0.295 HD
ENDBRANCH   6   8
ENDBRANCH   2   6
TORSDOF 3
ENDMDL
MODEL 2
REMARK VINA RESULT:      -3.2      2.313      2.453
REMARK  Name = 
REMARK  4 active torsions:
REMARK  status: ('A' for Active; 'I' for Inactive)
REMARK    1  A    between atoms: CB_1  and  CA_2
REMARK    2  A    between atoms: CA_2  and  N_4
REMARK    3  A    between atoms: CA_2  and  C_5
REMARK    4  A    between atoms: C_5  and  O_6
REMARK                            x       y       z     vdW  Elec       q    Type
REMARK                         _______ _______ _______ _____ _____    ______ ____
ROOT
ATOM      1  CB  ALA A   1       7.775  -3.358  26.375  0.00  0.00    +0.035 C 
ATOM      2  CA  ALA A   1       8.071  -4.792  25.962  0.00  0.00    +0.158 C 
ENDROOT
BRANCH   2   3
ATOM      3  N   ALA A   1       8.128  -5.666  27.169  0.00  0.00    -0.319 NA
ATOM      4  H1  ALA A   1       7.176  -5.982  27.374  0.00  0.00    +0.119 HD
ATOM      5  H2  ALA A   1       8.627  -6.524  26.908  0.00  0.00    +0.119 HD
ENDBRANCH   2   3
BRANCH   2   6
ATOM      6  C   ALA A   1       9.429  -4.845  25.253  0.00  0.00    +0.321 C 
ATOM      7  OXT ALA A   1       9.856  -3.999  24.482  0.00  0.00    -0.249 OA
BRANCH   6   8
ATOM      8  O   ALA A   1      10.129  -5.953  25.618  0.00  0.00    -0.480 OA
ATOM      9  H   ALA A   1      11.080  -5.678  25.632  0.00  0.00    +0.295 HD
ENDBRANCH   6   8
ENDBRANCH   2   6
TORSDOF 3
ENDMDL
MODEL 3
REMARK VINA RESULT:      -3.1      6.299      7.125
REMARK  Name = 
REMARK  4 active torsions:
REMARK  status: ('A' for Active; 'I' for Inactive)
REMARK    1  A    between atoms: CB_1  and  CA_2
REMARK    2  A    between atoms: CA_2  and  N_4
REMARK    3  A    between atoms: CA_2  and  C_5
REMARK    4  A    between atoms: C_5  and  O_6
REMARK                            x       y       z     vdW  Elec       q    Type
REMARK                         _______ _______ _______ _____ _____    ______ ____
ROOT
ATOM      1  CB  ALA A   1       8.152  -0.735  22.657  0.00  0.00    +0.035 C 
ATOM      2  CA  ALA A   1       9.247  -0.301  21.695  0.00  0.00    +0.158 C 
ENDROOT
BRANCH   2   3
ATOM      3  N   ALA A   1      10.237  -1.402  21.522  0.00  0.00    -0.319 NA
ATOM      4  H1  ALA A   1      10.538  -1.703  22.453  0.00  0.00    +0.119 HD
ATOM      5  H2  ALA A   1       9.736  -2.214  21.145  0.00  0.00    +0.119 HD
ENDBRANCH   2   3
BRANCH   2   6
ATOM      6  C   ALA A   1       9.969   0.924  22.268  0.00  0.00    +0.321 C 
ATOM      7  OXT ALA A   1      10.570   0.956  23.330  0.00  0.00    -0.249 OA
BRANCH   6   8
ATOM      8  O   ALA A   1       9.886   1.983  21.418  0.00  0.00    -0.480 OA
ATOM      9  H   ALA A   1       8.923   2.200  21.350  0.00  0.00    +0.295 HD
ENDBRANCH   6   8
ENDBRANCH   2   6
TORSDOF 3
ENDMDL
MODEL 4
REMARK VINA RESULT:      -3.1      6.531      6.917
REMARK  Name = 
REMARK  4 active torsions:
REMARK  status: ('A' for Active; 'I' for Inactive)
REMARK    1  A    between atoms: CB_1  and  CA_2
REMARK    2  A    between atoms: CA_2  and  N_4
REMARK    3  A    between atoms: CA_2  and  C_5
REMARK    4  A    between atoms: C_5  and  O_6
REMARK                            x       y       z     vdW  Elec       q    Type
REMARK                         _______ _______ _______ _____ _____    ______ ____
ROOT
ATOM      1  CB  ALA A   1      10.220   1.255  23.500  0.00  0.00    +0.035 C 
ATOM      2  CA  ALA A   1      10.048   0.859  22.042  0.00  0.00    +0.158 C 
ENDROOT
BRANCH   2   3
ATOM      3  N   ALA A   1       9.216   1.873  21.334  0.00  0.00    -0.319 NA
ATOM      4  H1  ALA A   1       8.372   2.032  21.892  0.00  0.00    +0.119 HD
ATOM      5  H2  ALA A   1       9.716   2.768  21.375  0.00  0.00    +0.119 HD
ENDBRANCH   2   3
BRANCH   2   6
ATOM      6  C   ALA A   1       9.338  -0.498  21.966  0.00  0.00    +0.321 C 
ATOM      7  OXT ALA A   1       8.207  -0.726  22.364  0.00  0.00    -0.249 OA
BRANCH   6   8
ATOM      8  O   ALA A   1      10.124  -1.428  21.358  0.00  0.00    -0.480 OA
ATOM      9  H   ALA A   1      10.981  -1.420  21.850  0.00  0.00    +0.295 HD
ENDBRANCH   6   8
ENDBRANCH   2   6
TORSDOF 3
ENDMDL
MODEL 5
REMARK VINA RESULT:      -3.0      5.212      6.015
REMARK  Name = 
REMARK  4 active torsions:
REMARK  status: ('A' for Active; 'I' for Inactive)
REMARK    1  A    between atoms: CB_1  and  CA_2
REMARK    2  A    between atoms: CA_2  and  N_4
REMARK    3  A    between atoms: CA_2  and  C_5
REMARK    4  A    between atoms: C_5  and  O_6
REMARK                            x       y       z     vdW  Elec       q    Type
REMARK                         _______ _______ _______ _____ _____    ______ ____
ROOT
ATOM      1  CB  ALA A   1       9.862   0.907  21.921  0.00  0.00    +0.035 C 
ATOM      2  CA  ALA A   1       9.831   0.031  23.163  0.00  0.00    +0.158 C 
ENDROOT
BRANCH   2   3
ATOM      3  N   ALA A   1      10.882   0.472  24.123  0.00  0.00    -0.319 NA
ATOM      4  H1  ALA A   1      11.399  -0.357  24.427  0.00  0.00    +0.119 HD
ATOM      5  H2  ALA A   1      11.572   1.021  23.598  0.00  0.00    +0.119 HD
ENDBRANCH   2   3
BRANCH   2   6
ATOM      6  C   ALA A   1      10.109  -1.424  22.765  0.00  0.00    +0.321 C 
ATOM      7  OXT ALA A   1      10.202  -2.362  23.540  0.00  0.00    -0.249 OA
BRANCH   6   8
ATOM      8  O   ALA A   1      10.209  -1.550  21.414  0.00  0.00    -0.480 OA
ATOM      9  H   ALA A   1      10.745  -0.777  21.109  0.00  0.00    +0.295 HD
ENDBRANCH   6   8
ENDBRANCH   2   6
TORSDOF 3
ENDMDL
MODEL 6
REMARK VINA RESULT:      -3.0      2.125      2.658
REMARK  Name = 
REMARK  4 active torsions:
REMARK  status: ('A' for Active; 'I' for Inactive)
REMARK    1  A    between atoms: CB_1  and  CA_2
REMARK    2  A    between atoms: CA_2  and  N_4
REMARK    3  A    between atoms: CA_2  and  C_5
REMARK    4  A    between atoms: C_5  and  O_6
REMARK                            x       y       z     vdW  Elec       q    Type
REMARK                         _______ _______ _______ _____ _____    ______ ____
ROOT
ATOM      1  CB  ALA A   1       8.243  -4.948  26.598  0.00  0.00    +0.035 C 
ATOM      2  CA  ALA A   1       8.907  -5.157  25.246  0.00  0.00    +0.158 C 
ENDROOT
BRANCH   2   3
ATOM      3  N   ALA A   1      10.340  -5.523  25.434  0.00  0.00    -0.319 NA
ATOM      4  H1  ALA A   1      10.420  -6.038  26.315  0.00  0.00    +0.119 HD
ATOM      5  H2  ALA A   1      10.581  -6.214  24.715  0.00  0.00    +0.119 HD
ENDBRANCH   2   3
BRANCH   2   6
ATOM      6  C   ALA A   1       8.834  -3.856  24.438  0.00  0.00    +0.321 C 
ATOM      7  OXT ALA A   1       7.807  -3.258  24.154  0.00  0.00    -0.249 OA
BRANCH   6   8
ATOM      8  O   ALA A   1      10.077  -3.421  24.097  0.00  0.00    -0.480 OA
ATOM      9  H   ALA A   1       9.982  -2.455  23.908  0.00  0.00    +0.295 HD
ENDBRANCH   6   8
ENDBRANCH   2   6
TORSDOF 3
ENDMDL
MODEL 7
REMARK VINA RESULT:      -3.0      6.885      7.685
REMARK  Name = 
REMARK  4 active torsions:
REMARK  status: ('A' for Active; 'I' for Inactive)
REMARK    1  A    between atoms: CB_1  and  CA_2
REMARK    2  A    between atoms: CA_2  and  N_4
REMARK    3  A    between atoms: CA_2  and  C_5
REMARK    4  A    between atoms: C_5  and  O_6
REMARK                            x       y       z     vdW  Elec       q    Type
REMARK                         _______ _______ _______ _____ _____    ______ ____
ROOT
ATOM      1  CB  ALA A   1      10.567   0.394  24.661  0.00  0.00    +0.035 C 
ATOM      2  CA  ALA A   1      10.482   1.630  23.779  0.00  0.00    +0.158 C 
ENDROOT
BRANCH   2   3
ATOM      3  N   ALA A   1       9.427   2.549  24.293  0.00  0.00    -0.319 NA
ATOM      4  H1  ALA A   1       9.434   2.496  25.315  0.00  0.00    +0.119 HD
ATOM      5  H2  ALA A   1       9.725   3.510  24.090  0.00  0.00    +0.119 HD
ENDBRANCH   2   3
BRANCH   2   6
ATOM      6  C   ALA A   1      10.115   1.210  22.351  0.00  0.00    +0.321 C 
ATOM      7  OXT ALA A   1       9.948   0.061  21.975  0.00  0.00    -0.249 OA
BRANCH   6   8
ATOM      8  O   ALA A   1       9.961   2.296  21.546  0.00  0.00    -0.480 OA
ATOM      9  H   ALA A   1      10.874   2.557  21.267  0.00  0.00    +0.295 HD
ENDBRANCH   6   8
ENDBRANCH   2   6
TORSDOF 3
ENDMDL
MODEL 8
REMARK VINA RESULT:      -3.0      6.968      7.613
REMARK  Name = 
REMARK  4 active torsions:
REMARK  status: ('A' for Active; 'I' for Inactive)
REMARK    1  A    between atoms: CB_1  and  CA_2
REMARK    2  A    between atoms: CA_2  and  N_4
REMARK    3  A    between atoms: CA_2  and  C_5
REMARK    4  A    between atoms: C_5  and  O_6
REMARK                            x       y       z     vdW  Elec       q    Type
REMARK                         _______ _______ _______ _____ _____    ______ ____
ROOT
ATOM      1  CB  ALA A   1       9.498   2.689  24.072  0.00  0.00    +0.035 C 
ATOM      2  CA  ALA A   1       9.787   1.240  23.711  0.00  0.00    +0.158 C 
ENDROOT
BRANCH   2   3
ATOM      3  N   ALA A   1      11.046   0.793  24.373  0.00  0.00    -0.319 NA
ATOM      4  H1  ALA A   1      10.799   0.094  25.079  0.00  0.00    +0.119 HD
ATOM      5  H2  ALA A   1      11.592   0.268  23.680  0.00  0.00    +0.119 HD
ENDBRANCH   2   3
BRANCH   2   6
ATOM      6  C   ALA A   1       9.961   1.121  22.192  0.00  0.00    +0.321 C 
ATOM      7  OXT ALA A   1       9.817   0.096  21.544  0.00  0.00    -0.249 OA
BRANCH   6   8
ATOM      8  O   ALA A   1      10.269   2.325  21.639  0.00  0.00    -0.480 OA
ATOM      9  H   ALA A   1       9.694   2.409  20.838  0.00  0.00    +0.295 HD
ENDBRANCH   6   8
ENDBRANCH   2   6
TORSDOF 3
ENDMDL
MODEL 9
REMARK VINA RESULT:      -3.0      6.628      7.134
REMARK  Name = 
REMARK  4 active torsions:
REMARK  status: ('A' for Active; 'I' for Inactive)
REMARK    1  A    between atoms: CB_1  and  CA_2
REMARK    2  A    between atoms: CA_2  and  N_4
REMARK    3  A    between atoms: CA_2  and  C_5
REMARK    4  A    between atoms: C_5  and  O_6
REMARK                            x       y       z     vdW  Elec       q    Type
REMARK                         _______ _______ _______ _____ _____    ______ ____
ROOT
ATOM      1  CB  ALA A   1       9.437  -0.127  21.383  0.00  0.00    +0.035 C 
ATOM      2  CA  ALA A   1       9.516   1.038  22.357  0.00  0.00    +0.158 C 
ENDROOT
BRANCH   2   3
ATOM      3  N   ALA A   1      10.152   2.212  21.694  0.00  0.00    -0.319 NA
ATOM      4  H1  ALA A   1      10.221   2.965  22.385  0.00  0.00    +0.119 HD
ATOM      5  H2  ALA A   1      11.127   1.965  21.493  0.00  0.00    +0.119 HD
ENDBRANCH   2   3
BRANCH   2   6
ATOM      6  C   ALA A   1      10.370   0.634  23.564  0.00  0.00    +0.321 C 
ATOM      7  OXT ALA A   1      11.016   1.401  24.260  0.00  0.00    -0.249 OA
BRANCH   6   8
ATOM      8  O   ALA A   1      10.294  -0.706  23.791  0.00  0.00    -0.480 OA
ATOM      9  H   ALA A   1       9.593  -1.043  23.179  0.00  0.00    +0.295 HD
ENDBRANCH   6   8
ENDBRANCH   2   6
TORSDOF 3
ENDMDL
