MODEL 1
REMARK VINA RESULT:      -7.5      0.000      0.000
REMARK  Name = 
REMARK  6 active torsions:
REMARK  status: ('A' for Active; 'I' for Inactive)
REMARK    1  A    between atoms: C_2  and  C_3
REMARK    2  A    between atoms: C_2  and  N_4
REMARK    3  A    between atoms: C_2  and  C_15
REMARK    4  A    between atoms: C_5  and  C_7
REMARK    5  A    between atoms: C_8  and  C_9
REMARK    6  A    between atoms: C_12  and  N_13
REMARK                            x       y       z     vdW  Elec       q    Type
REMARK                         _______ _______ _______ _____ _____    ______ ____
ROOT
ATOM      1  N   UNL     1       9.644  -0.540  24.115  0.00  0.00    -0.305 N 
ATOM      2  H   UNL     1       8.944  -0.526  24.843  0.00  0.00    +0.150 HD
ATOM      3  C   UNL     1       9.759  -1.659  23.315  0.00  0.00    +0.245 C 
ATOM      4  O   UNL     1      10.472  -1.717  22.324  0.00  0.00    -0.270 OA
ENDROOT
BRANCH   3   5
ATOM      5  C   UNL     1       8.957  -2.837  23.765  0.00  0.00    +0.041 A 
ATOM      6  C   UNL     1       9.619  -3.823  24.524  0.00  0.00    +0.036 A 
ATOM      7  C   UNL     1       8.948  -4.945  25.008  0.00  0.00    +0.025 A 
ATOM      8  C   UNL     1       7.630  -5.149  24.607  0.00  0.00    +0.023 A 
ATOM      9  C   UNL     1       6.961  -4.191  23.841  0.00  0.00    +0.006 A 
ATOM     10  C   UNL     1       7.603  -3.010  23.425  0.00  0.00    -0.038 A 
ATOM     11  C   UNL     1       6.793  -2.036  22.616  0.00  0.00    +0.044 C 
BRANCH   7  12
ATOM     12  N   UNL     1       9.653  -5.953  25.672  0.00  0.00    -0.358 N 
ATOM     13  H   UNL     1      10.569  -6.151  25.281  0.00  0.00    +0.142 HD
ATOM     14  H   UNL     1       9.684  -5.840  26.681  0.00  0.00    +0.142 HD
ENDBRANCH   7  12
ENDBRANCH   3   5
BRANCH   1  15
ATOM     15  C   UNL     1      10.338   0.710  23.830  0.00  0.00    +0.101 C 
ATOM     16  C   UNL     1      11.645   0.746  24.629  0.00  0.00    +0.033 C 
BRANCH  15  17
ATOM     17  C   UNL     1       9.502   1.949  24.147  0.00  0.00    -0.020 A 
ATOM     18  C   UNL     1      10.035   3.262  23.951  0.00  0.00    -0.013 A 
ATOM     19  C   UNL     1      11.304   3.530  23.383  0.00  0.00    +0.009 A 
ATOM     20  C   UNL     1      11.804   4.828  23.255  0.00  0.00    +0.001 A 
ATOM     21  C   UNL     1      11.039   5.905  23.678  0.00  0.00    +0.001 A 
ATOM     22  C   UNL     1       9.774   5.683  24.216  0.00  0.00    +0.008 A 
ATOM     23  C   UNL     1       9.263   4.382  24.356  0.00  0.00    -0.018 A 
ATOM     24  C   UNL     1       7.991   4.195  24.912  0.00  0.00    +0.008 A 
ATOM     25  C   UNL     1       7.471   2.919  25.092  0.00  0.00    +0.001 A 
ATOM     26  C   UNL     1       8.224   1.808  24.725  0.00  0.00    +0.006 A 
ENDBRANCH  15  17
ENDBRANCH   1  15
TORSDOF 4
ENDMDL
MODEL 2
REMARK VINA RESULT:      -7.4      2.824      8.267
REMARK  Name = 
REMARK  6 active torsions:
REMARK  status: ('A' for Active; 'I' for Inactive)
REMARK    1  A    between atoms: C_2  and  C_3
REMARK    2  A    between atoms: C_2  and  N_4
REMARK    3  A    between atoms: C_2  and  C_15
REMARK    4  A    between atoms: C_5  and  C_7
REMARK    5  A    between atoms: C_8  and  C_9
REMARK    6  A    between atoms: C_12  and  N_13
REMARK                            x       y       z     vdW  Elec       q    Type
REMARK                         _______ _______ _______ _____ _____    ______ ____
ROOT
ATOM      1  N   UNL     1       7.539  -3.617  23.224  0.00  0.00    -0.305 N 
ATOM      2  H   UNL     1       6.747  -3.023  23.022  0.00  0.00    +0.150 HD
ATOM      3  C   UNL     1       8.689  -3.051  23.735  0.00  0.00    +0.245 C 
ATOM      4  O   UNL     1       9.643  -3.698  24.143  0.00  0.00    -0.270 OA
ENDROOT
BRANCH   3   5
ATOM      5  C   UNL     1       8.708  -1.557  23.732  0.00  0.00    +0.041 A 
ATOM      6  C   UNL     1       8.824  -0.910  22.485  0.00  0.00    +0.036 A 
ATOM      7  C   UNL     1       8.826   0.480  22.381  0.00  0.00    +0.025 A 
ATOM      8  C   UNL     1       8.853   1.229  23.554  0.00  0.00    +0.023 A 
ATOM      9  C   UNL     1       8.756   0.606  24.801  0.00  0.00    +0.006 A 
ATOM     10  C   UNL     1       8.660  -0.793  24.912  0.00  0.00    -0.038 A 
ATOM     11  C   UNL     1       8.546  -1.366  26.298  0.00  0.00    +0.044 C 
BRANCH   7  12
ATOM     12  N   UNL     1       9.042   1.091  21.142  0.00  0.00    -0.358 N 
ATOM     13  H   UNL     1       8.654   0.586  20.352  0.00  0.00    +0.142 HD
ATOM     14  H   UNL     1       8.801   2.079  21.121  0.00  0.00    +0.142 HD
ENDBRANCH   7  12
ENDBRANCH   3   5
BRANCH   1  15
ATOM     15  C   UNL     1       7.330  -5.058  23.157  0.00  0.00    +0.101 C 
ATOM     16  C   UNL     1       7.232  -5.479  21.687  0.00  0.00    +0.033 C 
BRANCH  15  17
ATOM     17  C   UNL     1       6.085  -5.522  23.913  0.00  0.00    -0.020 A 
ATOM     18  C   UNL     1       6.097  -5.651  25.337  0.00  0.00    -0.013 A 
ATOM     19  C   UNL     1       7.192  -5.290  26.160  0.00  0.00    +0.009 A 
ATOM     20  C   UNL     1       7.177  -5.478  27.544  0.00  0.00    +0.001 A 
ATOM     21  C   UNL     1       6.056  -6.021  28.153  0.00  0.00    +0.001 A 
ATOM     22  C   UNL     1       4.949  -6.362  27.381  0.00  0.00    +0.008 A 
ATOM     23  C   UNL     1       4.954  -6.184  25.987  0.00  0.00    -0.018 A 
ATOM     24  C   UNL     1       3.827  -6.549  25.239  0.00  0.00    +0.008 A 
ATOM     25  C   UNL     1       3.813  -6.413  23.857  0.00  0.00    +0.001 A 
ATOM     26  C   UNL     1       4.934  -5.916  23.199  0.00  0.00    +0.006 A 
ENDBRANCH  15  17
ENDBRANCH   1  15
TORSDOF 4
ENDMDL
MODEL 3
REMARK VINA RESULT:      -7.4      2.356      8.235
REMARK  Name = 
REMARK  6 active torsions:
REMARK  status: ('A' for Active; 'I' for Inactive)
REMARK    1  A    between atoms: C_2  and  C_3
REMARK    2  A    between atoms: C_2  and  N_4
REMARK    3  A    between atoms: C_2  and  C_15
REMARK    4  A    between atoms: C_5  and  C_7
REMARK    5  A    between atoms: C_8  and  C_9
REMARK    6  A    between atoms: C_12  and  N_13
REMARK                            x       y       z     vdW  Elec       q    Type
REMARK                         _______ _______ _______ _____ _____    ______ ____
ROOT
ATOM      1  N   UNL     1       8.847  -2.451  24.383  0.00  0.00    -0.305 N 
ATOM      2  H   UNL     1       9.730  -2.448  23.894  0.00  0.00    +0.150 HD
ATOM      3  C   UNL     1       8.049  -1.325  24.337  0.00  0.00    +0.245 C 
ATOM      4  O   UNL     1       6.909  -1.281  24.774  0.00  0.00    -0.270 OA
ENDROOT
BRANCH   3   5
ATOM      5  C   UNL     1       8.697  -0.123  23.729  0.00  0.00    +0.041 A 
ATOM      6  C   UNL     1       8.641   1.084  24.456  0.00  0.00    +0.036 A 
ATOM      7  C   UNL     1       9.236   2.251  23.980  0.00  0.00    +0.025 A 
ATOM      8  C   UNL     1       9.772   2.241  22.695  0.00  0.00    +0.023 A 
ATOM      9  C   UNL     1       9.821   1.059  21.951  0.00  0.00    +0.006 A 
ATOM     10  C   UNL     1       9.306  -0.147  22.462  0.00  0.00    -0.038 A 
ATOM     11  C   UNL     1       9.419  -1.367  21.589  0.00  0.00    +0.044 C 
BRANCH   7  12
ATOM     12  N   UNL     1       9.079   3.453  24.675  0.00  0.00    -0.358 N 
ATOM     13  H   UNL     1       8.815   3.343  25.649  0.00  0.00    +0.142 HD
ATOM     14  H   UNL     1       9.853   4.102  24.559  0.00  0.00    +0.142 HD
ENDBRANCH   7  12
ENDBRANCH   3   5
BRANCH   1  15
ATOM     15  C   UNL     1       8.387  -3.723  24.926  0.00  0.00    +0.101 C 
ATOM     16  C   UNL     1       9.601  -4.622  25.182  0.00  0.00    +0.033 C 
BRANCH  15  17
ATOM     17  C   UNL     1       7.392  -4.442  24.017  0.00  0.00    -0.020 A 
ATOM     18  C   UNL     1       6.355  -5.260  24.566  0.00  0.00    -0.013 A 
ATOM     19  C   UNL     1       6.105  -5.404  25.953  0.00  0.00    +0.009 A 
ATOM     20  C   UNL     1       5.111  -6.251  26.446  0.00  0.00    +0.001 A 
ATOM     21  C   UNL     1       4.320  -6.972  25.564  0.00  0.00    +0.001 A 
ATOM     22  C   UNL     1       4.518  -6.836  24.192  0.00  0.00    +0.008 A 
ATOM     23  C   UNL     1       5.519  -5.991  23.684  0.00  0.00    -0.018 A 
ATOM     24  C   UNL     1       5.697  -5.886  22.298  0.00  0.00    +0.008 A 
ATOM     25  C   UNL     1       6.699  -5.084  21.766  0.00  0.00    +0.001 A 
ATOM     26  C   UNL     1       7.545  -4.379  22.616  0.00  0.00    +0.006 A 
ENDBRANCH  15  17
ENDBRANCH   1  15
TORSDOF 4
ENDMDL
MODEL 4
REMARK VINA RESULT:      -7.2      1.863      7.525
REMARK  Name = 
REMARK  6 active torsions:
REMARK  status: ('A' for Active; 'I' for Inactive)
REMARK    1  A    between atoms: C_2  and  C_3
REMARK    2  A    between atoms: C_2  and  N_4
REMARK    3  A    between atoms: C_2  and  C_15
REMARK    4  A    between atoms: C_5  and  C_7
REMARK    5  A    between atoms: C_8  and  C_9
REMARK    6  A    between atoms: C_12  and  N_13
REMARK                            x       y       z     vdW  Elec       q    Type
REMARK                         _______ _______ _______ _____ _____    ______ ____
ROOT
ATOM      1  N   UNL     1       9.012   0.100  23.516  0.00  0.00    -0.305 N 
ATOM      2  H   UNL     1       8.145   0.486  23.170  0.00  0.00    +0.150 HD
ATOM      3  C   UNL     1       9.812   0.874  24.332  0.00  0.00    +0.245 C 
ATOM      4  O   UNL     1      10.802   0.452  24.912  0.00  0.00    -0.270 OA
ENDROOT
BRANCH   3   5
ATOM      5  C   UNL     1       9.398   2.306  24.441  0.00  0.00    +0.041 A 
ATOM      6  C   UNL     1      10.176   3.262  23.758  0.00  0.00    +0.036 A 
ATOM      7  C   UNL     1       9.854   4.618  23.782  0.00  0.00    +0.025 A 
ATOM      8  C   UNL     1       8.820   5.035  24.617  0.00  0.00    +0.023 A 
ATOM      9  C   UNL     1       8.048   4.104  25.316  0.00  0.00    +0.006 A 
ATOM     10  C   UNL     1       8.307   2.724  25.225  0.00  0.00    -0.038 A 
ATOM     11  C   UNL     1       7.411   1.803  26.005  0.00  0.00    +0.044 C 
BRANCH   7  12
ATOM     12  N   UNL     1      10.700   5.552  23.178  0.00  0.00    -0.358 N 
ATOM     13  H   UNL     1      11.043   6.274  23.804  0.00  0.00    +0.142 HD
ATOM     14  H   UNL     1      11.446   5.138  22.626  0.00  0.00    +0.142 HD
ENDBRANCH   7  12
ENDBRANCH   3   5
BRANCH   1  15
ATOM     15  C   UNL     1       9.248  -1.321  23.296  0.00  0.00    +0.101 C 
ATOM     16  C   UNL     1       9.797  -1.521  21.880  0.00  0.00    +0.033 C 
BRANCH  15  17
ATOM     17  C   UNL     1       7.997  -2.177  23.491  0.00  0.00    -0.020 A 
ATOM     18  C   UNL     1       7.951  -3.189  24.501  0.00  0.00    -0.013 A 
ATOM     19  C   UNL     1       8.986  -3.426  25.439  0.00  0.00    +0.009 A 
ATOM     20  C   UNL     1       8.918  -4.457  26.377  0.00  0.00    +0.001 A 
ATOM     21  C   UNL     1       7.801  -5.278  26.420  0.00  0.00    +0.001 A 
ATOM     22  C   UNL     1       6.750  -5.058  25.532  0.00  0.00    +0.008 A 
ATOM     23  C   UNL     1       6.809  -4.028  24.579  0.00  0.00    -0.018 A 
ATOM     24  C   UNL     1       5.739  -3.843  23.694  0.00  0.00    +0.008 A 
ATOM     25  C   UNL     1       5.781  -2.853  22.720  0.00  0.00    +0.001 A 
ATOM     26  C   UNL     1       6.903  -2.036  22.612  0.00  0.00    +0.006 A 
ENDBRANCH  15  17
ENDBRANCH   1  15
TORSDOF 4
ENDMDL
MODEL 5
REMARK VINA RESULT:      -7.2      2.988      8.274
REMARK  Name = 
REMARK  6 active torsions:
REMARK  status: ('A' for Active; 'I' for Inactive)
REMARK    1  A    between atoms: C_2  and  C_3
REMARK    2  A    between atoms: C_2  and  N_4
REMARK    3  A    between atoms: C_2  and  C_15
REMARK    4  A    between atoms: C_5  and  C_7
REMARK    5  A    between atoms: C_8  and  C_9
REMARK    6  A    between atoms: C_12  and  N_13
REMARK                            x       y       z     vdW  Elec       q    Type
REMARK                         _______ _______ _______ _____ _____    ______ ____
ROOT
ATOM      1  N   UNL     1       7.662  -3.785  23.719  0.00  0.00    -0.305 N 
ATOM      2  H   UNL     1       6.922  -3.098  23.676  0.00  0.00    +0.150 HD
ATOM      3  C   UNL     1       8.881  -3.425  24.258  0.00  0.00    +0.245 C 
ATOM      4  O   UNL     1       9.784  -4.216  24.484  0.00  0.00    -0.270 OA
ENDROOT
BRANCH   3   5
ATOM      5  C   UNL     1       9.041  -1.964  24.526  0.00  0.00    +0.041 A 
ATOM      6  C   UNL     1       8.525  -1.465  25.740  0.00  0.00    +0.036 A 
ATOM      7  C   UNL     1       8.649  -0.121  26.088  0.00  0.00    +0.025 A 
ATOM      8  C   UNL     1       9.170   0.760  25.144  0.00  0.00    +0.023 A 
ATOM      9  C   UNL     1       9.671   0.287  23.928  0.00  0.00    +0.006 A 
ATOM     10  C   UNL     1       9.636  -1.082  23.606  0.00  0.00    -0.038 A 
ATOM     11  C   UNL     1      10.213  -1.491  22.279  0.00  0.00    +0.044 C 
BRANCH   7  12
ATOM     12  N   UNL     1       8.041   0.362  27.250  0.00  0.00    -0.358 N 
ATOM     13  H   UNL     1       7.288   1.023  27.086  0.00  0.00    +0.142 HD
ATOM     14  H   UNL     1       7.776  -0.364  27.910  0.00  0.00    +0.142 HD
ENDBRANCH   7  12
ENDBRANCH   3   5
BRANCH   1  15
ATOM     15  C   UNL     1       7.314  -5.164  23.403  0.00  0.00    +0.101 C 
ATOM     16  C   UNL     1       7.238  -5.322  21.881  0.00  0.00    +0.033 C 
BRANCH  15  17
ATOM     17  C   UNL     1       5.998  -5.615  24.036  0.00  0.00    -0.020 A 
ATOM     18  C   UNL     1       5.887  -5.788  25.452  0.00  0.00    -0.013 A 
ATOM     19  C   UNL     1       6.918  -5.486  26.374  0.00  0.00    +0.009 A 
ATOM     20  C   UNL     1       6.782  -5.717  27.745  0.00  0.00    +0.001 A 
ATOM     21  C   UNL     1       5.599  -6.245  28.240  0.00  0.00    +0.001 A 
ATOM     22  C   UNL     1       4.552  -6.529  27.367  0.00  0.00    +0.008 A 
ATOM     23  C   UNL     1       4.679  -6.307  25.986  0.00  0.00    -0.018 A 
ATOM     24  C   UNL     1       3.609  -6.615  25.135  0.00  0.00    +0.008 A 
ATOM     25  C   UNL     1       3.715  -6.436  23.761  0.00  0.00    +0.001 A 
ATOM     26  C   UNL     1       4.901  -5.953  23.217  0.00  0.00    +0.006 A 
ENDBRANCH  15  17
ENDBRANCH   1  15
TORSDOF 4
ENDMDL
MODEL 6
REMARK VINA RESULT:      -7.1      2.251      8.229
REMARK  Name = 
REMARK  6 active torsions:
REMARK  status: ('A' for Active; 'I' for Inactive)
REMARK    1  A    between atoms: C_2  and  C_3
REMARK    2  A    between atoms: C_2  and  N_4
REMARK    3  A    between atoms: C_2  and  C_15
REMARK    4  A    between atoms: C_5  and  C_7
REMARK    5  A    between atoms: C_8  and  C_9
REMARK    6  A    between atoms: C_12  and  N_13
REMARK                            x       y       z     vdW  Elec       q    Type
REMARK                         _______ _______ _______ _____ _____    ______ ____
ROOT
ATOM      1  N   UNL     1       8.221  -1.833  24.364  0.00  0.00    -0.305 N 
ATOM      2  H   UNL     1       7.815  -1.578  23.475  0.00  0.00    +0.150 HD
ATOM      3  C   UNL     1       8.634  -0.836  25.224  0.00  0.00    +0.245 C 
ATOM      4  O   UNL     1       9.004  -1.037  26.372  0.00  0.00    -0.270 OA
ENDROOT
BRANCH   3   5
ATOM      5  C   UNL     1       8.627   0.539  24.640  0.00  0.00    +0.041 A 
ATOM      6  C   UNL     1       9.356   0.744  23.451  0.00  0.00    +0.036 A 
ATOM      7  C   UNL     1       9.389   1.987  22.819  0.00  0.00    +0.025 A 
ATOM      8  C   UNL     1       8.799   3.070  23.465  0.00  0.00    +0.023 A 
ATOM      9  C   UNL     1       8.086   2.891  24.653  0.00  0.00    +0.006 A 
ATOM     10  C   UNL     1       7.968   1.622  25.250  0.00  0.00    -0.038 A 
ATOM     11  C   UNL     1       7.169   1.531  26.520  0.00  0.00    +0.044 C 
BRANCH   7  12
ATOM     12  N   UNL     1      10.200   2.184  21.698  0.00  0.00    -0.358 N 
ATOM     13  H   UNL     1      10.479   3.148  21.547  0.00  0.00    +0.142 HD
ATOM     14  H   UNL     1      10.987   1.544  21.640  0.00  0.00    +0.142 HD
ENDBRANCH   7  12
ENDBRANCH   3   5
BRANCH   1  15
ATOM     15  C   UNL     1       8.146  -3.234  24.756  0.00  0.00    +0.101 C 
ATOM     16  C   UNL     1       9.549  -3.847  24.685  0.00  0.00    +0.033 C 
BRANCH  15  17
ATOM     17  C   UNL     1       7.181  -4.051  23.897  0.00  0.00    -0.020 A 
ATOM     18  C   UNL     1       6.287  -4.994  24.494  0.00  0.00    -0.013 A 
ATOM     19  C   UNL     1       6.152  -5.190  25.890  0.00  0.00    +0.009 A 
ATOM     20  C   UNL     1       5.299  -6.157  26.426  0.00  0.00    +0.001 A 
ATOM     21  C   UNL     1       4.539  -6.951  25.581  0.00  0.00    +0.001 A 
ATOM     22  C   UNL     1       4.624  -6.768  24.203  0.00  0.00    +0.008 A 
ATOM     23  C   UNL     1       5.482  -5.803  23.650  0.00  0.00    -0.018 A 
ATOM     24  C   UNL     1       5.551  -5.654  22.259  0.00  0.00    +0.008 A 
ATOM     25  C   UNL     1       6.414  -4.731  21.682  0.00  0.00    +0.001 A 
ATOM     26  C   UNL     1       7.229  -3.946  22.492  0.00  0.00    +0.006 A 
ENDBRANCH  15  17
ENDBRANCH   1  15
TORSDOF 4
ENDMDL
MODEL 7
REMARK VINA RESULT:      -7.0      3.345      5.364
REMARK  Name = 
REMARK  6 active torsions:
REMARK  status: ('A' for Active; 'I' for Inactive)
REMARK    1  A    between atoms: C_2  and  C_3
REMARK    2  A    between atoms: C_2  and  N_4
REMARK    3  A    between atoms: C_2  and  C_15
REMARK    4  A    between atoms: C_5  and  C_7
REMARK    5  A    between atoms: C_8  and  C_9
REMARK    6  A    between atoms: C_12  and  N_13
REMARK                            x       y       z     vdW  Elec       q    Type
REMARK                         _______ _______ _______ _____ _____    ______ ____
ROOT
ATOM      1  N   UNL     1       6.804  -4.453  24.304  0.00  0.00    -0.305 N 
ATOM      2  H   UNL     1       6.533  -4.866  25.185  0.00  0.00    +0.150 HD
ATOM      3  C   UNL     1       5.824  -4.102  23.397  0.00  0.00    +0.245 C 
ATOM      4  O   UNL     1       6.039  -3.470  22.373  0.00  0.00    -0.270 OA
ENDROOT
BRANCH   3   5
ATOM      5  C   UNL     1       4.451  -4.581  23.741  0.00  0.00    +0.041 A 
ATOM      6  C   UNL     1       3.957  -5.699  23.038  0.00  0.00    +0.036 A 
ATOM      7  C   UNL     1       2.698  -6.232  23.307  0.00  0.00    +0.025 A 
ATOM      8  C   UNL     1       1.867  -5.549  24.191  0.00  0.00    +0.023 A 
ATOM      9  C   UNL     1       2.332  -4.429  24.885  0.00  0.00    +0.006 A 
ATOM     10  C   UNL     1       3.636  -3.938  24.690  0.00  0.00    -0.038 A 
ATOM     11  C   UNL     1       4.046  -2.735  25.494  0.00  0.00    +0.044 C 
BRANCH   7  12
ATOM     12  N   UNL     1       2.196  -7.278  22.526  0.00  0.00    -0.358 N 
ATOM     13  H   UNL     1       1.247  -7.137  22.195  0.00  0.00    +0.142 HD
ATOM     14  H   UNL     1       2.821  -7.574  21.781  0.00  0.00    +0.142 HD
ENDBRANCH   7  12
ENDBRANCH   3   5
BRANCH   1  15
ATOM     15  C   UNL     1       8.200  -4.064  24.149  0.00  0.00    +0.101 C 
ATOM     16  C   UNL     1       9.083  -5.081  24.880  0.00  0.00    +0.033 C 
BRANCH  15  17
ATOM     17  C   UNL     1       8.495  -2.656  24.664  0.00  0.00    -0.020 A 
ATOM     18  C   UNL     1       8.950  -1.631  23.776  0.00  0.00    -0.013 A 
ATOM     19  C   UNL     1       9.081  -1.792  22.375  0.00  0.00    +0.009 A 
ATOM     20  C   UNL     1       9.575  -0.777  21.553  0.00  0.00    +0.001 A 
ATOM     21  C   UNL     1       9.941   0.441  22.106  0.00  0.00    +0.001 A 
ATOM     22  C   UNL     1       9.801   0.646  23.476  0.00  0.00    +0.008 A 
ATOM     23  C   UNL     1       9.311  -0.368  24.315  0.00  0.00    -0.018 A 
ATOM     24  C   UNL     1       9.194  -0.132  25.691  0.00  0.00    +0.008 A 
ATOM     25  C   UNL     1       8.742  -1.126  26.550  0.00  0.00    +0.001 A 
ATOM     26  C   UNL     1       8.408  -2.378  26.044  0.00  0.00    +0.006 A 
ENDBRANCH  15  17
ENDBRANCH   1  15
TORSDOF 4
ENDMDL
MODEL 8
REMARK VINA RESULT:      -7.0      3.128      4.047
REMARK  Name = 
REMARK  6 active torsions:
REMARK  status: ('A' for Active; 'I' for Inactive)
REMARK    1  A    between atoms: C_2  and  C_3
REMARK    2  A    between atoms: C_2  and  N_4
REMARK    3  A    between atoms: C_2  and  C_15
REMARK    4  A    between atoms: C_5  and  C_7
REMARK    5  A    between atoms: C_8  and  C_9
REMARK    6  A    between atoms: C_12  and  N_13
REMARK                            x       y       z     vdW  Elec       q    Type
REMARK                         _______ _______ _______ _____ _____    ______ ____
ROOT
ATOM      1  N   UNL     1       7.073  -2.967  25.338  0.00  0.00    -0.305 N 
ATOM      2  H   UNL     1       6.199  -2.802  25.815  0.00  0.00    +0.150 HD
ATOM      3  C   UNL     1       7.260  -4.162  24.674  0.00  0.00    +0.245 C 
ATOM      4  O   UNL     1       8.218  -4.398  23.953  0.00  0.00    -0.270 OA
ENDROOT
BRANCH   3   5
ATOM      5  C   UNL     1       6.203  -5.189  24.923  0.00  0.00    +0.041 A 
ATOM      6  C   UNL     1       6.104  -5.719  26.225  0.00  0.00    +0.036 A 
ATOM      7  C   UNL     1       5.134  -6.664  26.557  0.00  0.00    +0.025 A 
ATOM      8  C   UNL     1       4.346  -7.187  25.535  0.00  0.00    +0.023 A 
ATOM      9  C   UNL     1       4.441  -6.687  24.234  0.00  0.00    +0.006 A 
ATOM     10  C   UNL     1       5.353  -5.666  23.909  0.00  0.00    -0.038 A 
ATOM     11  C   UNL     1       5.369  -5.187  22.483  0.00  0.00    +0.044 C 
BRANCH   7  12
ATOM     12  N   UNL     1       5.124  -7.243  27.829  0.00  0.00    -0.358 N 
ATOM     13  H   UNL     1       4.339  -6.966  28.410  0.00  0.00    +0.142 HD
ATOM     14  H   UNL     1       5.261  -8.251  27.825  0.00  0.00    +0.142 HD
ENDBRANCH   7  12
ENDBRANCH   3   5
BRANCH   1  15
ATOM     15  C   UNL     1       7.989  -1.841  25.210  0.00  0.00    +0.101 C 
ATOM     16  C   UNL     1       8.540  -1.488  26.596  0.00  0.00    +0.033 C 
BRANCH  15  17
ATOM     17  C   UNL     1       7.344  -0.607  24.581  0.00  0.00    -0.020 A 
ATOM     18  C   UNL     1       7.943   0.041  23.455  0.00  0.00    -0.013 A 
ATOM     19  C   UNL     1       9.099  -0.433  22.786  0.00  0.00    +0.009 A 
ATOM     20  C   UNL     1       9.677   0.259  21.720  0.00  0.00    +0.001 A 
ATOM     21  C   UNL     1       9.107   1.443  21.276  0.00  0.00    +0.001 A 
ATOM     22  C   UNL     1       7.954   1.925  21.890  0.00  0.00    +0.008 A 
ATOM     23  C   UNL     1       7.366   1.242  22.968  0.00  0.00    -0.018 A 
ATOM     24  C   UNL     1       6.213   1.762  23.570  0.00  0.00    +0.008 A 
ATOM     25  C   UNL     1       5.626   1.127  24.657  0.00  0.00    +0.001 A 
ATOM     26  C   UNL     1       6.192  -0.039  25.165  0.00  0.00    +0.006 A 
ENDBRANCH  15  17
ENDBRANCH   1  15
TORSDOF 4
ENDMDL
MODEL 9
REMARK VINA RESULT:      -7.0      2.225      7.785
REMARK  Name = 
REMARK  6 active torsions:
REMARK  status: ('A' for Active; 'I' for Inactive)
REMARK    1  A    between atoms: C_2  and  C_3
REMARK    2  A    between atoms: C_2  and  N_4
REMARK    3  A    between atoms: C_2  and  C_15
REMARK    4  A    between atoms: C_5  and  C_7
REMARK    5  A    between atoms: C_8  and  C_9
REMARK    6  A    between atoms: C_12  and  N_13
REMARK                            x       y       z     vdW  Elec       q    Type
REMARK                         _______ _______ _______ _____ _____    ______ ____
ROOT
ATOM      1  N   UNL     1       7.519  -0.189  24.689  0.00  0.00    -0.305 N 
ATOM      2  H   UNL     1       8.082   0.061  25.489  0.00  0.00    +0.150 HD
ATOM      3  C   UNL     1       7.740   0.449  23.485  0.00  0.00    +0.245 C 
ATOM      4  O   UNL     1       7.213   0.120  22.433  0.00  0.00    -0.270 OA
ENDROOT
BRANCH   3   5
ATOM      5  C   UNL     1       8.668   1.619  23.557  0.00  0.00    +0.041 A 
ATOM      6  C   UNL     1       8.123   2.898  23.326  0.00  0.00    +0.036 A 
ATOM      7  C   UNL     1       8.905   4.049  23.395  0.00  0.00    +0.025 A 
ATOM      8  C   UNL     1      10.280   3.902  23.560  0.00  0.00    +0.023 A 
ATOM      9  C   UNL     1      10.843   2.641  23.774  0.00  0.00    +0.006 A 
ATOM     10  C   UNL     1      10.047   1.481  23.799  0.00  0.00    -0.038 A 
ATOM     11  C   UNL     1      10.746   0.174  24.050  0.00  0.00    +0.044 C 
BRANCH   7  12
ATOM     12  N   UNL     1       8.358   5.292  23.063  0.00  0.00    -0.358 N 
ATOM     13  H   UNL     1       7.400   5.252  22.730  0.00  0.00    +0.142 HD
ATOM     14  H   UNL     1       8.486   6.003  23.778  0.00  0.00    +0.142 HD
ENDBRANCH   7  12
ENDBRANCH   3   5
BRANCH   1  15
ATOM     15  C   UNL     1       6.656  -1.357  24.817  0.00  0.00    +0.101 C 
ATOM     16  C   UNL     1       5.935  -1.297  26.167  0.00  0.00    +0.033 C 
BRANCH  15  17
ATOM     17  C   UNL     1       7.411  -2.680  24.691  0.00  0.00    -0.020 A 
ATOM     18  C   UNL     1       7.143  -3.577  23.609  0.00  0.00    -0.013 A 
ATOM     19  C   UNL     1       6.253  -3.296  22.544  0.00  0.00    +0.009 A 
ATOM     20  C   UNL     1       5.986  -4.221  21.533  0.00  0.00    +0.001 A 
ATOM     21  C   UNL     1       6.616  -5.457  21.547  0.00  0.00    +0.001 A 
ATOM     22  C   UNL     1       7.519  -5.759  22.563  0.00  0.00    +0.008 A 
ATOM     23  C   UNL     1       7.791  -4.839  23.588  0.00  0.00    -0.018 A 
ATOM     24  C   UNL     1       8.697  -5.180  24.601  0.00  0.00    +0.008 A 
ATOM     25  C   UNL     1       8.963  -4.304  25.646  0.00  0.00    +0.001 A 
ATOM     26  C   UNL     1       8.318  -3.072  25.697  0.00  0.00    +0.006 A 
ENDBRANCH  15  17
ENDBRANCH   1  15
TORSDOF 4
ENDMDL
