MODEL 1
REMARK VINA RESULT:      -7.5      0.000      0.000
REMARK  Name = 
REMARK  7 active torsions:
REMARK  status: ('A' for Active; 'I' for Inactive)
REMARK    1  A    between atoms: O5*_1  and  C5*_2
REMARK    2  A    between atoms: C5*_2  and  C4*_3
REMARK    3  A    between atoms: C1*_6  and  N_14
REMARK    4  A    between atoms: C2*_8  and  O2*_10
REMARK    5  A    between atoms: C3*_11  and  O3*_13
REMARK    6  A    between atoms: C_18  and  N_19
REMARK    7  A    between atoms: N_19  and  C_20
REMARK                            x       y       z     vdW  Elec       q    Type
REMARK                         _______ _______ _______ _____ _____    ______ ____
ROOT
ATOM      1  N   UNL     1      10.280   1.603  23.594  0.00  0.00    -0.286 N 
ATOM      2  C   UNL     1       9.950   0.500  22.851  0.00  0.00    +0.167 A 
ATOM      3  C   UNL     1      10.010  -0.562  23.740  0.00  0.00    +0.147 A 
ATOM      4  C   UNL     1       9.722  -1.847  23.231  0.00  0.00    +0.150 A 
ATOM      5  N   UNL     1       9.424  -1.943  21.908  0.00  0.00    -0.219 NA
ATOM      6  C   UNL     1       9.391  -0.816  21.160  0.00  0.00    +0.225 A 
ATOM      7  N   UNL     1      10.370  -0.125  24.999  0.00  0.00    -0.231 NA
ATOM      8  N   UNL     1       9.631   0.459  21.545  0.00  0.00    -0.216 NA
ATOM      9  C   UNL     1      10.519   1.180  24.873  0.00  0.00    +0.203 A 
ENDROOT
BRANCH   1  13
ATOM     10  C4* UNL     1      11.570   4.898  23.149  0.00  0.00    +0.177 C 
ATOM     11  C3* UNL     1      10.237   5.245  23.811  0.00  0.00    +0.178 C 
ATOM     12  C2* UNL     1       9.446   3.937  23.796  0.00  0.00    +0.195 C 
ATOM     13  C1* UNL     1      10.367   2.952  23.069  0.00  0.00    +0.253 C 
ATOM     14  O4* UNL     1      11.702   3.464  23.216  0.00  0.00    -0.346 OA
BRANCH  11  15
ATOM     15  O3* UNL     1       9.578   6.287  23.089  0.00  0.00    -0.386 OA
ATOM     16  H3* UNL     1      10.284   6.730  22.572  0.00  0.00    +0.210 HD
ENDBRANCH  11  15
BRANCH  12  17
ATOM     17  O2* UNL     1       8.176   4.116  23.154  0.00  0.00    -0.385 OA
ATOM     18  H2* UNL     1       8.249   3.698  22.269  0.00  0.00    +0.210 HD
ENDBRANCH  12  17
BRANCH  10  19
ATOM     19  C5* UNL     1      12.768   5.592  23.795  0.00  0.00    +0.190 C 
BRANCH  19  20
ATOM     20  O5* UNL     1      13.996   5.111  23.251  0.00  0.00    -0.392 OA
ATOM     21  H5* UNL     1      14.327   5.803  22.652  0.00  0.00    +0.210 HD
ENDBRANCH  19  20
ENDBRANCH  10  19
ENDBRANCH   1  13
BRANCH   4  22
ATOM     22  N   UNL     1       9.751  -2.979  24.050  0.00  0.00    -0.322 N 
ATOM     23  H   UNL     1      10.401  -3.665  23.667  0.00  0.00    +0.148 HD
BRANCH  22  24
ATOM     24  C   UNL     1       8.467  -3.488  24.531  0.00  0.00    +0.100 C 
ATOM     25  C   UNL     1       8.330  -5.004  24.388  0.00  0.00    +0.182 C 
ATOM     26  O   UNL     1       8.775  -5.611  25.616  0.00  0.00    -0.378 OA
ATOM     27  C   UNL     1       9.039  -4.571  26.562  0.00  0.00    +0.162 C 
ATOM     28  C   UNL     1       8.383  -3.314  26.036  0.00  0.00    +0.052 C 
ENDBRANCH  22  24
ENDBRANCH   4  22
TORSDOF 7
ENDMDL
MODEL 2
REMARK VINA RESULT:      -7.0      2.887      7.957
REMARK  Name = 
REMARK  7 active torsions:
REMARK  status: ('A' for Active; 'I' for Inactive)
REMARK    1  A    between atoms: O5*_1  and  C5*_2
REMARK    2  A    between atoms: C5*_2  and  C4*_3
REMARK    3  A    between atoms: C1*_6  and  N_14
REMARK    4  A    between atoms: C2*_8  and  O2*_10
REMARK    5  A    between atoms: C3*_11  and  O3*_13
REMARK    6  A    between atoms: C_18  and  N_19
REMARK    7  A    between atoms: N_19  and  C_20
REMARK                            x       y       z     vdW  Elec       q    Type
REMARK                         _______ _______ _______ _____ _____    ______ ____
ROOT
ATOM      1  N   UNL     1       7.420  -1.929  23.881  0.00  0.00    -0.286 N 
ATOM      2  C   UNL     1       8.050  -1.113  22.977  0.00  0.00    +0.167 A 
ATOM      3  C   UNL     1       7.361   0.089  23.037  0.00  0.00    +0.147 A 
ATOM      4  C   UNL     1       7.798   1.126  22.186  0.00  0.00    +0.150 A 
ATOM      5  N   UNL     1       8.848   0.860  21.364  0.00  0.00    -0.219 NA
ATOM      6  C   UNL     1       9.432  -0.358  21.421  0.00  0.00    +0.225 A 
ATOM      7  N   UNL     1       6.331   0.015  23.954  0.00  0.00    -0.231 NA
ATOM      8  N   UNL     1       9.111  -1.412  22.205  0.00  0.00    -0.216 NA
ATOM      9  C   UNL     1       6.402  -1.209  24.442  0.00  0.00    +0.203 A 
ENDROOT
BRANCH   1  13
ATOM     10  C4* UNL     1       7.433  -5.089  25.533  0.00  0.00    +0.177 C 
ATOM     11  C3* UNL     1       8.864  -4.648  25.838  0.00  0.00    +0.178 C 
ATOM     12  C2* UNL     1       9.093  -3.432  24.941  0.00  0.00    +0.195 C 
ATOM     13  C1* UNL     1       7.791  -3.306  24.143  0.00  0.00    +0.253 C 
ATOM     14  O4* UNL     1       6.776  -3.961  24.921  0.00  0.00    -0.346 OA
BRANCH  11  15
ATOM     15  O3* UNL     1       9.782  -5.708  25.562  0.00  0.00    -0.386 OA
ATOM     16  H3* UNL     1       9.483  -6.460  26.117  0.00  0.00    +0.210 HD
ENDBRANCH  11  15
BRANCH  12  17
ATOM     17  O2* UNL     1      10.254  -3.616  24.119  0.00  0.00    -0.385 OA
ATOM     18  H2* UNL     1      10.277  -2.860  23.493  0.00  0.00    +0.210 HD
ENDBRANCH  12  17
BRANCH  10  19
ATOM     19  C5* UNL     1       6.669  -5.569  26.766  0.00  0.00    +0.190 C 
BRANCH  19  20
ATOM     20  O5* UNL     1       7.563  -6.028  27.779  0.00  0.00    -0.392 OA
ATOM     21  H5* UNL     1       8.436  -5.650  27.573  0.00  0.00    +0.210 HD
ENDBRANCH  19  20
ENDBRANCH  10  19
ENDBRANCH   1  13
BRANCH   4  22
ATOM     22  N   UNL     1       7.171   2.375  22.178  0.00  0.00    -0.322 N 
ATOM     23  H   UNL     1       6.629   2.483  21.322  0.00  0.00    +0.148 HD
BRANCH  22  24
ATOM     24  C   UNL     1       7.971   3.526  22.599  0.00  0.00    +0.100 C 
ATOM     25  C   UNL     1       7.152   4.810  22.730  0.00  0.00    +0.182 C 
ATOM     26  O   UNL     1       6.697   4.913  24.093  0.00  0.00    -0.378 OA
ATOM     27  C   UNL     1       7.300   3.860  24.849  0.00  0.00    +0.162 C 
ATOM     28  C   UNL     1       8.447   3.320  24.024  0.00  0.00    +0.052 C 
ENDBRANCH  22  24
ENDBRANCH   4  22
TORSDOF 7
ENDMDL
MODEL 3
REMARK VINA RESULT:      -6.9      2.044      7.737
REMARK  Name = 
REMARK  7 active torsions:
REMARK  status: ('A' for Active; 'I' for Inactive)
REMARK    1  A    between atoms: O5*_1  and  C5*_2
REMARK    2  A    between atoms: C5*_2  and  C4*_3
REMARK    3  A    between atoms: C1*_6  and  N_14
REMARK    4  A    between atoms: C2*_8  and  O2*_10
REMARK    5  A    between atoms: C3*_11  and  O3*_13
REMARK    6  A    between atoms: C_18  and  N_19
REMARK    7  A    between atoms: N_19  and  C_20
REMARK                            x       y       z     vdW  Elec       q    Type
REMARK                         _______ _______ _______ _____ _____    ______ ____
ROOT
ATOM      1  N   UNL     1       8.807  -1.170  23.753  0.00  0.00    -0.286 N 
ATOM      2  C   UNL     1       8.334  -0.017  23.182  0.00  0.00    +0.167 A 
ATOM      3  C   UNL     1       9.439   0.816  23.089  0.00  0.00    +0.147 A 
ATOM      4  C   UNL     1       9.234   2.099  22.538  0.00  0.00    +0.150 A 
ATOM      5  N   UNL     1       7.969   2.421  22.156  0.00  0.00    -0.219 NA
ATOM      6  C   UNL     1       6.989   1.501  22.295  0.00  0.00    +0.225 A 
ATOM      7  N   UNL     1      10.563   0.193  23.592  0.00  0.00    -0.231 NA
ATOM      8  N   UNL     1       7.074   0.245  22.790  0.00  0.00    -0.216 NA
ATOM      9  C   UNL     1      10.145  -0.998  23.976  0.00  0.00    +0.203 A 
ENDROOT
BRANCH   1  13
ATOM     10  C4* UNL     1       8.030  -4.440  24.944  0.00  0.00    +0.177 C 
ATOM     11  C3* UNL     1       7.759  -4.652  23.455  0.00  0.00    +0.178 C 
ATOM     12  C2* UNL     1       7.772  -3.246  22.856  0.00  0.00    +0.195 C 
ATOM     13  C1* UNL     1       7.991  -2.328  24.063  0.00  0.00    +0.253 C 
ATOM     14  O4* UNL     1       8.623  -3.132  25.073  0.00  0.00    -0.346 OA
BRANCH  11  15
ATOM     15  O3* UNL     1       6.507  -5.312  23.265  0.00  0.00    -0.386 OA
ATOM     16  H3* UNL     1       6.139  -4.934  22.438  0.00  0.00    +0.210 HD
ENDBRANCH  11  15
BRANCH  12  17
ATOM     17  O2* UNL     1       6.555  -2.982  22.147  0.00  0.00    -0.385 OA
ATOM     18  H2* UNL     1       6.658  -2.099  21.731  0.00  0.00    +0.210 HD
ENDBRANCH  12  17
BRANCH  10  19
ATOM     19  C5* UNL     1       8.928  -5.514  25.557  0.00  0.00    +0.190 C 
BRANCH  19  20
ATOM     20  O5* UNL     1      10.257  -5.428  25.045  0.00  0.00    -0.392 OA
ATOM     21  H5* UNL     1      10.236  -5.805  24.147  0.00  0.00    +0.210 HD
ENDBRANCH  19  20
ENDBRANCH  10  19
ENDBRANCH   1  13
BRANCH   4  22
ATOM     22  N   UNL     1      10.286   3.008  22.398  0.00  0.00    -0.322 N 
ATOM     23  H   UNL     1      10.970   2.645  21.735  0.00  0.00    +0.148 HD
BRANCH  22  24
ATOM     24  C   UNL     1      10.814   3.613  23.621  0.00  0.00    +0.100 C 
ATOM     25  C   UNL     1      12.018   4.520  23.371  0.00  0.00    +0.182 C 
ATOM     26  O   UNL     1      11.535   5.864  23.184  0.00  0.00    -0.378 OA
ATOM     27  C   UNL     1      10.129   5.877  23.447  0.00  0.00    +0.162 C 
ATOM     28  C   UNL     1       9.801   4.595  24.180  0.00  0.00    +0.052 C 
ENDBRANCH  22  24
ENDBRANCH   4  22
TORSDOF 7
ENDMDL
MODEL 4
REMARK VINA RESULT:      -6.7      4.765      6.959
REMARK  Name = 
REMARK  7 active torsions:
REMARK  status: ('A' for Active; 'I' for Inactive)
REMARK    1  A    between atoms: O5*_1  and  C5*_2
REMARK    2  A    between atoms: C5*_2  and  C4*_3
REMARK    3  A    between atoms: C1*_6  and  N_14
REMARK    4  A    between atoms: C2*_8  and  O2*_10
REMARK    5  A    between atoms: C3*_11  and  O3*_13
REMARK    6  A    between atoms: C_18  and  N_19
REMARK    7  A    between atoms: N_19  and  C_20
REMARK                            x       y       z     vdW  Elec       q    Type
REMARK                         _______ _______ _______ _____ _____    ______ ____
ROOT
ATOM      1  N   UNL     1       6.551  -3.045  23.135  0.00  0.00    -0.286 N 
ATOM      2  C   UNL     1       6.237  -4.105  23.946  0.00  0.00    +0.167 A 
ATOM      3  C   UNL     1       5.270  -4.815  23.250  0.00  0.00    +0.147 A 
ATOM      4  C   UNL     1       4.749  -5.971  23.869  0.00  0.00    +0.150 A 
ATOM      5  N   UNL     1       5.225  -6.288  25.103  0.00  0.00    -0.219 NA
ATOM      6  C   UNL     1       6.180  -5.508  25.658  0.00  0.00    +0.225 A 
ATOM      7  N   UNL     1       4.993  -4.207  22.042  0.00  0.00    -0.231 NA
ATOM      8  N   UNL     1       6.760  -4.396  25.151  0.00  0.00    -0.216 NA
ATOM      9  C   UNL     1       5.785  -3.151  22.007  0.00  0.00    +0.203 A 
ENDROOT
BRANCH   1  13
ATOM     10  C4* UNL     1       8.239   0.088  22.922  0.00  0.00    +0.177 C 
ATOM     11  C3* UNL     1       9.380  -0.833  22.492  0.00  0.00    +0.178 C 
ATOM     12  C2* UNL     1       8.883  -2.241  22.817  0.00  0.00    +0.195 C 
ATOM     13  C1* UNL     1       7.514  -2.013  23.467  0.00  0.00    +0.253 C 
ATOM     14  O4* UNL     1       7.056  -0.731  23.005  0.00  0.00    -0.346 OA
BRANCH  11  15
ATOM     15  O3* UNL     1      10.579  -0.504  23.196  0.00  0.00    -0.386 OA
ATOM     16  H3* UNL     1      10.463  -0.882  24.094  0.00  0.00    +0.210 HD
ENDBRANCH  11  15
BRANCH  12  17
ATOM     17  O2* UNL     1       9.813  -2.928  23.665  0.00  0.00    -0.385 OA
ATOM     18  H2* UNL     1       9.279  -3.425  24.321  0.00  0.00    +0.210 HD
ENDBRANCH  12  17
BRANCH  10  19
ATOM     19  C5* UNL     1       8.025   1.271  21.979  0.00  0.00    +0.190 C 
BRANCH  19  20
ATOM     20  O5* UNL     1       9.168   1.484  21.152  0.00  0.00    -0.392 OA
ATOM     21  H5* UNL     1       9.727   2.136  21.611  0.00  0.00    +0.210 HD
ENDBRANCH  19  20
ENDBRANCH  10  19
ENDBRANCH   1  13
BRANCH   4  22
ATOM     22  N   UNL     1       3.775  -6.755  23.246  0.00  0.00    -0.322 N 
ATOM     23  H   UNL     1       3.855  -6.665  22.234  0.00  0.00    +0.148 HD
BRANCH  22  24
ATOM     24  C   UNL     1       2.423  -6.710  23.804  0.00  0.00    +0.100 C 
ATOM     25  C   UNL     1       1.492  -5.763  23.048  0.00  0.00    +0.182 C 
ATOM     26  O   UNL     1       0.806  -6.523  22.036  0.00  0.00    -0.378 OA
ATOM     27  C   UNL     1       1.136  -7.904  22.209  0.00  0.00    +0.162 C 
ATOM     28  C   UNL     1       1.739  -8.047  23.589  0.00  0.00    +0.052 C 
ENDBRANCH  22  24
ENDBRANCH   4  22
TORSDOF 7
ENDMDL
MODEL 5
REMARK VINA RESULT:      -6.7      2.451      4.023
REMARK  Name = 
REMARK  7 active torsions:
REMARK  status: ('A' for Active; 'I' for Inactive)
REMARK    1  A    between atoms: O5*_1  and  C5*_2
REMARK    2  A    between atoms: C5*_2  and  C4*_3
REMARK    3  A    between atoms: C1*_6  and  N_14
REMARK    4  A    between atoms: C2*_8  and  O2*_10
REMARK    5  A    between atoms: C3*_11  and  O3*_13
REMARK    6  A    between atoms: C_18  and  N_19
REMARK    7  A    between atoms: N_19  and  C_20
REMARK                            x       y       z     vdW  Elec       q    Type
REMARK                         _______ _______ _______ _____ _____    ______ ____
ROOT
ATOM      1  N   UNL     1       9.203  -0.332  23.303  0.00  0.00    -0.286 N 
ATOM      2  C   UNL     1       8.896  -1.314  24.209  0.00  0.00    +0.167 A 
ATOM      3  C   UNL     1       8.612  -2.434  23.443  0.00  0.00    +0.147 A 
ATOM      4  C   UNL     1       8.247  -3.611  24.131  0.00  0.00    +0.150 A 
ATOM      5  N   UNL     1       8.188  -3.549  25.488  0.00  0.00    -0.219 NA
ATOM      6  C   UNL     1       8.504  -2.388  26.105  0.00  0.00    +0.225 A 
ATOM      7  N   UNL     1       8.739  -2.149  22.097  0.00  0.00    -0.231 NA
ATOM      8  N   UNL     1       8.881  -1.213  25.551  0.00  0.00    -0.216 NA
ATOM      9  C   UNL     1       9.098  -0.881  22.054  0.00  0.00    +0.203 A 
ENDROOT
BRANCH   1  13
ATOM     10  C4* UNL     1       8.832   2.895  24.772  0.00  0.00    +0.177 C 
ATOM     11  C3* UNL     1       8.779   3.291  23.297  0.00  0.00    +0.178 C 
ATOM     12  C2* UNL     1       9.218   2.036  22.544  0.00  0.00    +0.195 C 
ATOM     13  C1* UNL     1       9.548   1.031  23.653  0.00  0.00    +0.253 C 
ATOM     14  O4* UNL     1       8.812   1.455  24.813  0.00  0.00    -0.346 OA
BRANCH  11  15
ATOM     15  O3* UNL     1       9.641   4.403  23.047  0.00  0.00    -0.386 OA
ATOM     16  H3* UNL     1       9.046   5.181  22.983  0.00  0.00    +0.210 HD
ENDBRANCH  11  15
BRANCH  12  17
ATOM     17  O2* UNL     1      10.326   2.321  21.680  0.00  0.00    -0.385 OA
ATOM     18  H2* UNL     1      10.303   1.648  20.964  0.00  0.00    +0.210 HD
ENDBRANCH  12  17
BRANCH  10  19
ATOM     19  C5* UNL     1       7.691   3.486  25.600  0.00  0.00    +0.190 C 
BRANCH  19  20
ATOM     20  O5* UNL     1       7.704   2.972  26.932  0.00  0.00    -0.392 OA
ATOM     21  H5* UNL     1       6.810   3.107  27.292  0.00  0.00    +0.210 HD
ENDBRANCH  19  20
ENDBRANCH  10  19
ENDBRANCH   1  13
BRANCH   4  22
ATOM     22  N   UNL     1       7.948  -4.792  23.447  0.00  0.00    -0.322 N 
ATOM     23  H   UNL     1       8.505  -4.849  22.595  0.00  0.00    +0.148 HD
BRANCH  22  24
ATOM     24  C   UNL     1       6.536  -5.158  23.333  0.00  0.00    +0.100 C 
ATOM     25  C   UNL     1       5.669  -4.036  22.761  0.00  0.00    +0.182 C 
ATOM     26  O   UNL     1       5.596  -4.210  21.333  0.00  0.00    -0.378 OA
ATOM     27  C   UNL     1       6.235  -5.445  20.997  0.00  0.00    +0.162 C 
ATOM     28  C   UNL     1       6.374  -6.237  22.279  0.00  0.00    +0.052 C 
ENDBRANCH  22  24
ENDBRANCH   4  22
TORSDOF 7
ENDMDL
MODEL 6
REMARK VINA RESULT:      -6.6      3.154      4.632
REMARK  Name = 
REMARK  7 active torsions:
REMARK  status: ('A' for Active; 'I' for Inactive)
REMARK    1  A    between atoms: O5*_1  and  C5*_2
REMARK    2  A    between atoms: C5*_2  and  C4*_3
REMARK    3  A    between atoms: C1*_6  and  N_14
REMARK    4  A    between atoms: C2*_8  and  O2*_10
REMARK    5  A    between atoms: C3*_11  and  O3*_13
REMARK    6  A    between atoms: C_18  and  N_19
REMARK    7  A    between atoms: N_19  and  C_20
REMARK                            x       y       z     vdW  Elec       q    Type
REMARK                         _______ _______ _______ _____ _____    ______ ____
ROOT
ATOM      1  N   UNL     1       7.842  -1.200  23.795  0.00  0.00    -0.286 N 
ATOM      2  C   UNL     1       8.106  -2.482  24.204  0.00  0.00    +0.167 A 
ATOM      3  C   UNL     1       6.860  -3.059  24.399  0.00  0.00    +0.147 A 
ATOM      4  C   UNL     1       6.833  -4.398  24.841  0.00  0.00    +0.150 A 
ATOM      5  N   UNL     1       8.028  -5.012  25.056  0.00  0.00    -0.219 NA
ATOM      6  C   UNL     1       9.168  -4.326  24.812  0.00  0.00    +0.225 A 
ATOM      7  N   UNL     1       5.854  -2.155  24.119  0.00  0.00    -0.231 NA
ATOM      8  N   UNL     1       9.311  -3.055  24.373  0.00  0.00    -0.216 NA
ATOM      9  C   UNL     1       6.483  -1.054  23.756  0.00  0.00    +0.203 A 
ENDROOT
BRANCH   1  13
ATOM     10  C4* UNL     1       9.402   2.005  23.689  0.00  0.00    +0.177 C 
ATOM     11  C3* UNL     1       9.154   1.805  22.194  0.00  0.00    +0.178 C 
ATOM     12  C2* UNL     1       8.749   0.337  22.063  0.00  0.00    +0.195 C 
ATOM     13  C1* UNL     1       8.856  -0.209  23.491  0.00  0.00    +0.253 C 
ATOM     14  O4* UNL     1       8.732   0.924  24.367  0.00  0.00    -0.346 OA
BRANCH  11  15
ATOM     15  O3* UNL     1      10.332   2.113  21.447  0.00  0.00    -0.386 OA
ATOM     16  H3* UNL     1      10.231   3.052  21.181  0.00  0.00    +0.210 HD
ENDBRANCH  11  15
BRANCH  12  17
ATOM     17  O2* UNL     1       9.593  -0.343  21.124  0.00  0.00    -0.385 OA
ATOM     18  H2* UNL     1       9.622   0.217  20.318  0.00  0.00    +0.210 HD
ENDBRANCH  12  17
BRANCH  10  19
ATOM     19  C5* UNL     1       8.925   3.360  24.208  0.00  0.00    +0.190 C 
BRANCH  19  20
ATOM     20  O5* UNL     1       9.256   4.406  23.296  0.00  0.00    -0.392 OA
ATOM     21  H5* UNL     1       8.419   4.707  22.900  0.00  0.00    +0.210 HD
ENDBRANCH  19  20
ENDBRANCH  10  19
ENDBRANCH   1  13
BRANCH   4  22
ATOM     22  N   UNL     1       5.627  -5.069  25.061  0.00  0.00    -0.322 N 
ATOM     23  H   UNL     1       5.525  -5.281  26.053  0.00  0.00    +0.148 HD
BRANCH  22  24
ATOM     24  C   UNL     1       5.275  -6.135  24.123  0.00  0.00    +0.100 C 
ATOM     25  C   UNL     1       4.185  -7.067  24.653  0.00  0.00    +0.182 C 
ATOM     26  O   UNL     1       2.910  -6.563  24.209  0.00  0.00    -0.378 OA
ATOM     27  C   UNL     1       3.145  -5.469  23.319  0.00  0.00    +0.162 C 
ATOM     28  C   UNL     1       4.598  -5.536  22.904  0.00  0.00    +0.052 C 
ENDBRANCH  22  24
ENDBRANCH   4  22
TORSDOF 7
ENDMDL
MODEL 7
REMARK VINA RESULT:      -6.5      2.806      8.884
REMARK  Name = 
REMARK  7 active torsions:
REMARK  status: ('A' for Active; 'I' for Inactive)
REMARK    1  A    between atoms: O5*_1  and  C5*_2
REMARK    2  A    between atoms: C5*_2  and  C4*_3
REMARK    3  A    between atoms: C1*_6  and  N_14
REMARK    4  A    between atoms: C2*_8  and  O2*_10
REMARK    5  A    between atoms: C3*_11  and  O3*_13
REMARK    6  A    between atoms: C_18  and  N_19
REMARK    7  A    between atoms: N_19  and  C_20
REMARK                            x       y       z     vdW  Elec       q    Type
REMARK                         _______ _______ _______ _____ _____    ______ ____
ROOT
ATOM      1  N   UNL     1       6.826  -4.021  24.712  0.00  0.00    -0.286 N 
ATOM      2  C   UNL     1       7.963  -3.393  24.273  0.00  0.00    +0.167 A 
ATOM      3  C   UNL     1       7.513  -2.367  23.456  0.00  0.00    +0.147 A 
ATOM      4  C   UNL     1       8.491  -1.551  22.849  0.00  0.00    +0.150 A 
ATOM      5  N   UNL     1       9.795  -1.844  23.100  0.00  0.00    -0.219 NA
ATOM      6  C   UNL     1      10.087  -2.872  23.929  0.00  0.00    +0.225 A 
ATOM      7  N   UNL     1       6.134  -2.363  23.392  0.00  0.00    -0.231 NA
ATOM      8  N   UNL     1       9.237  -3.703  24.575  0.00  0.00    -0.216 NA
ATOM      9  C   UNL     1       5.758  -3.367  24.162  0.00  0.00    +0.203 A 
ENDROOT
BRANCH   1  13
ATOM     10  C4* UNL     1       5.486  -6.457  26.945  0.00  0.00    +0.177 C 
ATOM     11  C3* UNL     1       6.448  -5.752  27.901  0.00  0.00    +0.178 C 
ATOM     12  C2* UNL     1       7.308  -4.866  27.000  0.00  0.00    +0.195 C 
ATOM     13  C1* UNL     1       6.811  -5.178  25.584  0.00  0.00    +0.253 C 
ATOM     14  O4* UNL     1       5.473  -5.683  25.729  0.00  0.00    -0.346 OA
BRANCH  11  15
ATOM     15  O3* UNL     1       7.224  -6.710  28.623  0.00  0.00    -0.386 OA
ATOM     16  H3* UNL     1       6.755  -7.564  28.506  0.00  0.00    +0.210 HD
ENDBRANCH  11  15
BRANCH  12  17
ATOM     17  O2* UNL     1       8.701  -5.143  27.193  0.00  0.00    -0.385 OA
ATOM     18  H2* UNL     1       8.970  -5.748  26.468  0.00  0.00    +0.210 HD
ENDBRANCH  12  17
BRANCH  10  19
ATOM     19  C5* UNL     1       4.076  -6.618  27.510  0.00  0.00    +0.190 C 
BRANCH  19  20
ATOM     20  O5* UNL     1       4.080  -7.441  28.676  0.00  0.00    -0.392 OA
ATOM     21  H5* UNL     1       4.555  -6.946  29.366  0.00  0.00    +0.210 HD
ENDBRANCH  19  20
ENDBRANCH  10  19
ENDBRANCH   1  13
BRANCH   4  22
ATOM     22  N   UNL     1       8.137  -0.487  22.014  0.00  0.00    -0.322 N 
ATOM     23  H   UNL     1       8.729  -0.488  21.184  0.00  0.00    +0.148 HD
BRANCH  22  24
ATOM     24  C   UNL     1       7.899   0.809  22.648  0.00  0.00    +0.100 C 
ATOM     25  C   UNL     1       8.684   0.996  23.947  0.00  0.00    +0.182 C 
ATOM     26  O   UNL     1       9.934   1.636  23.626  0.00  0.00    -0.378 OA
ATOM     27  C   UNL     1       9.914   1.992  22.241  0.00  0.00    +0.162 C 
ATOM     28  C   UNL     1       8.474   1.913  21.781  0.00  0.00    +0.052 C 
ENDBRANCH  22  24
ENDBRANCH   4  22
TORSDOF 7
ENDMDL
MODEL 8
REMARK VINA RESULT:      -6.4      2.261      3.292
REMARK  Name = 
REMARK  7 active torsions:
REMARK  status: ('A' for Active; 'I' for Inactive)
REMARK    1  A    between atoms: O5*_1  and  C5*_2
REMARK    2  A    between atoms: C5*_2  and  C4*_3
REMARK    3  A    between atoms: C1*_6  and  N_14
REMARK    4  A    between atoms: C2*_8  and  O2*_10
REMARK    5  A    between atoms: C3*_11  and  O3*_13
REMARK    6  A    between atoms: C_18  and  N_19
REMARK    7  A    between atoms: N_19  and  C_20
REMARK                            x       y       z     vdW  Elec       q    Type
REMARK                         _______ _______ _______ _____ _____    ______ ____
ROOT
ATOM      1  N   UNL     1       8.215   0.928  23.919  0.00  0.00    -0.286 N 
ATOM      2  C   UNL     1       8.829  -0.181  23.396  0.00  0.00    +0.167 A 
ATOM      3  C   UNL     1       7.814  -1.112  23.239  0.00  0.00    +0.147 A 
ATOM      4  C   UNL     1       8.171  -2.374  22.720  0.00  0.00    +0.150 A 
ATOM      5  N   UNL     1       9.484  -2.582  22.429  0.00  0.00    -0.219 NA
ATOM      6  C   UNL     1      10.365  -1.575  22.624  0.00  0.00    +0.225 A 
ATOM      7  N   UNL     1       6.605  -0.591  23.656  0.00  0.00    -0.231 NA
ATOM      8  N   UNL     1      10.132  -0.329  23.096  0.00  0.00    -0.216 NA
ATOM      9  C   UNL     1       6.886   0.636  24.052  0.00  0.00    +0.203 A 
ENDROOT
BRANCH   1  13
ATOM     10  C4* UNL     1       8.599   4.283  25.066  0.00  0.00    +0.177 C 
ATOM     11  C3* UNL     1       9.007   4.476  23.606  0.00  0.00    +0.178 C 
ATOM     12  C2* UNL     1       9.169   3.058  23.059  0.00  0.00    +0.195 C 
ATOM     13  C1* UNL     1       8.899   2.158  24.269  0.00  0.00    +0.253 C 
ATOM     14  O4* UNL     1       8.103   2.934  25.180  0.00  0.00    -0.346 OA
BRANCH  11  15
ATOM     15  O3* UNL     1      10.216   5.232  23.521  0.00  0.00    -0.386 OA
ATOM     16  H3* UNL     1      10.763   4.771  22.850  0.00  0.00    +0.210 HD
ENDBRANCH  11  15
BRANCH  12  17
ATOM     17  O2* UNL     1      10.471   2.877  22.488  0.00  0.00    -0.385 OA
ATOM     18  H2* UNL     1      10.347   2.348  21.670  0.00  0.00    +0.210 HD
ENDBRANCH  12  17
BRANCH  10  19
ATOM     19  C5* UNL     1       7.559   5.294  25.546  0.00  0.00    +0.190 C 
BRANCH  19  20
ATOM     20  O5* UNL     1       7.864   6.607  25.077  0.00  0.00    -0.392 OA
ATOM     21  H5* UNL     1       8.808   6.606  24.836  0.00  0.00    +0.210 HD
ENDBRANCH  19  20
ENDBRANCH  10  19
ENDBRANCH   1  13
BRANCH   4  22
ATOM     22  N   UNL     1       7.219  -3.377  22.519  0.00  0.00    -0.322 N 
ATOM     23  H   UNL     1       6.290  -3.019  22.738  0.00  0.00    +0.148 HD
BRANCH  22  24
ATOM     24  C   UNL     1       7.541  -4.714  23.019  0.00  0.00    +0.100 C 
ATOM     25  C   UNL     1       6.646  -5.154  24.177  0.00  0.00    +0.182 C 
ATOM     26  O   UNL     1       5.526  -5.875  23.629  0.00  0.00    -0.378 OA
ATOM     27  C   UNL     1       5.742  -6.039  22.225  0.00  0.00    +0.162 C 
ATOM     28  C   UNL     1       7.203  -5.747  21.961  0.00  0.00    +0.052 C 
ENDBRANCH  22  24
ENDBRANCH   4  22
TORSDOF 7
ENDMDL
MODEL 9
REMARK VINA RESULT:      -6.3      2.165      2.436
REMARK  Name = 
REMARK  7 active torsions:
REMARK  status: ('A' for Active; 'I' for Inactive)
REMARK    1  A    between atoms: O5*_1  and  C5*_2
REMARK    2  A    between atoms: C5*_2  and  C4*_3
REMARK    3  A    between atoms: C1*_6  and  N_14
REMARK    4  A    between atoms: C2*_8  and  O2*_10
REMARK    5  A    between atoms: C3*_11  and  O3*_13
REMARK    6  A    between atoms: C_18  and  N_19
REMARK    7  A    between atoms: N_19  and  C_20
REMARK                            x       y       z     vdW  Elec       q    Type
REMARK                         _______ _______ _______ _____ _____    ______ ____
ROOT
ATOM      1  N   UNL     1       9.080   1.166  24.345  0.00  0.00    -0.286 N 
ATOM      2  C   UNL     1       9.508   0.054  23.667  0.00  0.00    +0.167 A 
ATOM      3  C   UNL     1       9.308  -1.001  24.545  0.00  0.00    +0.147 A 
ATOM      4  C   UNL     1       9.680  -2.288  24.103  0.00  0.00    +0.150 A 
ATOM      5  N   UNL     1      10.219  -2.390  22.858  0.00  0.00    -0.219 NA
ATOM      6  C   UNL     1      10.345  -1.273  22.105  0.00  0.00    +0.225 A 
ATOM      7  N   UNL     1       8.772  -0.550  25.735  0.00  0.00    -0.231 NA
ATOM      8  N   UNL     1      10.007  -0.002  22.419  0.00  0.00    -0.216 NA
ATOM      9  C   UNL     1       8.645   0.754  25.575  0.00  0.00    +0.203 A 
ENDROOT
BRANCH   1  13
ATOM     10  C4* UNL     1       8.524   4.686  24.235  0.00  0.00    +0.177 C 
ATOM     11  C3* UNL     1       7.631   4.262  23.070  0.00  0.00    +0.178 C 
ATOM     12  C2* UNL     1       7.998   2.800  22.815  0.00  0.00    +0.195 C 
ATOM     13  C1* UNL     1       9.121   2.516  23.819  0.00  0.00    +0.253 C 
ATOM     14  O4* UNL     1       8.966   3.474  24.878  0.00  0.00    -0.346 OA
BRANCH  11  15
ATOM     15  O3* UNL     1       7.872   5.088  21.930  0.00  0.00    -0.386 OA
ATOM     16  H3* UNL     1       8.602   4.651  21.442  0.00  0.00    +0.210 HD
ENDBRANCH  11  15
BRANCH  12  17
ATOM     17  O2* UNL     1       8.386   2.602  21.449  0.00  0.00    -0.385 OA
ATOM     18  H2* UNL     1       7.570   2.693  20.910  0.00  0.00    +0.210 HD
ENDBRANCH  12  17
BRANCH  10  19
ATOM     19  C5* UNL     1       7.826   5.614  25.229  0.00  0.00    +0.190 C 
BRANCH  19  20
ATOM     20  O5* UNL     1       8.504   5.625  26.484  0.00  0.00    -0.392 OA
ATOM     21  H5* UNL     1       8.662   6.560  26.709  0.00  0.00    +0.210 HD
ENDBRANCH  19  20
ENDBRANCH  10  19
ENDBRANCH   1  13
BRANCH   4  22
ATOM     22  N   UNL     1       9.512  -3.414  24.912  0.00  0.00    -0.322 N 
ATOM     23  H   UNL     1      10.421  -3.818  25.135  0.00  0.00    +0.148 HD
BRANCH  22  24
ATOM     24  C   UNL     1       8.451  -4.351  24.542  0.00  0.00    +0.100 C 
ATOM     25  C   UNL     1       8.626  -5.735  25.166  0.00  0.00    +0.182 C 
ATOM     26  O   UNL     1       7.903  -5.759  26.412  0.00  0.00    -0.378 OA
ATOM     27  C   UNL     1       7.172  -4.536  26.531  0.00  0.00    +0.162 C 
ATOM     28  C   UNL     1       7.139  -3.902  25.158  0.00  0.00    +0.052 C 
ENDBRANCH  22  24
ENDBRANCH   4  22
TORSDOF 7
ENDMDL
