MODEL 1
REMARK VINA RESULT:      -5.3      0.000      0.000
REMARK  Name = 
REMARK  1 active torsions:
REMARK  status: ('A' for Active; 'I' for Inactive)
REMARK    1  A    between atoms: O_1  and  C_2
REMARK                            x       y       z     vdW  Elec       q    Type
REMARK                         _______ _______ _______ _____ _____    ______ ____
ROOT
ATOM      1  C   UNL     1       9.871  -1.243  23.132  0.00  0.00    +0.161 A 
ATOM      2  C   UNL     1       9.491  -2.121  24.155  0.00  0.00    +0.115 A 
ATOM      3  N   UNL     1       9.800  -3.436  24.075  0.00  0.00    -0.251 NA
ATOM      4  C   UNL     1       9.421  -4.265  25.068  0.00  0.00    +0.111 A 
ATOM      5  C   UNL     1       8.726  -3.850  26.180  0.00  0.00    +0.020 A 
ATOM      6  C   UNL     1       8.405  -2.502  26.275  0.00  0.00    +0.013 A 
ATOM      7  C   UNL     1       8.780  -1.594  25.260  0.00  0.00    +0.022 A 
ATOM      8  C   UNL     1       8.483  -0.207  25.292  0.00  0.00    +0.052 A 
ATOM      9 CL   UNL     1       7.621   0.516  26.611  0.00  0.00    -0.083 Cl
ATOM     10  C   UNL     1       8.870   0.643  24.257  0.00  0.00    +0.044 A 
ATOM     11  C   UNL     1       9.564   0.121  23.179  0.00  0.00    +0.086 A 
ATOM     12 CL   UNL     1      10.040   1.173  21.896  0.00  0.00    -0.080 Cl
ENDROOT
BRANCH   1  13
ATOM     13  O   UNL     1      10.567  -1.746  22.050  0.00  0.00    -0.503 OA
ATOM     14  H   UNL     1      10.822  -1.000  21.480  0.00  0.00    +0.292 HD
ENDBRANCH   1  13
TORSDOF 1
ENDMDL
MODEL 2
REMARK VINA RESULT:      -5.1      3.855      4.937
REMARK  Name = 
REMARK  1 active torsions:
REMARK  status: ('A' for Active; 'I' for Inactive)
REMARK    1  A    between atoms: O_1  and  C_2
REMARK                            x       y       z     vdW  Elec       q    Type
REMARK                         _______ _______ _______ _____ _____    ______ ____
ROOT
ATOM      1  C   UNL     1       6.270  -3.845  22.528  0.00  0.00    +0.161 A 
ATOM      2  C   UNL     1       7.502  -3.262  22.852  0.00  0.00    +0.115 A 
ATOM      3  N   UNL     1       8.037  -2.310  22.053  0.00  0.00    -0.251 NA
ATOM      4  C   UNL     1       9.225  -1.765  22.379  0.00  0.00    +0.111 A 
ATOM      5  C   UNL     1       9.943  -2.122  23.497  0.00  0.00    +0.020 A 
ATOM      6  C   UNL     1       9.403  -3.096  24.327  0.00  0.00    +0.013 A 
ATOM      7  C   UNL     1       8.161  -3.698  24.027  0.00  0.00    +0.022 A 
ATOM      8  C   UNL     1       7.554  -4.699  24.828  0.00  0.00    +0.052 A 
ATOM      9 CL   UNL     1       8.293  -5.283  26.283  0.00  0.00    -0.083 Cl
ATOM     10  C   UNL     1       6.328  -5.265  24.480  0.00  0.00    +0.044 A 
ATOM     11  C   UNL     1       5.690  -4.835  23.328  0.00  0.00    +0.086 A 
ATOM     12 CL   UNL     1       4.175  -5.540  22.895  0.00  0.00    -0.080 Cl
ENDROOT
BRANCH   1  13
ATOM     13  O   UNL     1       5.618  -3.427  21.386  0.00  0.00    -0.503 OA
ATOM     14  H   UNL     1       6.283  -3.285  20.690  0.00  0.00    +0.292 HD
ENDBRANCH   1  13
TORSDOF 1
ENDMDL
MODEL 3
REMARK VINA RESULT:      -5.0      4.382      5.499
REMARK  Name = 
REMARK  1 active torsions:
REMARK  status: ('A' for Active; 'I' for Inactive)
REMARK    1  A    between atoms: O_1  and  C_2
REMARK                            x       y       z     vdW  Elec       q    Type
REMARK                         _______ _______ _______ _____ _____    ______ ____
ROOT
ATOM      1  C   UNL     1       8.240  -4.853  26.296  0.00  0.00    +0.161 A 
ATOM      2  C   UNL     1       7.119  -5.510  26.819  0.00  0.00    +0.115 A 
ATOM      3  N   UNL     1       7.116  -5.935  28.104  0.00  0.00    -0.251 NA
ATOM      4  C   UNL     1       6.030  -6.569  28.587  0.00  0.00    +0.111 A 
ATOM      5  C   UNL     1       4.900  -6.817  27.841  0.00  0.00    +0.020 A 
ATOM      6  C   UNL     1       4.890  -6.383  26.522  0.00  0.00    +0.013 A 
ATOM      7  C   UNL     1       6.006  -5.714  25.969  0.00  0.00    +0.022 A 
ATOM      8  C   UNL     1       6.063  -5.248  24.631  0.00  0.00    +0.052 A 
ATOM      9 CL   UNL     1       4.741  -5.454  23.529  0.00  0.00    -0.083 Cl
ATOM     10  C   UNL     1       7.194  -4.600  24.135  0.00  0.00    +0.044 A 
ATOM     11  C   UNL     1       8.280  -4.405  24.971  0.00  0.00    +0.086 A 
ATOM     12 CL   UNL     1       9.682  -3.607  24.356  0.00  0.00    -0.080 Cl
ENDROOT
BRANCH   1  13
ATOM     13  O   UNL     1       9.332  -4.647  27.116  0.00  0.00    -0.503 OA
ATOM     14  H   UNL     1       9.314  -5.317  27.820  0.00  0.00    +0.292 HD
ENDBRANCH   1  13
TORSDOF 1
ENDMDL
MODEL 4
REMARK VINA RESULT:      -5.0      2.261      2.831
REMARK  Name = 
REMARK  1 active torsions:
REMARK  status: ('A' for Active; 'I' for Inactive)
REMARK    1  A    between atoms: O_1  and  C_2
REMARK                            x       y       z     vdW  Elec       q    Type
REMARK                         _______ _______ _______ _____ _____    ______ ____
ROOT
ATOM      1  C   UNL     1       9.553   1.815  22.889  0.00  0.00    +0.161 A 
ATOM      2  C   UNL     1       9.655   0.444  23.157  0.00  0.00    +0.115 A 
ATOM      3  N   UNL     1      10.270  -0.379  22.276  0.00  0.00    -0.251 NA
ATOM      4  C   UNL     1      10.354  -1.696  22.550  0.00  0.00    +0.111 A 
ATOM      5  C   UNL     1       9.844  -2.268  23.693  0.00  0.00    +0.020 A 
ATOM      6  C   UNL     1       9.212  -1.433  24.606  0.00  0.00    +0.013 A 
ATOM      7  C   UNL     1       9.099  -0.046  24.363  0.00  0.00    +0.022 A 
ATOM      8  C   UNL     1       8.466   0.862  25.250  0.00  0.00    +0.052 A 
ATOM      9 CL   UNL     1       7.765   0.343  26.749  0.00  0.00    -0.083 Cl
ATOM     10  C   UNL     1       8.375   2.222  24.956  0.00  0.00    +0.044 A 
ATOM     11  C   UNL     1       8.920   2.694  23.774  0.00  0.00    +0.086 A 
ATOM     12 CL   UNL     1       8.803   4.377  23.408  0.00  0.00    -0.080 Cl
ENDROOT
BRANCH   1  13
ATOM     13  O   UNL     1      10.093   2.304  21.716  0.00  0.00    -0.503 OA
ATOM     14  H   UNL     1      10.552   3.138  21.918  0.00  0.00    +0.292 HD
ENDBRANCH   1  13
TORSDOF 1
ENDMDL
MODEL 5
REMARK VINA RESULT:      -4.9      4.606      5.531
REMARK  Name = 
REMARK  1 active torsions:
REMARK  status: ('A' for Active; 'I' for Inactive)
REMARK    1  A    between atoms: O_1  and  C_2
REMARK                            x       y       z     vdW  Elec       q    Type
REMARK                         _______ _______ _______ _____ _____    ______ ____
ROOT
ATOM      1  C   UNL     1       5.690  -5.953  23.557  0.00  0.00    +0.161 A 
ATOM      2  C   UNL     1       5.977  -5.802  24.920  0.00  0.00    +0.115 A 
ATOM      3  N   UNL     1       5.141  -6.311  25.853  0.00  0.00    -0.251 NA
ATOM      4  C   UNL     1       5.432  -6.151  27.159  0.00  0.00    +0.111 A 
ATOM      5  C   UNL     1       6.550  -5.490  27.612  0.00  0.00    +0.020 A 
ATOM      6  C   UNL     1       7.418  -4.965  26.663  0.00  0.00    +0.013 A 
ATOM      7  C   UNL     1       7.155  -5.107  25.282  0.00  0.00    +0.022 A 
ATOM      8  C   UNL     1       7.997  -4.593  24.262  0.00  0.00    +0.052 A 
ATOM      9 CL   UNL     1       9.459  -3.735  24.623  0.00  0.00    -0.083 Cl
ATOM     10  C   UNL     1       7.684  -4.755  22.913  0.00  0.00    +0.044 A 
ATOM     11  C   UNL     1       6.529  -5.435  22.565  0.00  0.00    +0.086 A 
ATOM     12 CL   UNL     1       6.140  -5.631  20.894  0.00  0.00    -0.080 Cl
ENDROOT
BRANCH   1  13
ATOM     13  O   UNL     1       4.544  -6.632  23.191  0.00  0.00    -0.503 OA
ATOM     14  H   UNL     1       4.781  -7.281  22.506  0.00  0.00    +0.292 HD
ENDBRANCH   1  13
TORSDOF 1
ENDMDL
MODEL 6
REMARK VINA RESULT:      -4.9      3.397      4.061
REMARK  Name = 
REMARK  1 active torsions:
REMARK  status: ('A' for Active; 'I' for Inactive)
REMARK    1  A    between atoms: O_1  and  C_2
REMARK                            x       y       z     vdW  Elec       q    Type
REMARK                         _______ _______ _______ _____ _____    ______ ____
ROOT
ATOM      1  C   UNL     1       7.209  -1.844  23.390  0.00  0.00    +0.161 A 
ATOM      2  C   UNL     1       7.078  -3.149  22.899  0.00  0.00    +0.115 A 
ATOM      3  N   UNL     1       6.221  -3.413  21.886  0.00  0.00    -0.251 NA
ATOM      4  C   UNL     1       6.106  -4.676  21.430  0.00  0.00    +0.111 A 
ATOM      5  C   UNL     1       6.820  -5.736  21.940  0.00  0.00    +0.020 A 
ATOM      6  C   UNL     1       7.705  -5.477  22.979  0.00  0.00    +0.013 A 
ATOM      7  C   UNL     1       7.860  -4.169  23.491  0.00  0.00    +0.022 A 
ATOM      8  C   UNL     1       8.742  -3.836  24.551  0.00  0.00    +0.052 A 
ATOM      9 CL   UNL     1       9.738  -5.026  25.325  0.00  0.00    -0.083 Cl
ATOM     10  C   UNL     1       8.850  -2.528  25.023  0.00  0.00    +0.044 A 
ATOM     11  C   UNL     1       8.080  -1.536  24.440  0.00  0.00    +0.086 A 
ATOM     12 CL   UNL     1       8.211   0.082  25.028  0.00  0.00    -0.080 Cl
ENDROOT
BRANCH   1  13
ATOM     13  O   UNL     1       6.452  -0.840  22.819  0.00  0.00    -0.503 OA
ATOM     14  H   UNL     1       5.818  -1.249  22.205  0.00  0.00    +0.292 HD
ENDBRANCH   1  13
TORSDOF 1
ENDMDL
MODEL 7
REMARK VINA RESULT:      -4.7      5.078      6.536
REMARK  Name = 
REMARK  1 active torsions:
REMARK  status: ('A' for Active; 'I' for Inactive)
REMARK    1  A    between atoms: O_1  and  C_2
REMARK                            x       y       z     vdW  Elec       q    Type
REMARK                         _______ _______ _______ _____ _____    ______ ____
ROOT
ATOM      1  C   UNL     1       5.528  -6.398  25.897  0.00  0.00    +0.161 A 
ATOM      2  C   UNL     1       6.695  -5.642  25.731  0.00  0.00    +0.115 A 
ATOM      3  N   UNL     1       7.535  -5.447  26.773  0.00  0.00    -0.251 NA
ATOM      4  C   UNL     1       8.651  -4.712  26.593  0.00  0.00    +0.111 A 
ATOM      5  C   UNL     1       8.996  -4.136  25.393  0.00  0.00    +0.020 A 
ATOM      6  C   UNL     1       8.142  -4.331  24.315  0.00  0.00    +0.013 A 
ATOM      7  C   UNL     1       6.960  -5.093  24.453  0.00  0.00    +0.022 A 
ATOM      8  C   UNL     1       6.044  -5.329  23.396  0.00  0.00    +0.052 A 
ATOM      9 CL   UNL     1       6.300  -4.697  21.802  0.00  0.00    -0.083 Cl
ATOM     10  C   UNL     1       4.888  -6.083  23.591  0.00  0.00    +0.044 A 
ATOM     11  C   UNL     1       4.633  -6.615  24.844  0.00  0.00    +0.086 A 
ATOM     12 CL   UNL     1       3.199  -7.545  25.086  0.00  0.00    -0.080 Cl
ENDROOT
BRANCH   1  13
ATOM     13  O   UNL     1       5.259  -6.940  27.139  0.00  0.00    -0.503 OA
ATOM     14  H   UNL     1       4.760  -7.765  27.009  0.00  0.00    +0.292 HD
ENDBRANCH   1  13
TORSDOF 1
ENDMDL
MODEL 8
REMARK VINA RESULT:      -4.7      4.620      5.200
REMARK  Name = 
REMARK  1 active torsions:
REMARK  status: ('A' for Active; 'I' for Inactive)
REMARK    1  A    between atoms: O_1  and  C_2
REMARK                            x       y       z     vdW  Elec       q    Type
REMARK                         _______ _______ _______ _____ _____    ______ ____
ROOT
ATOM      1  C   UNL     1       6.144  -3.912  22.481  0.00  0.00    +0.161 A 
ATOM      2  C   UNL     1       5.389  -4.858  23.184  0.00  0.00    +0.115 A 
ATOM      3  N   UNL     1       4.191  -5.267  22.705  0.00  0.00    -0.251 NA
ATOM      4  C   UNL     1       3.477  -6.175  23.399  0.00  0.00    +0.111 A 
ATOM      5  C   UNL     1       3.898  -6.724  24.588  0.00  0.00    +0.020 A 
ATOM      6  C   UNL     1       5.127  -6.315  25.089  0.00  0.00    +0.013 A 
ATOM      7  C   UNL     1       5.912  -5.365  24.398  0.00  0.00    +0.022 A 
ATOM      8  C   UNL     1       7.173  -4.901  24.854  0.00  0.00    +0.052 A 
ATOM      9 CL   UNL     1       7.884  -5.476  26.326  0.00  0.00    -0.083 Cl
ATOM     10  C   UNL     1       7.902  -3.955  24.135  0.00  0.00    +0.044 A 
ATOM     11  C   UNL     1       7.384  -3.463  22.949  0.00  0.00    +0.086 A 
ATOM     12 CL   UNL     1       8.285  -2.288  22.062  0.00  0.00    -0.080 Cl
ENDROOT
BRANCH   1  13
ATOM     13  O   UNL     1       5.645  -3.412  21.294  0.00  0.00    -0.503 OA
ATOM     14  H   UNL     1       5.957  -3.981  20.569  0.00  0.00    +0.292 HD
ENDBRANCH   1  13
TORSDOF 1
ENDMDL
MODEL 9
REMARK VINA RESULT:      -4.7      2.377      3.948
REMARK  Name = 
REMARK  1 active torsions:
REMARK  status: ('A' for Active; 'I' for Inactive)
REMARK    1  A    between atoms: O_1  and  C_2
REMARK                            x       y       z     vdW  Elec       q    Type
REMARK                         _______ _______ _______ _____ _____    ______ ____
ROOT
ATOM      1  C   UNL     1       8.040  -3.376  23.620  0.00  0.00    +0.161 A 
ATOM      2  C   UNL     1       8.733  -2.192  23.336  0.00  0.00    +0.115 A 
ATOM      3  N   UNL     1       9.064  -1.885  22.060  0.00  0.00    -0.251 NA
ATOM      4  C   UNL     1       9.735  -0.744  21.808  0.00  0.00    +0.111 A 
ATOM      5  C   UNL     1      10.112   0.147  22.786  0.00  0.00    +0.020 A 
ATOM      6  C   UNL     1       9.776  -0.155  24.099  0.00  0.00    +0.013 A 
ATOM      7  C   UNL     1       9.074  -1.340  24.414  0.00  0.00    +0.022 A 
ATOM      8  C   UNL     1       8.702  -1.711  25.732  0.00  0.00    +0.052 A 
ATOM      9 CL   UNL     1       9.076  -0.721  27.104  0.00  0.00    -0.083 Cl
ATOM     10  C   UNL     1       8.015  -2.898  25.986  0.00  0.00    +0.044 A 
ATOM     11  C   UNL     1       7.687  -3.727  24.927  0.00  0.00    +0.086 A 
ATOM     12 CL   UNL     1       6.841  -5.198  25.243  0.00  0.00    -0.080 Cl
ENDROOT
BRANCH   1  13
ATOM     13  O   UNL     1       7.701  -4.214  22.576  0.00  0.00    -0.503 OA
ATOM     14  H   UNL     1       6.832  -3.939  22.236  0.00  0.00    +0.292 HD
ENDBRANCH   1  13
TORSDOF 1
ENDMDL
