MODEL 1
REMARK VINA RESULT:      -6.4      0.000      0.000
REMARK  Name = 
REMARK  17 active torsions:
REMARK  status: ('A' for Active; 'I' for Inactive)
REMARK    1  A    between atoms: O_1  and  C_2
REMARK    2  A    between atoms: C_2  and  C_3
REMARK    3  A    between atoms: C_3  and  O_5
REMARK    4  A    between atoms: C_3  and  C_6
REMARK    5  A    between atoms: C_6  and  O_8
REMARK    6  A    between atoms: C_6  and  C_9
REMARK    7  A    between atoms: C_9  and  O_11
REMARK    8  A    between atoms: C_9  and  C_12
REMARK    9  A    between atoms: C_12  and  N_13
REMARK   10  A    between atoms: N_16  and  C_17
REMARK   11  A    between atoms: C_17  and  C_18
REMARK   12  A    between atoms: C_18  and  C_19
REMARK   13  A    between atoms: C_19  and  C_20
REMARK   14  A    between atoms: C_20  and  O_21
REMARK   15  A    between atoms: O_21  and  P_22
REMARK   16  A    between atoms: P_22  and  O_23
REMARK   17  A    between atoms: P_22  and  O_24
REMARK                            x       y       z     vdW  Elec       q    Type
REMARK                         _______ _______ _______ _____ _____    ______ ____
ROOT
ATOM      1  N   UNL     1       7.041  -2.112  24.874  0.00  0.00    -0.275 N 
ATOM      2  C   UNL     1       7.614  -3.306  25.216  0.00  0.00    +0.149 A 
ATOM      3  N   UNL     1       8.887  -3.695  25.007  0.00  0.00    -0.292 N 
ATOM      4  H   UNL     1       9.497  -3.111  24.439  0.00  0.00    +0.172 HD
ATOM      5  C   UNL     1       9.353  -4.925  25.415  0.00  0.00    +0.328 A 
ATOM      6  N   UNL     1       8.451  -5.696  26.108  0.00  0.00    -0.273 N 
ATOM      7  H   UNL     1       8.784  -6.588  26.432  0.00  0.00    +0.173 HD
ATOM      8  C   UNL     1       7.133  -5.370  26.367  0.00  0.00    +0.280 A 
ATOM      9  O   UNL     1       6.384  -6.113  27.002  0.00  0.00    -0.265 OA
ATOM     10  O   UNL     1      10.494  -5.305  25.174  0.00  0.00    -0.247 OA
ATOM     11  C   UNL     1       6.711  -4.070  25.836  0.00  0.00    +0.152 A 
ATOM     12  N   UNL     1       5.506  -3.409  25.882  0.00  0.00    -0.286 N 
ATOM     13  C   UNL     1       5.690  -2.127  25.299  0.00  0.00    +0.331 A 
ATOM     14  O   UNL     1       4.878  -1.220  25.220  0.00  0.00    -0.246 OA
ENDROOT
BRANCH  12  15
ATOM     15  C   UNL     1       4.334  -3.754  26.649  0.00  0.00    +0.127 C 
BRANCH  15  16
ATOM     16  C   UNL     1       3.179  -4.087  25.714  0.00  0.00    +0.024 C 
BRANCH  16  17
ATOM     17  C   UNL     1       3.443  -5.292  24.808  0.00  0.00    +0.030 C 
BRANCH  17  18
ATOM     18  C   UNL     1       3.344  -4.865  23.346  0.00  0.00    +0.172 C 
BRANCH  18  19
ATOM     19  O   UNL     1       4.111  -5.781  22.579  0.00  0.00    -0.287 OA
BRANCH  19  20
ATOM     20  P   UNL     1       5.801  -5.425  22.470  0.00  0.00    +0.472 P 
ATOM     21  O   UNL     1       7.313  -5.107  22.373  0.00  0.00    -0.228 OA
BRANCH  20  22
ATOM     22  O   UNL     1       5.709  -6.069  20.969  0.00  0.00    -0.303 OA
ATOM     23  H   UNL     1       5.063  -6.798  20.965  0.00  0.00    +0.222 HD
ENDBRANCH  20  22
BRANCH  20  24
ATOM     24  O   UNL     1       5.302  -3.917  22.094  0.00  0.00    -0.303 OA
ATOM     25  H   UNL     1       4.808  -3.968  21.256  0.00  0.00    +0.222 HD
ENDBRANCH  20  24
ENDBRANCH  19  20
ENDBRANCH  18  19
ENDBRANCH  17  18
ENDBRANCH  16  17
ENDBRANCH  15  16
ENDBRANCH  12  15
BRANCH   1  26
ATOM     26  C   UNL     1       7.722  -0.916  24.432  0.00  0.00    +0.162 C 
BRANCH  26  27
ATOM     27  C   UNL     1       7.903  -0.845  22.914  0.00  0.00    +0.165 C 
BRANCH  27  28
ATOM     28  O   UNL     1       7.889  -2.195  22.383  0.00  0.00    -0.387 OA
ATOM     29  H   UNL     1       8.770  -2.350  21.998  0.00  0.00    +0.210 HD
ENDBRANCH  27  28
BRANCH  27  30
ATOM     30  C   UNL     1       9.238  -0.209  22.468  0.00  0.00    +0.175 C 
BRANCH  30  31
ATOM     31  O   UNL     1       9.440  -0.560  21.086  0.00  0.00    -0.387 OA
ATOM     32  H   UNL     1      10.389  -0.734  20.964  0.00  0.00    +0.210 HD
ENDBRANCH  30  31
BRANCH  30  33
ATOM     33  C   UNL     1       9.388   1.314  22.624  0.00  0.00    +0.171 C 
BRANCH  33  34
ATOM     34  O   UNL     1       9.865   1.907  21.410  0.00  0.00    -0.387 OA
ATOM     35  H   UNL     1       9.263   1.569  20.712  0.00  0.00    +0.210 HD
ENDBRANCH  33  34
BRANCH  33  36
ATOM     36  C   UNL     1      10.282   1.747  23.789  0.00  0.00    +0.189 C 
BRANCH  36  37
ATOM     37  O   UNL     1      11.052   0.608  24.190  0.00  0.00    -0.392 OA
ATOM     38  H   UNL     1      10.730   0.343  25.070  0.00  0.00    +0.210 HD
ENDBRANCH  36  37
ENDBRANCH  33  36
ENDBRANCH  30  33
ENDBRANCH  27  30
ENDBRANCH  26  27
ENDBRANCH   1  26
TORSDOF 17
ENDMDL
MODEL 2
REMARK VINA RESULT:      -6.3      2.043      3.439
REMARK  Name = 
REMARK  17 active torsions:
REMARK  status: ('A' for Active; 'I' for Inactive)
REMARK    1  A    between atoms: O_1  and  C_2
REMARK    2  A    between atoms: C_2  and  C_3
REMARK    3  A    between atoms: C_3  and  O_5
REMARK    4  A    between atoms: C_3  and  C_6
REMARK    5  A    between atoms: C_6  and  O_8
REMARK    6  A    between atoms: C_6  and  C_9
REMARK    7  A    between atoms: C_9  and  O_11
REMARK    8  A    between atoms: C_9  and  C_12
REMARK    9  A    between atoms: C_12  and  N_13
REMARK   10  A    between atoms: N_16  and  C_17
REMARK   11  A    between atoms: C_17  and  C_18
REMARK   12  A    between atoms: C_18  and  C_19
REMARK   13  A    between atoms: C_19  and  C_20
REMARK   14  A    between atoms: C_20  and  O_21
REMARK   15  A    between atoms: O_21  and  P_22
REMARK   16  A    between atoms: P_22  and  O_23
REMARK   17  A    between atoms: P_22  and  O_24
REMARK                            x       y       z     vdW  Elec       q    Type
REMARK                         _______ _______ _______ _____ _____    ______ ____
ROOT
ATOM      1  N   UNL     1       5.847  -2.400  23.497  0.00  0.00    -0.275 N 
ATOM      2  C   UNL     1       5.717  -3.672  23.011  0.00  0.00    +0.149 A 
ATOM      3  N   UNL     1       6.255  -4.179  21.884  0.00  0.00    -0.292 N 
ATOM      4  H   UNL     1       6.728  -3.554  21.236  0.00  0.00    +0.172 HD
ATOM      5  C   UNL     1       6.063  -5.490  21.509  0.00  0.00    +0.328 A 
ATOM      6  N   UNL     1       5.346  -6.258  22.394  0.00  0.00    -0.273 N 
ATOM      7  H   UNL     1       5.216  -7.223  22.143  0.00  0.00    +0.173 HD
ATOM      8  C   UNL     1       4.766  -5.817  23.568  0.00  0.00    +0.280 A 
ATOM      9  O   UNL     1       4.140  -6.569  24.317  0.00  0.00    -0.265 OA
ATOM     10  O   UNL     1       6.502  -5.938  20.455  0.00  0.00    -0.247 OA
ATOM     11  C   UNL     1       4.968  -4.391  23.850  0.00  0.00    +0.152 A 
ATOM     12  N   UNL     1       4.554  -3.596  24.892  0.00  0.00    -0.286 N 
ATOM     13  C   UNL     1       5.130  -2.310  24.714  0.00  0.00    +0.331 A 
ATOM     14  O   UNL     1       5.060  -1.351  25.465  0.00  0.00    -0.246 OA
ENDROOT
BRANCH  12  15
ATOM     15  C   UNL     1       3.932  -4.006  26.128  0.00  0.00    +0.127 C 
BRANCH  15  16
ATOM     16  C   UNL     1       4.984  -4.139  27.222  0.00  0.00    +0.024 C 
BRANCH  16  17
ATOM     17  C   UNL     1       5.678  -5.502  27.251  0.00  0.00    +0.030 C 
BRANCH  17  18
ATOM     18  C   UNL     1       7.188  -5.310  27.139  0.00  0.00    +0.172 C 
BRANCH  18  19
ATOM     19  O   UNL     1       7.581  -5.742  25.845  0.00  0.00    -0.287 OA
BRANCH  19  20
ATOM     20  P   UNL     1       8.912  -4.883  25.148  0.00  0.00    +0.472 P 
ATOM     21  O   UNL     1      10.103  -4.115  24.525  0.00  0.00    -0.228 OA
BRANCH  20  22
ATOM     22  O   UNL     1       9.818  -6.160  25.624  0.00  0.00    -0.303 OA
ATOM     23  H   UNL     1      10.011  -6.728  24.857  0.00  0.00    +0.222 HD
ENDBRANCH  20  22
BRANCH  20  24
ATOM     24  O   UNL     1       8.376  -5.507  23.738  0.00  0.00    -0.303 OA
ATOM     25  H   UNL     1       7.657  -4.934  23.414  0.00  0.00    +0.222 HD
ENDBRANCH  20  24
ENDBRANCH  19  20
ENDBRANCH  18  19
ENDBRANCH  17  18
ENDBRANCH  16  17
ENDBRANCH  15  16
ENDBRANCH  12  15
BRANCH   1  26
ATOM     26  C   UNL     1       6.776  -1.388  23.045  0.00  0.00    +0.162 C 
BRANCH  26  27
ATOM     27  C   UNL     1       7.999  -1.236  23.953  0.00  0.00    +0.165 C 
BRANCH  27  28
ATOM     28  O   UNL     1       7.715  -0.212  24.942  0.00  0.00    -0.387 OA
ATOM     29  H   UNL     1       8.416  -0.276  25.615  0.00  0.00    +0.210 HD
ENDBRANCH  27  28
BRANCH  27  30
ATOM     30  C   UNL     1       9.280  -0.792  23.213  0.00  0.00    +0.175 C 
BRANCH  30  31
ATOM     31  O   UNL     1      10.011  -1.984  22.870  0.00  0.00    -0.387 OA
ATOM     32  H   UNL     1       9.902  -2.129  21.914  0.00  0.00    +0.210 HD
ENDBRANCH  30  31
BRANCH  30  33
ATOM     33  C   UNL     1       9.110   0.071  21.951  0.00  0.00    +0.171 C 
BRANCH  33  34
ATOM     34  O   UNL     1       9.442  -0.675  20.774  0.00  0.00    -0.387 OA
ATOM     35  H   UNL     1       9.450  -0.013  20.050  0.00  0.00    +0.210 HD
ENDBRANCH  33  34
BRANCH  33  36
ATOM     36  C   UNL     1       9.904   1.380  21.966  0.00  0.00    +0.189 C 
BRANCH  36  37
ATOM     37  O   UNL     1       9.001   2.436  21.616  0.00  0.00    -0.392 OA
ATOM     38  H   UNL     1       8.458   2.111  20.876  0.00  0.00    +0.210 HD
ENDBRANCH  36  37
ENDBRANCH  33  36
ENDBRANCH  30  33
ENDBRANCH  27  30
ENDBRANCH  26  27
ENDBRANCH   1  26
TORSDOF 17
ENDMDL
MODEL 3
REMARK VINA RESULT:      -6.3      2.482      7.132
REMARK  Name = 
REMARK  17 active torsions:
REMARK  status: ('A' for Active; 'I' for Inactive)
REMARK    1  A    between atoms: O_1  and  C_2
REMARK    2  A    between atoms: C_2  and  C_3
REMARK    3  A    between atoms: C_3  and  O_5
REMARK    4  A    between atoms: C_3  and  C_6
REMARK    5  A    between atoms: C_6  and  O_8
REMARK    6  A    between atoms: C_6  and  C_9
REMARK    7  A    between atoms: C_9  and  O_11
REMARK    8  A    between atoms: C_9  and  C_12
REMARK    9  A    between atoms: C_12  and  N_13
REMARK   10  A    between atoms: N_16  and  C_17
REMARK   11  A    between atoms: C_17  and  C_18
REMARK   12  A    between atoms: C_18  and  C_19
REMARK   13  A    between atoms: C_19  and  C_20
REMARK   14  A    between atoms: C_20  and  O_21
REMARK   15  A    between atoms: O_21  and  P_22
REMARK   16  A    between atoms: P_22  and  O_23
REMARK   17  A    between atoms: P_22  and  O_24
REMARK                            x       y       z     vdW  Elec       q    Type
REMARK                         _______ _______ _______ _____ _____    ______ ____
ROOT
ATOM      1  N   UNL     1       5.263  -4.122  24.260  0.00  0.00    -0.275 N 
ATOM      2  C   UNL     1       6.279  -4.522  25.084  0.00  0.00    +0.149 A 
ATOM      3  N   UNL     1       6.172  -5.152  26.271  0.00  0.00    -0.292 N 
ATOM      4  H   UNL     1       5.253  -5.266  26.691  0.00  0.00    +0.172 HD
ATOM      5  C   UNL     1       7.278  -5.520  27.004  0.00  0.00    +0.328 A 
ATOM      6  N   UNL     1       8.490  -5.264  26.412  0.00  0.00    -0.273 N 
ATOM      7  H   UNL     1       9.307  -5.547  26.927  0.00  0.00    +0.173 HD
ATOM      8  C   UNL     1       8.685  -4.627  25.201  0.00  0.00    +0.280 A 
ATOM      9  O   UNL     1       9.807  -4.437  24.730  0.00  0.00    -0.265 OA
ATOM     10  O   UNL     1       7.183  -6.041  28.112  0.00  0.00    -0.247 OA
ATOM     11  C   UNL     1       7.451  -4.213  24.525  0.00  0.00    +0.152 A 
ATOM     12  N   UNL     1       7.233  -3.564  23.332  0.00  0.00    -0.286 N 
ATOM     13  C   UNL     1       5.831  -3.516  23.113  0.00  0.00    +0.331 A 
ATOM     14  O   UNL     1       5.244  -3.088  22.132  0.00  0.00    -0.246 OA
ENDROOT
BRANCH  12  15
ATOM     15  C   UNL     1       8.194  -3.261  22.299  0.00  0.00    +0.127 C 
BRANCH  15  16
ATOM     16  C   UNL     1       8.414  -1.755  22.219  0.00  0.00    +0.024 C 
BRANCH  16  17
ATOM     17  C   UNL     1       9.888  -1.345  22.194  0.00  0.00    +0.030 C 
BRANCH  17  18
ATOM     18  C   UNL     1      10.007   0.156  22.445  0.00  0.00    +0.172 C 
BRANCH  18  19
ATOM     19  O   UNL     1       8.787   0.592  23.025  0.00  0.00    -0.287 OA
BRANCH  19  20
ATOM     20  P   UNL     1       8.337   2.224  22.668  0.00  0.00    +0.472 P 
ATOM     21  O   UNL     1       7.935   3.685  22.349  0.00  0.00    -0.228 OA
BRANCH  20  22
ATOM     22  O   UNL     1       9.266   2.053  21.332  0.00  0.00    -0.303 OA
ATOM     23  H   UNL     1      10.030   2.653  21.386  0.00  0.00    +0.222 HD
ENDBRANCH  20  22
BRANCH  20  24
ATOM     24  O   UNL     1       6.972   1.555  22.074  0.00  0.00    -0.303 OA
ATOM     25  H   UNL     1       6.877   1.844  21.148  0.00  0.00    +0.222 HD
ENDBRANCH  20  24
ENDBRANCH  19  20
ENDBRANCH  18  19
ENDBRANCH  17  18
ENDBRANCH  16  17
ENDBRANCH  15  16
ENDBRANCH  12  15
BRANCH   1  26
ATOM     26  C   UNL     1       3.869  -4.492  24.356  0.00  0.00    +0.162 C 
BRANCH  26  27
ATOM     27  C   UNL     1       3.465  -5.598  23.378  0.00  0.00    +0.165 C 
BRANCH  27  28
ATOM     28  O   UNL     1       2.139  -5.302  22.867  0.00  0.00    -0.387 OA
ATOM     29  H   UNL     1       2.258  -5.003  21.948  0.00  0.00    +0.210 HD
ENDBRANCH  27  28
BRANCH  27  30
ATOM     30  C   UNL     1       3.388  -7.003  24.016  0.00  0.00    +0.175 C 
BRANCH  30  31
ATOM     31  O   UNL     1       4.698  -7.592  23.912  0.00  0.00    -0.387 OA
ATOM     32  H   UNL     1       4.971  -7.860  24.807  0.00  0.00    +0.210 HD
ENDBRANCH  30  31
BRANCH  30  33
ATOM     33  C   UNL     1       2.912  -7.097  25.475  0.00  0.00    +0.171 C 
BRANCH  33  34
ATOM     34  O   UNL     1       4.019  -7.308  26.361  0.00  0.00    -0.387 OA
ATOM     35  H   UNL     1       4.287  -8.240  26.210  0.00  0.00    +0.210 HD
ENDBRANCH  33  34
BRANCH  33  36
ATOM     36  C   UNL     1       1.846  -8.167  25.727  0.00  0.00    +0.189 C 
BRANCH  36  37
ATOM     37  O   UNL     1       2.366  -9.415  25.253  0.00  0.00    -0.392 OA
ATOM     38  H   UNL     1       2.220  -9.434  24.290  0.00  0.00    +0.210 HD
ENDBRANCH  36  37
ENDBRANCH  33  36
ENDBRANCH  30  33
ENDBRANCH  27  30
ENDBRANCH  26  27
ENDBRANCH   1  26
TORSDOF 17
ENDMDL
MODEL 4
REMARK VINA RESULT:      -6.2      1.527      2.236
REMARK  Name = 
REMARK  17 active torsions:
REMARK  status: ('A' for Active; 'I' for Inactive)
REMARK    1  A    between atoms: O_1  and  C_2
REMARK    2  A    between atoms: C_2  and  C_3
REMARK    3  A    between atoms: C_3  and  O_5
REMARK    4  A    between atoms: C_3  and  C_6
REMARK    5  A    between atoms: C_6  and  O_8
REMARK    6  A    between atoms: C_6  and  C_9
REMARK    7  A    between atoms: C_9  and  O_11
REMARK    8  A    between atoms: C_9  and  C_12
REMARK    9  A    between atoms: C_12  and  N_13
REMARK   10  A    between atoms: N_16  and  C_17
REMARK   11  A    between atoms: C_17  and  C_18
REMARK   12  A    between atoms: C_18  and  C_19
REMARK   13  A    between atoms: C_19  and  C_20
REMARK   14  A    between atoms: C_20  and  O_21
REMARK   15  A    between atoms: O_21  and  P_22
REMARK   16  A    between atoms: P_22  and  O_23
REMARK   17  A    between atoms: P_22  and  O_24
REMARK                            x       y       z     vdW  Elec       q    Type
REMARK                         _______ _______ _______ _____ _____    ______ ____
ROOT
ATOM      1  N   UNL     1       6.151  -2.824  24.597  0.00  0.00    -0.275 N 
ATOM      2  C   UNL     1       7.112  -3.655  25.105  0.00  0.00    +0.149 A 
ATOM      3  N   UNL     1       8.356  -3.857  24.628  0.00  0.00    -0.292 N 
ATOM      4  H   UNL     1       8.617  -3.452  23.733  0.00  0.00    +0.172 HD
ATOM      5  C   UNL     1       9.244  -4.713  25.243  0.00  0.00    +0.328 A 
ATOM      6  N   UNL     1       8.797  -5.287  26.408  0.00  0.00    -0.273 N 
ATOM      7  H   UNL     1       9.443  -5.898  26.880  0.00  0.00    +0.173 HD
ATOM      8  C   UNL     1       7.542  -5.129  26.964  0.00  0.00    +0.280 A 
ATOM      9  O   UNL     1       7.215  -5.675  28.019  0.00  0.00    -0.265 OA
ATOM     10  O   UNL     1      10.356  -4.944  24.779  0.00  0.00    -0.247 OA
ATOM     11  C   UNL     1       6.645  -4.253  26.203  0.00  0.00    +0.152 A 
ATOM     12  N   UNL     1       5.346  -3.859  26.422  0.00  0.00    -0.286 N 
ATOM     13  C   UNL     1       5.004  -2.911  25.422  0.00  0.00    +0.331 A 
ATOM     14  O   UNL     1       3.967  -2.276  25.320  0.00  0.00    -0.246 OA
ENDROOT
BRANCH  12  15
ATOM     15  C   UNL     1       4.542  -4.071  27.602  0.00  0.00    +0.127 C 
BRANCH  15  16
ATOM     16  C   UNL     1       3.907  -5.455  27.557  0.00  0.00    +0.024 C 
BRANCH  16  17
ATOM     17  C   UNL     1       3.549  -5.927  26.146  0.00  0.00    +0.030 C 
BRANCH  17  18
ATOM     18  C   UNL     1       4.257  -7.247  25.852  0.00  0.00    +0.172 C 
BRANCH  18  19
ATOM     19  O   UNL     1       4.218  -7.452  24.448  0.00  0.00    -0.287 OA
BRANCH  19  20
ATOM     20  P   UNL     1       4.102  -6.014  23.491  0.00  0.00    +0.472 P 
ATOM     21  O   UNL     1       3.998  -4.728  22.635  0.00  0.00    -0.228 OA
BRANCH  20  22
ATOM     22  O   UNL     1       5.418  -6.585  22.705  0.00  0.00    -0.303 OA
ATOM     23  H   UNL     1       5.669  -7.451  23.073  0.00  0.00    +0.222 HD
ENDBRANCH  20  22
BRANCH  20  24
ATOM     24  O   UNL     1       2.970  -6.845  22.658  0.00  0.00    -0.303 OA
ATOM     25  H   UNL     1       2.476  -6.209  22.111  0.00  0.00    +0.222 HD
ENDBRANCH  20  24
ENDBRANCH  19  20
ENDBRANCH  18  19
ENDBRANCH  17  18
ENDBRANCH  16  17
ENDBRANCH  15  16
ENDBRANCH  12  15
BRANCH   1  26
ATOM     26  C   UNL     1       6.328  -1.807  23.586  0.00  0.00    +0.162 C 
BRANCH  26  27
ATOM     27  C   UNL     1       6.879  -0.489  24.138  0.00  0.00    +0.165 C 
BRANCH  27  28
ATOM     28  O   UNL     1       6.157   0.608  23.521  0.00  0.00    -0.387 OA
ATOM     29  H   UNL     1       5.638   1.029  24.229  0.00  0.00    +0.210 HD
ENDBRANCH  27  28
BRANCH  27  30
ATOM     30  C   UNL     1       8.376  -0.258  23.836  0.00  0.00    +0.175 C 
BRANCH  30  31
ATOM     31  O   UNL     1       9.124  -0.801  24.940  0.00  0.00    -0.387 OA
ATOM     32  H   UNL     1       9.792  -1.406  24.571  0.00  0.00    +0.210 HD
ENDBRANCH  30  31
BRANCH  30  33
ATOM     33  C   UNL     1       8.934  -0.832  22.523  0.00  0.00    +0.171 C 
BRANCH  33  34
ATOM     34  O   UNL     1       9.759  -1.975  22.775  0.00  0.00    -0.387 OA
ATOM     35  H   UNL     1       9.131  -2.689  23.018  0.00  0.00    +0.210 HD
ENDBRANCH  33  34
BRANCH  33  36
ATOM     36  C   UNL     1       9.707   0.176  21.668  0.00  0.00    +0.189 C 
BRANCH  36  37
ATOM     37  O   UNL     1       8.770   1.155  21.202  0.00  0.00    -0.392 OA
ATOM     38  H   UNL     1       9.115   1.498  20.358  0.00  0.00    +0.210 HD
ENDBRANCH  36  37
ENDBRANCH  33  36
ENDBRANCH  30  33
ENDBRANCH  27  30
ENDBRANCH  26  27
ENDBRANCH   1  26
TORSDOF 17
ENDMDL
MODEL 5
REMARK VINA RESULT:      -6.2      2.231      3.695
REMARK  Name = 
REMARK  17 active torsions:
REMARK  status: ('A' for Active; 'I' for Inactive)
REMARK    1  A    between atoms: O_1  and  C_2
REMARK    2  A    between atoms: C_2  and  C_3
REMARK    3  A    between atoms: C_3  and  O_5
REMARK    4  A    between atoms: C_3  and  C_6
REMARK    5  A    between atoms: C_6  and  O_8
REMARK    6  A    between atoms: C_6  and  C_9
REMARK    7  A    between atoms: C_9  and  O_11
REMARK    8  A    between atoms: C_9  and  C_12
REMARK    9  A    between atoms: C_12  and  N_13
REMARK   10  A    between atoms: N_16  and  C_17
REMARK   11  A    between atoms: C_17  and  C_18
REMARK   12  A    between atoms: C_18  and  C_19
REMARK   13  A    between atoms: C_19  and  C_20
REMARK   14  A    between atoms: C_20  and  O_21
REMARK   15  A    between atoms: O_21  and  P_22
REMARK   16  A    between atoms: P_22  and  O_23
REMARK   17  A    between atoms: P_22  and  O_24
REMARK                            x       y       z     vdW  Elec       q    Type
REMARK                         _______ _______ _______ _____ _____    ______ ____
ROOT
ATOM      1  N   UNL     1       7.848  -3.956  24.191  0.00  0.00    -0.275 N 
ATOM      2  C   UNL     1       7.007  -4.695  23.405  0.00  0.00    +0.149 A 
ATOM      3  N   UNL     1       6.978  -4.746  22.058  0.00  0.00    -0.292 N 
ATOM      4  H   UNL     1       7.553  -4.100  21.524  0.00  0.00    +0.172 HD
ATOM      5  C   UNL     1       6.089  -5.548  21.377  0.00  0.00    +0.328 A 
ATOM      6  N   UNL     1       5.285  -6.338  22.163  0.00  0.00    -0.273 N 
ATOM      7  H   UNL     1       4.646  -6.944  21.678  0.00  0.00    +0.173 HD
ATOM      8  C   UNL     1       5.256  -6.347  23.545  0.00  0.00    +0.280 A 
ATOM      9  O   UNL     1       4.509  -7.090  24.183  0.00  0.00    -0.265 OA
ATOM     10  O   UNL     1       6.020  -5.553  20.152  0.00  0.00    -0.247 OA
ATOM     11  C   UNL     1       6.191  -5.412  24.181  0.00  0.00    +0.152 A 
ATOM     12  N   UNL     1       6.451  -5.132  25.501  0.00  0.00    -0.286 N 
ATOM     13  C   UNL     1       7.537  -4.219  25.547  0.00  0.00    +0.331 A 
ATOM     14  O   UNL     1       8.109  -3.789  26.536  0.00  0.00    -0.246 OA
ENDROOT
BRANCH  12  15
ATOM     15  C   UNL     1       5.977  -5.838  26.667  0.00  0.00    +0.127 C 
BRANCH  15  16
ATOM     16  C   UNL     1       5.029  -4.950  27.464  0.00  0.00    +0.024 C 
BRANCH  16  17
ATOM     17  C   UNL     1       3.997  -4.217  26.604  0.00  0.00    +0.030 C 
BRANCH  17  18
ATOM     18  C   UNL     1       3.874  -2.770  27.073  0.00  0.00    +0.172 C 
BRANCH  18  19
ATOM     19  O   UNL     1       3.939  -1.939  25.924  0.00  0.00    -0.287 OA
BRANCH  19  20
ATOM     20  P   UNL     1       5.438  -1.106  25.694  0.00  0.00    +0.472 P 
ATOM     21  O   UNL     1       6.780  -0.362  25.488  0.00  0.00    -0.228 OA
BRANCH  20  22
ATOM     22  O   UNL     1       5.312  -1.578  24.132  0.00  0.00    -0.303 OA
ATOM     23  H   UNL     1       4.677  -1.004  23.668  0.00  0.00    +0.222 HD
ENDBRANCH  20  22
BRANCH  20  24
ATOM     24  O   UNL     1       4.505   0.229  25.598  0.00  0.00    -0.303 OA
ATOM     25  H   UNL     1       3.769   0.124  26.228  0.00  0.00    +0.222 HD
ENDBRANCH  20  24
ENDBRANCH  19  20
ENDBRANCH  18  19
ENDBRANCH  17  18
ENDBRANCH  16  17
ENDBRANCH  15  16
ENDBRANCH  12  15
BRANCH   1  26
ATOM     26  C   UNL     1       9.040  -3.255  23.770  0.00  0.00    +0.162 C 
BRANCH  26  27
ATOM     27  C   UNL     1       8.832  -1.747  23.601  0.00  0.00    +0.165 C 
BRANCH  27  28
ATOM     28  O   UNL     1       7.781  -1.533  22.623  0.00  0.00    -0.387 OA
ATOM     29  H   UNL     1       8.219  -1.212  21.815  0.00  0.00    +0.210 HD
ENDBRANCH  27  28
BRANCH  27  30
ATOM     30  C   UNL     1      10.078  -0.995  23.083  0.00  0.00    +0.175 C 
BRANCH  30  31
ATOM     31  O   UNL     1      10.266  -1.375  21.707  0.00  0.00    -0.387 OA
ATOM     32  H   UNL     1      11.132  -1.032  21.425  0.00  0.00    +0.210 HD
ENDBRANCH  30  31
BRANCH  30  33
ATOM     33  C   UNL     1      10.074   0.540  23.182  0.00  0.00    +0.171 C 
BRANCH  33  34
ATOM     34  O   UNL     1       8.968   0.999  23.966  0.00  0.00    -0.387 OA
ATOM     35  H   UNL     1       8.711   0.227  24.516  0.00  0.00    +0.210 HD
ENDBRANCH  33  34
BRANCH  33  36
ATOM     36  C   UNL     1      10.077   1.262  21.831  0.00  0.00    +0.189 C 
BRANCH  36  37
ATOM     37  O   UNL     1       8.851   0.937  21.165  0.00  0.00    -0.392 OA
ATOM     38  H   UNL     1       9.049   0.215  20.543  0.00  0.00    +0.210 HD
ENDBRANCH  36  37
ENDBRANCH  33  36
ENDBRANCH  30  33
ENDBRANCH  27  30
ENDBRANCH  26  27
ENDBRANCH   1  26
TORSDOF 17
ENDMDL
MODEL 6
REMARK VINA RESULT:      -6.1      2.547      4.187
REMARK  Name = 
REMARK  17 active torsions:
REMARK  status: ('A' for Active; 'I' for Inactive)
REMARK    1  A    between atoms: O_1  and  C_2
REMARK    2  A    between atoms: C_2  and  C_3
REMARK    3  A    between atoms: C_3  and  O_5
REMARK    4  A    between atoms: C_3  and  C_6
REMARK    5  A    between atoms: C_6  and  O_8
REMARK    6  A    between atoms: C_6  and  C_9
REMARK    7  A    between atoms: C_9  and  O_11
REMARK    8  A    between atoms: C_9  and  C_12
REMARK    9  A    between atoms: C_12  and  N_13
REMARK   10  A    between atoms: N_16  and  C_17
REMARK   11  A    between atoms: C_17  and  C_18
REMARK   12  A    between atoms: C_18  and  C_19
REMARK   13  A    between atoms: C_19  and  C_20
REMARK   14  A    between atoms: C_20  and  O_21
REMARK   15  A    between atoms: O_21  and  P_22
REMARK   16  A    between atoms: P_22  and  O_23
REMARK   17  A    between atoms: P_22  and  O_24
REMARK                            x       y       z     vdW  Elec       q    Type
REMARK                         _______ _______ _______ _____ _____    ______ ____
ROOT
ATOM      1  N   UNL     1       9.840  -0.504  24.002  0.00  0.00    -0.275 N 
ATOM      2  C   UNL     1       8.960  -0.705  25.029  0.00  0.00    +0.149 A 
ATOM      3  N   UNL     1       8.749   0.091  26.095  0.00  0.00    -0.292 N 
ATOM      4  H   UNL     1       9.364   0.885  26.252  0.00  0.00    +0.172 HD
ATOM      5  C   UNL     1       7.815  -0.214  27.061  0.00  0.00    +0.328 A 
ATOM      6  N   UNL     1       7.072  -1.345  26.826  0.00  0.00    -0.273 N 
ATOM      7  H   UNL     1       6.372  -1.568  27.513  0.00  0.00    +0.173 HD
ATOM      8  C   UNL     1       7.224  -2.211  25.759  0.00  0.00    +0.280 A 
ATOM      9  O   UNL     1       6.513  -3.206  25.613  0.00  0.00    -0.265 OA
ATOM     10  O   UNL     1       7.662   0.478  28.063  0.00  0.00    -0.247 OA
ATOM     11  C   UNL     1       8.286  -1.839  24.819  0.00  0.00    +0.152 A 
ATOM     12  N   UNL     1       8.736  -2.432  23.664  0.00  0.00    -0.286 N 
ATOM     13  C   UNL     1       9.719  -1.582  23.091  0.00  0.00    +0.331 A 
ATOM     14  O   UNL     1      10.299  -1.723  22.027  0.00  0.00    -0.246 OA
ENDROOT
BRANCH  12  15
ATOM     15  C   UNL     1       8.143  -3.532  22.943  0.00  0.00    +0.127 C 
BRANCH  15  16
ATOM     16  C   UNL     1       6.923  -3.049  22.168  0.00  0.00    +0.024 C 
BRANCH  16  17
ATOM     17  C   UNL     1       5.829  -4.108  22.011  0.00  0.00    +0.030 C 
BRANCH  17  18
ATOM     18  C   UNL     1       6.463  -5.454  21.671  0.00  0.00    +0.172 C 
BRANCH  18  19
ATOM     19  O   UNL     1       6.080  -6.376  22.679  0.00  0.00    -0.287 OA
BRANCH  19  20
ATOM     20  P   UNL     1       4.769  -5.870  23.689  0.00  0.00    +0.472 P 
ATOM     21  O   UNL     1       3.595  -5.418  24.592  0.00  0.00    -0.228 OA
BRANCH  20  22
ATOM     22  O   UNL     1       4.418  -7.463  23.812  0.00  0.00    -0.303 OA
ATOM     23  H   UNL     1       5.142  -7.923  24.271  0.00  0.00    +0.222 HD
ENDBRANCH  20  22
BRANCH  20  24
ATOM     24  O   UNL     1       5.901  -5.803  24.862  0.00  0.00    -0.303 OA
ATOM     25  H   UNL     1       5.618  -6.394  25.584  0.00  0.00    +0.222 HD
ENDBRANCH  20  24
ENDBRANCH  19  20
ENDBRANCH  18  19
ENDBRANCH  17  18
ENDBRANCH  16  17
ENDBRANCH  15  16
ENDBRANCH  12  15
BRANCH   1  26
ATOM     26  C   UNL     1      10.564   0.711  23.703  0.00  0.00    +0.162 C 
BRANCH  26  27
ATOM     27  C   UNL     1       9.705   1.781  23.024  0.00  0.00    +0.165 C 
BRANCH  27  28
ATOM     28  O   UNL     1      10.141   1.918  21.646  0.00  0.00    -0.387 OA
ATOM     29  H   UNL     1      10.194   1.017  21.283  0.00  0.00    +0.210 HD
ENDBRANCH  27  28
BRANCH  27  30
ATOM     30  C   UNL     1       9.820   3.181  23.666  0.00  0.00    +0.175 C 
BRANCH  30  31
ATOM     31  O   UNL     1      10.990   3.811  23.110  0.00  0.00    -0.387 OA
ATOM     32  H   UNL     1      11.743   3.213  23.259  0.00  0.00    +0.210 HD
ENDBRANCH  30  31
BRANCH  30  33
ATOM     33  C   UNL     1       8.622   4.133  23.517  0.00  0.00    +0.171 C 
BRANCH  33  34
ATOM     34  O   UNL     1       8.139   4.140  22.168  0.00  0.00    -0.387 OA
ATOM     35  H   UNL     1       8.764   4.718  21.680  0.00  0.00    +0.210 HD
ENDBRANCH  33  34
BRANCH  33  36
ATOM     36  C   UNL     1       8.894   5.571  23.969  0.00  0.00    +0.189 C 
BRANCH  36  37
ATOM     37  O   UNL     1       9.604   6.228  22.913  0.00  0.00    -0.392 OA
ATOM     38  H   UNL     1      10.455   6.523  23.285  0.00  0.00    +0.210 HD
ENDBRANCH  36  37
ENDBRANCH  33  36
ENDBRANCH  30  33
ENDBRANCH  27  30
ENDBRANCH  26  27
ENDBRANCH   1  26
TORSDOF 17
ENDMDL
MODEL 7
REMARK VINA RESULT:      -6.1      2.538      7.299
REMARK  Name = 
REMARK  17 active torsions:
REMARK  status: ('A' for Active; 'I' for Inactive)
REMARK    1  A    between atoms: O_1  and  C_2
REMARK    2  A    between atoms: C_2  and  C_3
REMARK    3  A    between atoms: C_3  and  O_5
REMARK    4  A    between atoms: C_3  and  C_6
REMARK    5  A    between atoms: C_6  and  O_8
REMARK    6  A    between atoms: C_6  and  C_9
REMARK    7  A    between atoms: C_9  and  O_11
REMARK    8  A    between atoms: C_9  and  C_12
REMARK    9  A    between atoms: C_12  and  N_13
REMARK   10  A    between atoms: N_16  and  C_17
REMARK   11  A    between atoms: C_17  and  C_18
REMARK   12  A    between atoms: C_18  and  C_19
REMARK   13  A    between atoms: C_19  and  C_20
REMARK   14  A    between atoms: C_20  and  O_21
REMARK   15  A    between atoms: O_21  and  P_22
REMARK   16  A    between atoms: P_22  and  O_23
REMARK   17  A    between atoms: P_22  and  O_24
REMARK                            x       y       z     vdW  Elec       q    Type
REMARK                         _______ _______ _______ _____ _____    ______ ____
ROOT
ATOM      1  N   UNL     1       4.846  -4.782  24.726  0.00  0.00    -0.275 N 
ATOM      2  C   UNL     1       5.929  -5.101  25.498  0.00  0.00    +0.149 A 
ATOM      3  N   UNL     1       5.925  -5.611  26.745  0.00  0.00    -0.292 N 
ATOM      4  H   UNL     1       5.045  -5.682  27.249  0.00  0.00    +0.172 HD
ATOM      5  C   UNL     1       7.090  -5.907  27.417  0.00  0.00    +0.328 A 
ATOM      6  N   UNL     1       8.248  -5.712  26.703  0.00  0.00    -0.273 N 
ATOM      7  H   UNL     1       9.106  -5.945  27.174  0.00  0.00    +0.173 HD
ATOM      8  C   UNL     1       8.338  -5.198  25.424  0.00  0.00    +0.280 A 
ATOM      9  O   UNL     1       9.416  -5.057  24.845  0.00  0.00    -0.265 OA
ATOM     10  O   UNL     1       7.091  -6.316  28.574  0.00  0.00    -0.247 OA
ATOM     11  C   UNL     1       7.049  -4.850  24.815  0.00  0.00    +0.152 A 
ATOM     12  N   UNL     1       6.729  -4.322  23.587  0.00  0.00    -0.286 N 
ATOM     13  C   UNL     1       5.313  -4.293  23.481  0.00  0.00    +0.331 A 
ATOM     14  O   UNL     1       4.644  -3.962  22.516  0.00  0.00    -0.246 OA
ENDROOT
BRANCH  12  15
ATOM     15  C   UNL     1       7.599  -4.123  22.453  0.00  0.00    +0.127 C 
BRANCH  15  16
ATOM     16  C   UNL     1       7.849  -2.634  22.244  0.00  0.00    +0.024 C 
BRANCH  16  17
ATOM     17  C   UNL     1       8.646  -1.975  23.371  0.00  0.00    +0.030 C 
BRANCH  17  18
ATOM     18  C   UNL     1      10.095  -1.783  22.931  0.00  0.00    +0.172 C 
BRANCH  18  19
ATOM     19  O   UNL     1      10.490  -0.475  23.314  0.00  0.00    -0.287 OA
BRANCH  19  20
ATOM     20  P   UNL     1       9.397   0.351  24.372  0.00  0.00    +0.472 P 
ATOM     21  O   UNL     1       8.419   1.090  25.318  0.00  0.00    -0.228 OA
BRANCH  20  22
ATOM     22  O   UNL     1      10.691   0.535  25.355  0.00  0.00    -0.303 OA
ATOM     23  H   UNL     1      11.136  -0.323  25.475  0.00  0.00    +0.222 HD
ENDBRANCH  20  22
BRANCH  20  24
ATOM     24  O   UNL     1       9.672   1.635  23.402  0.00  0.00    -0.303 OA
ATOM     25  H   UNL     1       8.967   1.658  22.731  0.00  0.00    +0.222 HD
ENDBRANCH  20  24
ENDBRANCH  19  20
ENDBRANCH  18  19
ENDBRANCH  17  18
ENDBRANCH  16  17
ENDBRANCH  15  16
ENDBRANCH  12  15
BRANCH   1  26
ATOM     26  C   UNL     1       3.467  -5.138  24.973  0.00  0.00    +0.162 C 
BRANCH  26  27
ATOM     27  C   UNL     1       3.111  -6.551  24.503  0.00  0.00    +0.165 C 
BRANCH  27  28
ATOM     28  O   UNL     1       4.341  -7.274  24.238  0.00  0.00    -0.387 OA
ATOM     29  H   UNL     1       4.118  -7.971  23.596  0.00  0.00    +0.210 HD
ENDBRANCH  27  28
BRANCH  27  30
ATOM     30  C   UNL     1       2.285  -6.590  23.198  0.00  0.00    +0.175 C 
BRANCH  30  31
ATOM     31  O   UNL     1       3.219  -6.590  22.101  0.00  0.00    -0.387 OA
ATOM     32  H   UNL     1       2.930  -5.907  21.471  0.00  0.00    +0.210 HD
ENDBRANCH  30  31
BRANCH  30  33
ATOM     33  C   UNL     1       1.299  -7.756  23.014  0.00  0.00    +0.171 C 
BRANCH  33  34
ATOM     34  O   UNL     1       1.900  -8.999  23.395  0.00  0.00    -0.387 OA
ATOM     35  H   UNL     1       1.510  -9.210  24.270  0.00  0.00    +0.210 HD
ENDBRANCH  33  34
BRANCH  33  36
ATOM     36  C   UNL     1       0.720  -7.880  21.602  0.00  0.00    +0.189 C 
BRANCH  36  37
ATOM     37  O   UNL     1       1.572  -8.763  20.862  0.00  0.00    -0.392 OA
ATOM     38  H   UNL     1       1.101  -8.988  20.040  0.00  0.00    +0.210 HD
ENDBRANCH  36  37
ENDBRANCH  33  36
ENDBRANCH  30  33
ENDBRANCH  27  30
ENDBRANCH  26  27
ENDBRANCH   1  26
TORSDOF 17
ENDMDL
MODEL 8
REMARK VINA RESULT:      -5.9      2.187      4.109
REMARK  Name = 
REMARK  17 active torsions:
REMARK  status: ('A' for Active; 'I' for Inactive)
REMARK    1  A    between atoms: O_1  and  C_2
REMARK    2  A    between atoms: C_2  and  C_3
REMARK    3  A    between atoms: C_3  and  O_5
REMARK    4  A    between atoms: C_3  and  C_6
REMARK    5  A    between atoms: C_6  and  O_8
REMARK    6  A    between atoms: C_6  and  C_9
REMARK    7  A    between atoms: C_9  and  O_11
REMARK    8  A    between atoms: C_9  and  C_12
REMARK    9  A    between atoms: C_12  and  N_13
REMARK   10  A    between atoms: N_16  and  C_17
REMARK   11  A    between atoms: C_17  and  C_18
REMARK   12  A    between atoms: C_18  and  C_19
REMARK   13  A    between atoms: C_19  and  C_20
REMARK   14  A    between atoms: C_20  and  O_21
REMARK   15  A    between atoms: O_21  and  P_22
REMARK   16  A    between atoms: P_22  and  O_23
REMARK   17  A    between atoms: P_22  and  O_24
REMARK                            x       y       z     vdW  Elec       q    Type
REMARK                         _______ _______ _______ _____ _____    ______ ____
ROOT
ATOM      1  N   UNL     1       9.005  -1.016  23.695  0.00  0.00    -0.275 N 
ATOM      2  C   UNL     1       7.748  -0.921  24.227  0.00  0.00    +0.149 A 
ATOM      3  N   UNL     1       6.980   0.182  24.326  0.00  0.00    -0.292 N 
ATOM      4  H   UNL     1       7.379   1.087  24.090  0.00  0.00    +0.172 HD
ATOM      5  C   UNL     1       5.716   0.145  24.871  0.00  0.00    +0.328 A 
ATOM      6  N   UNL     1       5.270  -1.100  25.242  0.00  0.00    -0.273 N 
ATOM      7  H   UNL     1       4.339  -1.145  25.621  0.00  0.00    +0.173 HD
ATOM      8  C   UNL     1       5.991  -2.277  25.170  0.00  0.00    +0.280 A 
ATOM      9  O   UNL     1       5.519  -3.360  25.518  0.00  0.00    -0.265 OA
ATOM     10  O   UNL     1       5.037   1.157  25.016  0.00  0.00    -0.247 OA
ATOM     11  C   UNL     1       7.350  -2.127  24.639  0.00  0.00    +0.152 A 
ATOM     12  N   UNL     1       8.354  -3.041  24.421  0.00  0.00    -0.286 N 
ATOM     13  C   UNL     1       9.427  -2.364  23.783  0.00  0.00    +0.331 A 
ATOM     14  O   UNL     1      10.466  -2.845  23.361  0.00  0.00    -0.246 OA
ENDROOT
BRANCH  12  15
ATOM     15  C   UNL     1       8.276  -4.480  24.497  0.00  0.00    +0.127 C 
BRANCH  15  16
ATOM     16  C   UNL     1       7.909  -5.054  23.135  0.00  0.00    +0.024 C 
BRANCH  16  17
ATOM     17  C   UNL     1       6.501  -5.648  23.071  0.00  0.00    +0.030 C 
BRANCH  17  18
ATOM     18  C   UNL     1       5.568  -4.680  22.347  0.00  0.00    +0.172 C 
BRANCH  18  19
ATOM     19  O   UNL     1       4.235  -5.078  22.627  0.00  0.00    -0.287 OA
BRANCH  19  20
ATOM     20  P   UNL     1       4.072  -6.404  23.728  0.00  0.00    +0.472 P 
ATOM     21  O   UNL     1       3.926  -7.590  24.712  0.00  0.00    -0.228 OA
BRANCH  20  22
ATOM     22  O   UNL     1       3.330  -5.328  24.712  0.00  0.00    -0.303 OA
ATOM     23  H   UNL     1       3.768  -4.462  24.638  0.00  0.00    +0.222 HD
ENDBRANCH  20  22
BRANCH  20  24
ATOM     24  O   UNL     1       2.776  -6.799  22.817  0.00  0.00    -0.303 OA
ATOM     25  H   UNL     1       3.078  -6.895  21.896  0.00  0.00    +0.222 HD
ENDBRANCH  20  24
ENDBRANCH  19  20
ENDBRANCH  18  19
ENDBRANCH  17  18
ENDBRANCH  16  17
ENDBRANCH  15  16
ENDBRANCH  12  15
BRANCH   1  26
ATOM     26  C   UNL     1       9.692  -0.017  22.908  0.00  0.00    +0.162 C 
BRANCH  26  27
ATOM     27  C   UNL     1      10.524   0.955  23.750  0.00  0.00    +0.165 C 
BRANCH  27  28
ATOM     28  O   UNL     1      10.053   0.898  25.121  0.00  0.00    -0.387 OA
ATOM     29  H   UNL     1      10.091  -0.038  25.387  0.00  0.00    +0.210 HD
ENDBRANCH  27  28
BRANCH  27  30
ATOM     30  C   UNL     1      10.410   2.429  23.304  0.00  0.00    +0.175 C 
BRANCH  30  31
ATOM     31  O   UNL     1      10.062   2.428  21.907  0.00  0.00    -0.387 OA
ATOM     32  H   UNL     1      10.566   1.714  21.480  0.00  0.00    +0.210 HD
ENDBRANCH  30  31
BRANCH  30  33
ATOM     33  C   UNL     1       9.420   3.328  24.064  0.00  0.00    +0.171 C 
BRANCH  33  34
ATOM     34  O   UNL     1       8.068   2.932  23.806  0.00  0.00    -0.387 OA
ATOM     35  H   UNL     1       7.581   3.773  23.668  0.00  0.00    +0.210 HD
ENDBRANCH  33  34
BRANCH  33  36
ATOM     36  C   UNL     1       9.576   4.825  23.782  0.00  0.00    +0.189 C 
BRANCH  36  37
ATOM     37  O   UNL     1      10.865   5.020  23.188  0.00  0.00    -0.392 OA
ATOM     38  H   UNL     1      11.458   4.350  23.572  0.00  0.00    +0.210 HD
ENDBRANCH  36  37
ENDBRANCH  33  36
ENDBRANCH  30  33
ENDBRANCH  27  30
ENDBRANCH  26  27
ENDBRANCH   1  26
TORSDOF 17
ENDMDL
MODEL 9
REMARK VINA RESULT:      -5.9      3.564      8.197
REMARK  Name = 
REMARK  17 active torsions:
REMARK  status: ('A' for Active; 'I' for Inactive)
REMARK    1  A    between atoms: O_1  and  C_2
REMARK    2  A    between atoms: C_2  and  C_3
REMARK    3  A    between atoms: C_3  and  O_5
REMARK    4  A    between atoms: C_3  and  C_6
REMARK    5  A    between atoms: C_6  and  O_8
REMARK    6  A    between atoms: C_6  and  C_9
REMARK    7  A    between atoms: C_9  and  O_11
REMARK    8  A    between atoms: C_9  and  C_12
REMARK    9  A    between atoms: C_12  and  N_13
REMARK   10  A    between atoms: N_16  and  C_17
REMARK   11  A    between atoms: C_17  and  C_18
REMARK   12  A    between atoms: C_18  and  C_19
REMARK   13  A    between atoms: C_19  and  C_20
REMARK   14  A    between atoms: C_20  and  O_21
REMARK   15  A    between atoms: O_21  and  P_22
REMARK   16  A    between atoms: P_22  and  O_23
REMARK   17  A    between atoms: P_22  and  O_24
REMARK                            x       y       z     vdW  Elec       q    Type
REMARK                         _______ _______ _______ _____ _____    ______ ____
ROOT
ATOM      1  N   UNL     1       7.763  -1.430  22.980  0.00  0.00    -0.275 N 
ATOM      2  C   UNL     1       6.802  -0.986  23.847  0.00  0.00    +0.149 A 
ATOM      3  N   UNL     1       5.931  -1.730  24.555  0.00  0.00    -0.292 N 
ATOM      4  H   UNL     1       5.872  -2.730  24.377  0.00  0.00    +0.172 HD
ATOM      5  C   UNL     1       5.015  -1.163  25.414  0.00  0.00    +0.328 A 
ATOM      6  N   UNL     1       5.099   0.202  25.547  0.00  0.00    -0.273 N 
ATOM      7  H   UNL     1       4.450   0.627  26.187  0.00  0.00    +0.173 HD
ATOM      8  C   UNL     1       5.963   1.034  24.862  0.00  0.00    +0.280 A 
ATOM      9  O   UNL     1       5.983   2.253  25.039  0.00  0.00    -0.265 OA
ATOM     10  O   UNL     1       4.181  -1.833  26.015  0.00  0.00    -0.247 OA
ATOM     11  C   UNL     1       6.855   0.346  23.922  0.00  0.00    +0.152 A 
ATOM     12  N   UNL     1       7.830   0.815  23.074  0.00  0.00    -0.286 N 
ATOM     13  C   UNL     1       8.460  -0.307  22.473  0.00  0.00    +0.331 A 
ATOM     14  O   UNL     1       9.420  -0.308  21.719  0.00  0.00    -0.246 OA
ENDROOT
BRANCH  12  15
ATOM     15  C   UNL     1       8.381   2.147  23.006  0.00  0.00    +0.127 C 
BRANCH  15  16
ATOM     16  C   UNL     1       9.356   2.366  24.156  0.00  0.00    +0.024 C 
BRANCH  16  17
ATOM     17  C   UNL     1      10.824   2.398  23.726  0.00  0.00    +0.030 C 
BRANCH  17  18
ATOM     18  C   UNL     1      11.116   3.705  22.994  0.00  0.00    +0.172 C 
BRANCH  18  19
ATOM     19  O   UNL     1      12.289   4.264  23.565  0.00  0.00    -0.287 OA
BRANCH  19  20
ATOM     20  P   UNL     1      13.043   5.515  22.636  0.00  0.00    +0.472 P 
ATOM     21  O   UNL     1      13.717   6.634  21.806  0.00  0.00    -0.228 OA
BRANCH  20  22
ATOM     22  O   UNL     1      12.760   6.470  23.934  0.00  0.00    -0.303 OA
ATOM     23  H   UNL     1      11.801   6.571  24.063  0.00  0.00    +0.222 HD
ENDBRANCH  20  22
BRANCH  20  24
ATOM     24  O   UNL     1      14.439   4.846  23.154  0.00  0.00    -0.303 OA
ATOM     25  H   UNL     1      14.649   4.100  22.563  0.00  0.00    +0.222 HD
ENDBRANCH  20  24
ENDBRANCH  19  20
ENDBRANCH  18  19
ENDBRANCH  17  18
ENDBRANCH  16  17
ENDBRANCH  15  16
ENDBRANCH  12  15
BRANCH   1  26
ATOM     26  C   UNL     1       8.219  -2.791  22.811  0.00  0.00    +0.162 C 
BRANCH  26  27
ATOM     27  C   UNL     1       8.768  -3.414  24.097  0.00  0.00    +0.165 C 
BRANCH  27  28
ATOM     28  O   UNL     1      10.218  -3.370  24.050  0.00  0.00    -0.387 OA
ATOM     29  H   UNL     1      10.530  -4.241  24.353  0.00  0.00    +0.210 HD
ENDBRANCH  27  28
BRANCH  27  30
ATOM     30  C   UNL     1       8.377  -4.895  24.295  0.00  0.00    +0.175 C 
BRANCH  30  31
ATOM     31  O   UNL     1       9.598  -5.642  24.455  0.00  0.00    -0.387 OA
ATOM     32  H   UNL     1      10.222  -5.333  23.775  0.00  0.00    +0.210 HD
ENDBRANCH  30  31
BRANCH  30  33
ATOM     33  C   UNL     1       7.429  -5.232  25.459  0.00  0.00    +0.171 C 
BRANCH  33  34
ATOM     34  O   UNL     1       6.162  -4.587  25.288  0.00  0.00    -0.387 OA
ATOM     35  H   UNL     1       5.594  -5.260  24.855  0.00  0.00    +0.210 HD
ENDBRANCH  33  34
BRANCH  33  36
ATOM     36  C   UNL     1       7.987  -4.904  26.846  0.00  0.00    +0.189 C 
BRANCH  36  37
ATOM     37  O   UNL     1       7.680  -6.007  27.707  0.00  0.00    -0.392 OA
ATOM     38  H   UNL     1       7.188  -5.646  28.466  0.00  0.00    +0.210 HD
ENDBRANCH  36  37
ENDBRANCH  33  36
ENDBRANCH  30  33
ENDBRANCH  27  30
ENDBRANCH  26  27
ENDBRANCH   1  26
TORSDOF 17
ENDMDL
