MODEL 1
REMARK VINA RESULT:      -6.4      0.000      0.000
REMARK  Name = 
REMARK  9 active torsions:
REMARK  status: ('A' for Active; 'I' for Inactive)
REMARK    1  A    between atoms: O_1  and  C_2
REMARK    2  A    between atoms: C_2  and  C_3
REMARK    3  A    between atoms: C_3  and  O_4
REMARK    4  A    between atoms: O_4  and  C_5
REMARK    5  A    between atoms: C_8  and  C_11
REMARK    6  A    between atoms: C_11  and  C_22
REMARK    7  A    between atoms: C_12  and  C_13
REMARK    8  A    between atoms: C_12  and  C_16
REMARK    9  A    between atoms: C_13  and  C_14
REMARK                            x       y       z     vdW  Elec       q    Type
REMARK                         _______ _______ _______ _____ _____    ______ ____
ROOT
ATOM      1  C   UNL     1       7.500  -0.853  23.840  0.00  0.00    -0.007 C 
ATOM      2  C   UNL     1       8.530  -1.157  24.678  0.00  0.00    -0.031 C 
ENDROOT
BRANCH   1   6
ATOM      3  C   UNL     1       5.105  -4.219  22.687  0.00  0.00    +0.121 A 
ATOM      4  C   UNL     1       4.734  -3.441  23.788  0.00  0.00    +0.046 A 
ATOM      5  C   UNL     1       5.441  -2.272  24.113  0.00  0.00    +0.012 A 
ATOM      6  C   UNL     1       6.531  -1.869  23.334  0.00  0.00    -0.017 A 
ATOM      7  C   UNL     1       6.834  -2.596  22.177  0.00  0.00    +0.012 A 
ATOM      8  C   UNL     1       6.129  -3.762  21.858  0.00  0.00    +0.046 A 
BRANCH   3   9
ATOM      9  O   UNL     1       4.428  -5.405  22.536  0.00  0.00    -0.490 OA
BRANCH   9  10
ATOM     10  C   UNL     1       3.227  -5.543  23.303  0.00  0.00    +0.256 C 
BRANCH  10  11
ATOM     11  C   UNL     1       3.252  -6.839  24.107  0.00  0.00    +0.196 C 
BRANCH  11  12
ATOM     12  O   UNL     1       4.475  -7.531  23.859  0.00  0.00    -0.392 OA
ATOM     13  H   UNL     1       4.683  -7.416  22.916  0.00  0.00    +0.210 HD
ENDBRANCH  11  12
ENDBRANCH  10  11
ENDBRANCH   9  10
ENDBRANCH   3   9
ENDBRANCH   1   6
BRANCH   1  14
ATOM     14  C   UNL     1       7.234   0.581  23.504  0.00  0.00    -0.017 A 
ATOM     15  C   UNL     1       7.662   1.088  22.265  0.00  0.00    +0.008 A 
ATOM     16  C   UNL     1       7.458   2.430  21.930  0.00  0.00    +0.001 A 
ATOM     17  C   UNL     1       6.814   3.278  22.825  0.00  0.00    +0.000 A 
ATOM     18  C   UNL     1       6.387   2.789  24.060  0.00  0.00    +0.001 A 
ATOM     19  C   UNL     1       6.602   1.447  24.403  0.00  0.00    +0.008 A 
ENDBRANCH   1  14
BRANCH   2  20
ATOM     20  C   UNL     1       8.736  -2.509  25.257  0.00  0.00    -0.021 A 
ATOM     21  C   UNL     1       9.529  -3.434  24.562  0.00  0.00    +0.008 A 
ATOM     22  C   UNL     1       9.608  -4.764  24.983  0.00  0.00    +0.001 A 
ATOM     23  C   UNL     1       8.889  -5.186  26.099  0.00  0.00    +0.000 A 
ATOM     24  C   UNL     1       8.113  -4.270  26.810  0.00  0.00    +0.001 A 
ATOM     25  C   UNL     1       8.046  -2.933  26.400  0.00  0.00    +0.008 A 
ENDBRANCH   2  20
BRANCH   2  26
ATOM     26  C   UNL     1       9.512  -0.128  25.256  0.00  0.00    +0.052 C 
BRANCH  26  27
ATOM     27  C   UNL     1      10.705   0.263  24.377  0.00  0.00    +0.113 C 
ATOM     28 CL   UNL     1      10.681   1.980  23.907  0.00  0.00    -0.125 Cl
ENDBRANCH  26  27
ENDBRANCH   2  26
TORSDOF 9
ENDMDL
MODEL 2
REMARK VINA RESULT:      -6.2      1.607      2.173
REMARK  Name = 
REMARK  9 active torsions:
REMARK  status: ('A' for Active; 'I' for Inactive)
REMARK    1  A    between atoms: O_1  and  C_2
REMARK    2  A    between atoms: C_2  and  C_3
REMARK    3  A    between atoms: C_3  and  O_4
REMARK    4  A    between atoms: O_4  and  C_5
REMARK    5  A    between atoms: C_8  and  C_11
REMARK    6  A    between atoms: C_11  and  C_22
REMARK    7  A    between atoms: C_12  and  C_13
REMARK    8  A    between atoms: C_12  and  C_16
REMARK    9  A    between atoms: C_13  and  C_14
REMARK                            x       y       z     vdW  Elec       q    Type
REMARK                         _______ _______ _______ _____ _____    ______ ____
ROOT
ATOM      1  C   UNL     1       7.890  -1.752  23.959  0.00  0.00    -0.007 C 
ATOM      2  C   UNL     1       8.239  -1.884  25.269  0.00  0.00    -0.031 C 
ENDROOT
BRANCH   1   6
ATOM      3  C   UNL     1       5.436  -4.932  22.454  0.00  0.00    +0.121 A 
ATOM      4  C   UNL     1       4.847  -3.746  22.902  0.00  0.00    +0.046 A 
ATOM      5  C   UNL     1       5.638  -2.653  23.292  0.00  0.00    +0.012 A 
ATOM      6  C   UNL     1       7.033  -2.738  23.238  0.00  0.00    -0.017 A 
ATOM      7  C   UNL     1       7.614  -3.890  22.695  0.00  0.00    +0.012 A 
ATOM      8  C   UNL     1       6.823  -4.978  22.309  0.00  0.00    +0.046 A 
BRANCH   3   9
ATOM      9  O   UNL     1       4.576  -5.977  22.220  0.00  0.00    -0.490 OA
BRANCH   9  10
ATOM     10  C   UNL     1       3.453  -6.074  23.102  0.00  0.00    +0.256 C 
BRANCH  10  11
ATOM     11  C   UNL     1       3.773  -6.992  24.278  0.00  0.00    +0.196 C 
BRANCH  11  12
ATOM     12  O   UNL     1       3.098  -8.237  24.109  0.00  0.00    -0.392 OA
ATOM     13  H   UNL     1       3.774  -8.903  23.893  0.00  0.00    +0.210 HD
ENDBRANCH  11  12
ENDBRANCH  10  11
ENDBRANCH   9  10
ENDBRANCH   3   9
ENDBRANCH   1   6
BRANCH   1  14
ATOM     14  C   UNL     1       8.265  -0.501  23.228  0.00  0.00    -0.017 A 
ATOM     15  C   UNL     1       7.332   0.546  23.131  0.00  0.00    +0.008 A 
ATOM     16  C   UNL     1       7.637   1.716  22.429  0.00  0.00    +0.001 A 
ATOM     17  C   UNL     1       8.883   1.857  21.825  0.00  0.00    +0.000 A 
ATOM     18  C   UNL     1       9.816   0.825  21.909  0.00  0.00    +0.001 A 
ATOM     19  C   UNL     1       9.508  -0.355  22.602  0.00  0.00    +0.008 A 
ENDBRANCH   1  14
BRANCH   2  20
ATOM     20  C   UNL     1       7.721  -2.967  26.143  0.00  0.00    -0.021 A 
ATOM     21  C   UNL     1       8.474  -4.141  26.294  0.00  0.00    +0.008 A 
ATOM     22  C   UNL     1       7.946  -5.246  26.966  0.00  0.00    +0.001 A 
ATOM     23  C   UNL     1       6.657  -5.192  27.489  0.00  0.00    +0.000 A 
ATOM     24  C   UNL     1       5.906  -4.023  27.364  0.00  0.00    +0.001 A 
ATOM     25  C   UNL     1       6.439  -2.909  26.706  0.00  0.00    +0.008 A 
ENDBRANCH   2  20
BRANCH   2  26
ATOM     26  C   UNL     1       9.075  -0.862  26.052  0.00  0.00    +0.052 C 
BRANCH  26  27
ATOM     27  C   UNL     1       8.379  -0.140  27.212  0.00  0.00    +0.113 C 
ATOM     28 CL   UNL     1       6.899   0.709  26.704  0.00  0.00    -0.125 Cl
ENDBRANCH  26  27
ENDBRANCH   2  26
TORSDOF 9
ENDMDL
MODEL 3
REMARK VINA RESULT:      -5.7      2.440      4.307
REMARK  Name = 
REMARK  9 active torsions:
REMARK  status: ('A' for Active; 'I' for Inactive)
REMARK    1  A    between atoms: O_1  and  C_2
REMARK    2  A    between atoms: C_2  and  C_3
REMARK    3  A    between atoms: C_3  and  O_4
REMARK    4  A    between atoms: O_4  and  C_5
REMARK    5  A    between atoms: C_8  and  C_11
REMARK    6  A    between atoms: C_11  and  C_22
REMARK    7  A    between atoms: C_12  and  C_13
REMARK    8  A    between atoms: C_12  and  C_16
REMARK    9  A    between atoms: C_13  and  C_14
REMARK                            x       y       z     vdW  Elec       q    Type
REMARK                         _______ _______ _______ _____ _____    ______ ____
ROOT
ATOM      1  C   UNL     1       7.744  -2.171  24.491  0.00  0.00    -0.007 C 
ATOM      2  C   UNL     1       7.323  -2.550  23.252  0.00  0.00    -0.031 C 
ENDROOT
BRANCH   1   6
ATOM      3  C   UNL     1       6.931  -5.024  27.590  0.00  0.00    +0.121 A 
ATOM      4  C   UNL     1       8.146  -5.067  26.899  0.00  0.00    +0.046 A 
ATOM      5  C   UNL     1       8.476  -4.076  25.962  0.00  0.00    +0.012 A 
ATOM      6  C   UNL     1       7.588  -3.026  25.704  0.00  0.00    -0.017 A 
ATOM      7  C   UNL     1       6.421  -2.932  26.470  0.00  0.00    +0.012 A 
ATOM      8  C   UNL     1       6.093  -3.924  27.403  0.00  0.00    +0.046 A 
BRANCH   3   9
ATOM      9  O   UNL     1       6.654  -6.108  28.387  0.00  0.00    -0.490 OA
BRANCH   9  10
ATOM     10  C   UNL     1       5.405  -6.763  28.142  0.00  0.00    +0.256 C 
BRANCH  10  11
ATOM     11  C   UNL     1       4.511  -6.687  29.376  0.00  0.00    +0.196 C 
BRANCH  11  12
ATOM     12  O   UNL     1       3.521  -7.712  29.311  0.00  0.00    -0.392 OA
ATOM     13  H   UNL     1       3.774  -8.396  29.956  0.00  0.00    +0.210 HD
ENDBRANCH  11  12
ENDBRANCH  10  11
ENDBRANCH   9  10
ENDBRANCH   3   9
ENDBRANCH   1   6
BRANCH   1  14
ATOM     14  C   UNL     1       8.515  -0.897  24.640  0.00  0.00    -0.017 A 
ATOM     15  C   UNL     1       7.823   0.325  24.691  0.00  0.00    +0.008 A 
ATOM     16  C   UNL     1       8.512   1.536  24.798  0.00  0.00    +0.001 A 
ATOM     17  C   UNL     1       9.902   1.539  24.867  0.00  0.00    +0.000 A 
ATOM     18  C   UNL     1      10.602   0.334  24.814  0.00  0.00    +0.001 A 
ATOM     19  C   UNL     1       9.913  -0.881  24.693  0.00  0.00    +0.008 A 
ENDBRANCH   1  14
BRANCH   2  20
ATOM     20  C   UNL     1       6.761  -3.894  22.961  0.00  0.00    -0.021 A 
ATOM     21  C   UNL     1       7.596  -4.878  22.412  0.00  0.00    +0.008 A 
ATOM     22  C   UNL     1       7.070  -6.093  21.966  0.00  0.00    +0.001 A 
ATOM     23  C   UNL     1       5.701  -6.335  22.059  0.00  0.00    +0.000 A 
ATOM     24  C   UNL     1       4.864  -5.372  22.623  0.00  0.00    +0.001 A 
ATOM     25  C   UNL     1       5.392  -4.161  23.085  0.00  0.00    +0.008 A 
ENDBRANCH   2  20
BRANCH   2  26
ATOM     26  C   UNL     1       7.514  -1.717  21.977  0.00  0.00    +0.052 C 
BRANCH  26  27
ATOM     27  C   UNL     1       8.953  -1.515  21.490  0.00  0.00    +0.113 C 
ATOM     28 CL   UNL     1       9.371   0.202  21.271  0.00  0.00    -0.125 Cl
ENDBRANCH  26  27
ENDBRANCH   2  26
TORSDOF 9
ENDMDL
MODEL 4
REMARK VINA RESULT:      -5.7      1.975      2.641
REMARK  Name = 
REMARK  9 active torsions:
REMARK  status: ('A' for Active; 'I' for Inactive)
REMARK    1  A    between atoms: O_1  and  C_2
REMARK    2  A    between atoms: C_2  and  C_3
REMARK    3  A    between atoms: C_3  and  O_4
REMARK    4  A    between atoms: O_4  and  C_5
REMARK    5  A    between atoms: C_8  and  C_11
REMARK    6  A    between atoms: C_11  and  C_22
REMARK    7  A    between atoms: C_12  and  C_13
REMARK    8  A    between atoms: C_12  and  C_16
REMARK    9  A    between atoms: C_13  and  C_14
REMARK                            x       y       z     vdW  Elec       q    Type
REMARK                         _______ _______ _______ _____ _____    ______ ____
ROOT
ATOM      1  C   UNL     1       8.073  -1.103  24.717  0.00  0.00    -0.007 C 
ATOM      2  C   UNL     1       7.877  -1.367  26.039  0.00  0.00    -0.031 C 
ENDROOT
BRANCH   1   6
ATOM      3  C   UNL     1       6.410  -4.036  22.064  0.00  0.00    +0.121 A 
ATOM      4  C   UNL     1       5.710  -2.855  22.329  0.00  0.00    +0.046 A 
ATOM      5  C   UNL     1       6.287  -1.836  23.104  0.00  0.00    +0.012 A 
ATOM      6  C   UNL     1       7.576  -1.990  23.624  0.00  0.00    -0.017 A 
ATOM      7  C   UNL     1       8.310  -3.129  23.272  0.00  0.00    +0.012 A 
ATOM      8  C   UNL     1       7.731  -4.144  22.502  0.00  0.00    +0.046 A 
BRANCH   3   9
ATOM      9  O   UNL     1       5.707  -5.015  21.406  0.00  0.00    -0.490 OA
BRANCH   9  10
ATOM     10  C   UNL     1       5.695  -6.304  22.030  0.00  0.00    +0.256 C 
BRANCH  10  11
ATOM     11  C   UNL     1       5.148  -6.205  23.451  0.00  0.00    +0.196 C 
BRANCH  11  12
ATOM     12  O   UNL     1       4.488  -7.422  23.794  0.00  0.00    -0.392 OA
ATOM     13  H   UNL     1       4.812  -7.687  24.672  0.00  0.00    +0.210 HD
ENDBRANCH  11  12
ENDBRANCH  10  11
ENDBRANCH   9  10
ENDBRANCH   3   9
ENDBRANCH   1   6
BRANCH   1  14
ATOM     14  C   UNL     1       8.700   0.196  24.319  0.00  0.00    -0.017 A 
ATOM     15  C   UNL     1      10.090   0.358  24.449  0.00  0.00    +0.008 A 
ATOM     16  C   UNL     1      10.705   1.568  24.116  0.00  0.00    +0.001 A 
ATOM     17  C   UNL     1       9.940   2.628  23.639  0.00  0.00    +0.000 A 
ATOM     18  C   UNL     1       8.559   2.482  23.509  0.00  0.00    +0.001 A 
ATOM     19  C   UNL     1       7.938   1.274  23.855  0.00  0.00    +0.008 A 
ENDBRANCH   1  14
BRANCH   2  20
ATOM     20  C   UNL     1       7.061  -2.508  26.528  0.00  0.00    -0.021 A 
ATOM     21  C   UNL     1       7.690  -3.736  26.782  0.00  0.00    +0.008 A 
ATOM     22  C   UNL     1       6.937  -4.875  27.078  0.00  0.00    +0.001 A 
ATOM     23  C   UNL     1       5.547  -4.801  27.115  0.00  0.00    +0.000 A 
ATOM     24  C   UNL     1       4.911  -3.580  26.885  0.00  0.00    +0.001 A 
ATOM     25  C   UNL     1       5.664  -2.434  26.606  0.00  0.00    +0.008 A 
ENDBRANCH   2  20
BRANCH   2  26
ATOM     26  C   UNL     1       8.330  -0.450  27.184  0.00  0.00    +0.052 C 
BRANCH  26  27
ATOM     27  C   UNL     1       7.255   0.425  27.838  0.00  0.00    +0.113 C 
ATOM     28 CL   UNL     1       7.188   2.065  27.145  0.00  0.00    -0.125 Cl
ENDBRANCH  26  27
ENDBRANCH   2  26
TORSDOF 9
ENDMDL
MODEL 5
REMARK VINA RESULT:      -5.6      1.258      1.343
REMARK  Name = 
REMARK  9 active torsions:
REMARK  status: ('A' for Active; 'I' for Inactive)
REMARK    1  A    between atoms: O_1  and  C_2
REMARK    2  A    between atoms: C_2  and  C_3
REMARK    3  A    between atoms: C_3  and  O_4
REMARK    4  A    between atoms: O_4  and  C_5
REMARK    5  A    between atoms: C_8  and  C_11
REMARK    6  A    between atoms: C_11  and  C_22
REMARK    7  A    between atoms: C_12  and  C_13
REMARK    8  A    between atoms: C_12  and  C_16
REMARK    9  A    between atoms: C_13  and  C_14
REMARK                            x       y       z     vdW  Elec       q    Type
REMARK                         _______ _______ _______ _____ _____    ______ ____
ROOT
ATOM      1  C   UNL     1       7.123  -0.682  24.174  0.00  0.00    -0.007 C 
ATOM      2  C   UNL     1       8.377  -0.962  24.625  0.00  0.00    -0.031 C 
ENDROOT
BRANCH   1   6
ATOM      3  C   UNL     1       4.484  -4.063  24.072  0.00  0.00    +0.121 A 
ATOM      4  C   UNL     1       4.362  -3.110  25.088  0.00  0.00    +0.046 A 
ATOM      5  C   UNL     1       5.139  -1.941  25.075  0.00  0.00    +0.012 A 
ATOM      6  C   UNL     1       6.053  -1.714  24.040  0.00  0.00    -0.017 A 
ATOM      7  C   UNL     1       6.099  -2.622  22.975  0.00  0.00    +0.012 A 
ATOM      8  C   UNL     1       5.324  -3.787  22.992  0.00  0.00    +0.046 A 
BRANCH   3   9
ATOM      9  O   UNL     1       3.771  -5.224  24.249  0.00  0.00    -0.490 OA
BRANCH   9  10
ATOM     10  C   UNL     1       4.544  -6.399  24.519  0.00  0.00    +0.256 C 
BRANCH  10  11
ATOM     11  C   UNL     1       4.561  -6.694  26.016  0.00  0.00    +0.196 C 
BRANCH  11  12
ATOM     12  O   UNL     1       5.873  -6.473  26.531  0.00  0.00    -0.392 OA
ATOM     13  H   UNL     1       6.489  -6.534  25.780  0.00  0.00    +0.210 HD
ENDBRANCH  11  12
ENDBRANCH  10  11
ENDBRANCH   9  10
ENDBRANCH   3   9
ENDBRANCH   1   6
BRANCH   1  14
ATOM     14  C   UNL     1       6.741   0.742  23.918  0.00  0.00    -0.017 A 
ATOM     15  C   UNL     1       6.835   1.256  22.613  0.00  0.00    +0.008 A 
ATOM     16  C   UNL     1       6.517   2.590  22.343  0.00  0.00    +0.001 A 
ATOM     17  C   UNL     1       6.091   3.424  23.373  0.00  0.00    +0.000 A 
ATOM     18  C   UNL     1       5.997   2.928  24.673  0.00  0.00    +0.001 A 
ATOM     19  C   UNL     1       6.328   1.594  24.948  0.00  0.00    +0.008 A 
ENDBRANCH   1  14
BRANCH   2  20
ATOM     20  C   UNL     1       8.780  -2.300  25.128  0.00  0.00    -0.021 A 
ATOM     21  C   UNL     1       9.573  -3.123  24.315  0.00  0.00    +0.008 A 
ATOM     22  C   UNL     1       9.831  -4.448  24.677  0.00  0.00    +0.001 A 
ATOM     23  C   UNL     1       9.293  -4.966  25.852  0.00  0.00    +0.000 A 
ATOM     24  C   UNL     1       8.520  -4.151  26.679  0.00  0.00    +0.001 A 
ATOM     25  C   UNL     1       8.275  -2.819  26.327  0.00  0.00    +0.008 A 
ENDBRANCH   2  20
BRANCH   2  26
ATOM     26  C   UNL     1       9.482   0.085  24.823  0.00  0.00    +0.052 C 
BRANCH  26  27
ATOM     27  C   UNL     1      10.299   0.473  23.586  0.00  0.00    +0.113 C 
ATOM     28 CL   UNL     1       9.923  -0.537  22.168  0.00  0.00    -0.125 Cl
ENDBRANCH  26  27
ENDBRANCH   2  26
TORSDOF 9
ENDMDL
MODEL 6
REMARK VINA RESULT:      -5.6      3.669      7.206
REMARK  Name = 
REMARK  9 active torsions:
REMARK  status: ('A' for Active; 'I' for Inactive)
REMARK    1  A    between atoms: O_1  and  C_2
REMARK    2  A    between atoms: C_2  and  C_3
REMARK    3  A    between atoms: C_3  and  O_4
REMARK    4  A    between atoms: O_4  and  C_5
REMARK    5  A    between atoms: C_8  and  C_11
REMARK    6  A    between atoms: C_11  and  C_22
REMARK    7  A    between atoms: C_12  and  C_13
REMARK    8  A    between atoms: C_12  and  C_16
REMARK    9  A    between atoms: C_13  and  C_14
REMARK                            x       y       z     vdW  Elec       q    Type
REMARK                         _______ _______ _______ _____ _____    ______ ____
ROOT
ATOM      1  C   UNL     1       6.359  -4.790  25.951  0.00  0.00    -0.007 C 
ATOM      2  C   UNL     1       5.678  -5.402  24.943  0.00  0.00    -0.031 C 
ENDROOT
BRANCH   1   6
ATOM      3  C   UNL     1       9.390  -2.043  24.657  0.00  0.00    +0.121 A 
ATOM      4  C   UNL     1       8.269  -1.574  25.350  0.00  0.00    +0.046 A 
ATOM      5  C   UNL     1       7.324  -2.467  25.878  0.00  0.00    +0.012 A 
ATOM      6  C   UNL     1       7.492  -3.847  25.718  0.00  0.00    -0.017 A 
ATOM      7  C   UNL     1       8.665  -4.314  25.113  0.00  0.00    +0.012 A 
ATOM      8  C   UNL     1       9.604  -3.420  24.585  0.00  0.00    +0.046 A 
BRANCH   3   9
ATOM      9  O   UNL     1      10.180  -1.083  24.074  0.00  0.00    -0.490 OA
BRANCH   9  10
ATOM     10  C   UNL     1       9.496  -0.102  23.287  0.00  0.00    +0.256 C 
BRANCH  10  11
ATOM     11  C   UNL     1       9.414  -0.548  21.830  0.00  0.00    +0.196 C 
BRANCH  11  12
ATOM     12  O   UNL     1      10.407  -1.541  21.579  0.00  0.00    -0.392 OA
ATOM     13  H   UNL     1      10.006  -2.405  21.778  0.00  0.00    +0.210 HD
ENDBRANCH  11  12
ENDBRANCH  10  11
ENDBRANCH   9  10
ENDBRANCH   3   9
ENDBRANCH   1   6
BRANCH   1  14
ATOM     14  C   UNL     1       5.880  -4.957  27.359  0.00  0.00    -0.017 A 
ATOM     15  C   UNL     1       4.910  -4.075  27.866  0.00  0.00    +0.008 A 
ATOM     16  C   UNL     1       4.463  -4.182  29.186  0.00  0.00    +0.001 A 
ATOM     17  C   UNL     1       4.972  -5.178  30.012  0.00  0.00    +0.000 A 
ATOM     18  C   UNL     1       5.939  -6.058  29.524  0.00  0.00    +0.001 A 
ATOM     19  C   UNL     1       6.398  -5.944  28.204  0.00  0.00    +0.008 A 
ENDBRANCH   1  14
BRANCH   2  20
ATOM     20  C   UNL     1       5.924  -5.116  23.505  0.00  0.00    -0.021 A 
ATOM     21  C   UNL     1       5.625  -3.842  23.003  0.00  0.00    +0.008 A 
ATOM     22  C   UNL     1       5.680  -3.585  21.630  0.00  0.00    +0.001 A 
ATOM     23  C   UNL     1       6.028  -4.603  20.745  0.00  0.00    +0.000 A 
ATOM     24  C   UNL     1       6.348  -5.869  21.235  0.00  0.00    +0.001 A 
ATOM     25  C   UNL     1       6.310  -6.123  22.611  0.00  0.00    +0.008 A 
ENDBRANCH   2  20
BRANCH   2  26
ATOM     26  C   UNL     1       4.476  -6.335  25.147  0.00  0.00    +0.052 C 
BRANCH  26  27
ATOM     27  C   UNL     1       3.089  -5.755  24.848  0.00  0.00    +0.113 C 
ATOM     28 CL   UNL     1       2.596  -5.990  23.153  0.00  0.00    -0.125 Cl
ENDBRANCH  26  27
ENDBRANCH   2  26
TORSDOF 9
ENDMDL
MODEL 7
REMARK VINA RESULT:      -5.5      4.064      7.274
REMARK  Name = 
REMARK  9 active torsions:
REMARK  status: ('A' for Active; 'I' for Inactive)
REMARK    1  A    between atoms: O_1  and  C_2
REMARK    2  A    between atoms: C_2  and  C_3
REMARK    3  A    between atoms: C_3  and  O_4
REMARK    4  A    between atoms: O_4  and  C_5
REMARK    5  A    between atoms: C_8  and  C_11
REMARK    6  A    between atoms: C_11  and  C_22
REMARK    7  A    between atoms: C_12  and  C_13
REMARK    8  A    between atoms: C_12  and  C_16
REMARK    9  A    between atoms: C_13  and  C_14
REMARK                            x       y       z     vdW  Elec       q    Type
REMARK                         _______ _______ _______ _____ _____    ______ ____
ROOT
ATOM      1  C   UNL     1       6.929  -2.025  23.955  0.00  0.00    -0.007 C 
ATOM      2  C   UNL     1       5.924  -1.748  24.832  0.00  0.00    -0.031 C 
ENDROOT
BRANCH   1   6
ATOM      3  C   UNL     1      10.015   0.951  23.799  0.00  0.00    +0.121 A 
ATOM      4  C   UNL     1      10.133  -0.135  24.672  0.00  0.00    +0.046 A 
ATOM      5  C   UNL     1       9.190  -1.175  24.658  0.00  0.00    +0.012 A 
ATOM      6  C   UNL     1       8.114  -1.139  23.764  0.00  0.00    -0.017 A 
ATOM      7  C   UNL     1       8.058  -0.102  22.825  0.00  0.00    +0.012 A 
ATOM      8  C   UNL     1       8.997   0.935  22.843  0.00  0.00    +0.046 A 
BRANCH   3   9
ATOM      9  O   UNL     1      10.916   1.971  23.984  0.00  0.00    -0.490 OA
BRANCH   9  10
ATOM     10  C   UNL     1      10.775   3.097  23.111  0.00  0.00    +0.256 C 
BRANCH  10  11
ATOM     11  C   UNL     1      10.171   4.281  23.861  0.00  0.00    +0.196 C 
BRANCH  11  12
ATOM     12  O   UNL     1      10.455   5.487  23.155  0.00  0.00    -0.392 OA
ATOM     13  H   UNL     1       9.699   6.085  23.290  0.00  0.00    +0.210 HD
ENDBRANCH  11  12
ENDBRANCH  10  11
ENDBRANCH   9  10
ENDBRANCH   3   9
ENDBRANCH   1   6
BRANCH   1  14
ATOM     14  C   UNL     1       6.926  -3.337  23.235  0.00  0.00    -0.017 A 
ATOM     15  C   UNL     1       7.711  -4.394  23.728  0.00  0.00    +0.008 A 
ATOM     16  C   UNL     1       7.757  -5.623  23.064  0.00  0.00    +0.001 A 
ATOM     17  C   UNL     1       7.011  -5.814  21.905  0.00  0.00    +0.000 A 
ATOM     18  C   UNL     1       6.231  -4.773  21.403  0.00  0.00    +0.001 A 
ATOM     19  C   UNL     1       6.193  -3.534  22.060  0.00  0.00    +0.008 A 
ENDBRANCH   1  14
BRANCH   2  20
ATOM     20  C   UNL     1       5.953  -0.590  25.762  0.00  0.00    -0.021 A 
ATOM     21  C   UNL     1       5.469   0.651  25.322  0.00  0.00    +0.008 A 
ATOM     22  C   UNL     1       5.634   1.798  26.101  0.00  0.00    +0.001 A 
ATOM     23  C   UNL     1       6.292   1.719  27.326  0.00  0.00    +0.000 A 
ATOM     24  C   UNL     1       6.758   0.487  27.785  0.00  0.00    +0.001 A 
ATOM     25  C   UNL     1       6.579  -0.667  27.013  0.00  0.00    +0.008 A 
ENDBRANCH   2  20
BRANCH   2  26
ATOM     26  C   UNL     1       4.718  -2.663  25.089  0.00  0.00    +0.052 C 
BRANCH  26  27
ATOM     27  C   UNL     1       4.902  -3.779  26.123  0.00  0.00    +0.113 C 
ATOM     28 CL   UNL     1       4.757  -5.405  25.414  0.00  0.00    -0.125 Cl
ENDBRANCH  26  27
ENDBRANCH   2  26
TORSDOF 9
ENDMDL
MODEL 8
REMARK VINA RESULT:      -5.4      3.730      6.872
REMARK  Name = 
REMARK  9 active torsions:
REMARK  status: ('A' for Active; 'I' for Inactive)
REMARK    1  A    between atoms: O_1  and  C_2
REMARK    2  A    between atoms: C_2  and  C_3
REMARK    3  A    between atoms: C_3  and  O_4
REMARK    4  A    between atoms: O_4  and  C_5
REMARK    5  A    between atoms: C_8  and  C_11
REMARK    6  A    between atoms: C_11  and  C_22
REMARK    7  A    between atoms: C_12  and  C_13
REMARK    8  A    between atoms: C_12  and  C_16
REMARK    9  A    between atoms: C_13  and  C_14
REMARK                            x       y       z     vdW  Elec       q    Type
REMARK                         _______ _______ _______ _____ _____    ______ ____
ROOT
ATOM      1  C   UNL     1       6.809  -3.608  24.975  0.00  0.00    -0.007 C 
ATOM      2  C   UNL     1       7.668  -3.923  23.966  0.00  0.00    -0.031 C 
ENDROOT
BRANCH   1   6
ATOM      3  C   UNL     1       7.067   0.459  26.315  0.00  0.00    +0.121 A 
ATOM      4  C   UNL     1       6.097   0.091  25.377  0.00  0.00    +0.046 A 
ATOM      5  C   UNL     1       5.924  -1.253  25.011  0.00  0.00    +0.012 A 
ATOM      6  C   UNL     1       6.725  -2.248  25.583  0.00  0.00    -0.017 A 
ATOM      7  C   UNL     1       7.623  -1.887  26.594  0.00  0.00    +0.012 A 
ATOM      8  C   UNL     1       7.795  -0.546  26.955  0.00  0.00    +0.046 A 
BRANCH   3   9
ATOM      9  O   UNL     1       7.238   1.808  26.504  0.00  0.00    -0.490 OA
BRANCH   9  10
ATOM     10  C   UNL     1       7.135   2.623  25.332  0.00  0.00    +0.256 C 
BRANCH  10  11
ATOM     11  C   UNL     1       8.498   3.205  24.965  0.00  0.00    +0.196 C 
BRANCH  11  12
ATOM     12  O   UNL     1       9.448   2.149  24.836  0.00  0.00    -0.392 OA
ATOM     13  H   UNL     1      10.159   2.472  24.255  0.00  0.00    +0.210 HD
ENDBRANCH  11  12
ENDBRANCH  10  11
ENDBRANCH   9  10
ENDBRANCH   3   9
ENDBRANCH   1   6
BRANCH   1  14
ATOM     14  C   UNL     1       5.804  -4.625  25.419  0.00  0.00    -0.017 A 
ATOM     15  C   UNL     1       4.504  -4.586  24.886  0.00  0.00    +0.008 A 
ATOM     16  C   UNL     1       3.531  -5.500  25.302  0.00  0.00    +0.001 A 
ATOM     17  C   UNL     1       3.849  -6.471  26.246  0.00  0.00    +0.000 A 
ATOM     18  C   UNL     1       5.134  -6.519  26.786  0.00  0.00    +0.001 A 
ATOM     19  C   UNL     1       6.108  -5.594  26.381  0.00  0.00    +0.008 A 
ENDBRANCH   1  14
BRANCH   2  20
ATOM     20  C   UNL     1       8.538  -2.921  23.298  0.00  0.00    -0.021 A 
ATOM     21  C   UNL     1       9.804  -2.650  23.837  0.00  0.00    +0.008 A 
ATOM     22  C   UNL     1      10.580  -1.599  23.342  0.00  0.00    +0.001 A 
ATOM     23  C   UNL     1      10.095  -0.803  22.307  0.00  0.00    +0.000 A 
ATOM     24  C   UNL     1       8.846  -1.076  21.748  0.00  0.00    +0.001 A 
ATOM     25  C   UNL     1       8.075  -2.140  22.231  0.00  0.00    +0.008 A 
ENDBRANCH   2  20
BRANCH   2  26
ATOM     26  C   UNL     1       7.743  -5.296  23.285  0.00  0.00    +0.052 C 
BRANCH  26  27
ATOM     27  C   UNL     1       7.181  -5.397  21.863  0.00  0.00    +0.113 C 
ATOM     28 CL   UNL     1       5.496  -5.972  21.828  0.00  0.00    -0.125 Cl
ENDBRANCH  26  27
ENDBRANCH   2  26
TORSDOF 9
ENDMDL
MODEL 9
REMARK VINA RESULT:      -5.3      3.735      6.997
REMARK  Name = 
REMARK  9 active torsions:
REMARK  status: ('A' for Active; 'I' for Inactive)
REMARK    1  A    between atoms: O_1  and  C_2
REMARK    2  A    between atoms: C_2  and  C_3
REMARK    3  A    between atoms: C_3  and  O_4
REMARK    4  A    between atoms: O_4  and  C_5
REMARK    5  A    between atoms: C_8  and  C_11
REMARK    6  A    between atoms: C_11  and  C_22
REMARK    7  A    between atoms: C_12  and  C_13
REMARK    8  A    between atoms: C_12  and  C_16
REMARK    9  A    between atoms: C_13  and  C_14
REMARK                            x       y       z     vdW  Elec       q    Type
REMARK                         _______ _______ _______ _____ _____    ______ ____
ROOT
ATOM      1  C   UNL     1       8.173   3.747  23.524  0.00  0.00    -0.007 C 
ATOM      2  C   UNL     1       8.659   5.001  23.739  0.00  0.00    -0.031 C 
ENDROOT
BRANCH   1   6
ATOM      3  C   UNL     1      10.123  -0.058  23.174  0.00  0.00    +0.121 A 
ATOM      4  C   UNL     1       9.801   0.672  22.025  0.00  0.00    +0.046 A 
ATOM      5  C   UNL     1       9.266   1.966  22.122  0.00  0.00    +0.012 A 
ATOM      6  C   UNL     1       9.046   2.545  23.377  0.00  0.00    -0.017 A 
ATOM      7  C   UNL     1       9.463   1.851  24.518  0.00  0.00    +0.012 A 
ATOM      8  C   UNL     1       9.994   0.560  24.418  0.00  0.00    +0.046 A 
BRANCH   3   9
ATOM      9  O   UNL     1      10.519  -1.357  22.968  0.00  0.00    -0.490 OA
BRANCH   9  10
ATOM     10  C   UNL     1       9.905  -2.340  23.808  0.00  0.00    +0.256 C 
BRANCH  10  11
ATOM     11  C   UNL     1       8.415  -2.454  23.498  0.00  0.00    +0.196 C 
BRANCH  11  12
ATOM     12  O   UNL     1       8.236  -2.697  22.104  0.00  0.00    -0.392 OA
ATOM     13  H   UNL     1       9.073  -3.062  21.766  0.00  0.00    +0.210 HD
ENDBRANCH  11  12
ENDBRANCH  10  11
ENDBRANCH   9  10
ENDBRANCH   3   9
ENDBRANCH   1   6
BRANCH   1  14
ATOM     14  C   UNL     1       6.694   3.523  23.563  0.00  0.00    -0.017 A 
ATOM     15  C   UNL     1       5.974   3.464  22.357  0.00  0.00    +0.008 A 
ATOM     16  C   UNL     1       4.587   3.288  22.358  0.00  0.00    +0.001 A 
ATOM     17  C   UNL     1       3.905   3.156  23.564  0.00  0.00    +0.000 A 
ATOM     18  C   UNL     1       4.606   3.217  24.768  0.00  0.00    +0.001 A 
ATOM     19  C   UNL     1       5.995   3.407  24.770  0.00  0.00    +0.008 A 
ENDBRANCH   1  14
BRANCH   2  20
ATOM     20  C   UNL     1      10.101   5.288  23.951  0.00  0.00    -0.021 A 
ATOM     21  C   UNL     1      10.470   6.278  24.873  0.00  0.00    +0.008 A 
ATOM     22  C   UNL     1      11.800   6.696  24.977  0.00  0.00    +0.001 A 
ATOM     23  C   UNL     1      12.773   6.133  24.156  0.00  0.00    +0.000 A 
ATOM     24  C   UNL     1      12.422   5.132  23.250  0.00  0.00    +0.001 A 
ATOM     25  C   UNL     1      11.094   4.700  23.156  0.00  0.00    +0.008 A 
ENDBRANCH   2  20
BRANCH   2  26
ATOM     26  C   UNL     1       7.787   6.247  23.945  0.00  0.00    +0.052 C 
BRANCH  26  27
ATOM     27  C   UNL     1       7.282   6.957  22.684  0.00  0.00    +0.113 C 
ATOM     28 CL   UNL     1       5.505   6.961  22.562  0.00  0.00    -0.125 Cl
ENDBRANCH  26  27
ENDBRANCH   2  26
TORSDOF 9
ENDMDL
