MODEL 1
REMARK VINA RESULT:      -5.1      0.000      0.000
REMARK  Name = 
REMARK  11 active torsions:
REMARK  status: ('A' for Active; 'I' for Inactive)
REMARK    1  A    between atoms: N_1  and  C_2
REMARK    2  A    between atoms: C_2  and  C_3
REMARK    3  A    between atoms: C_3  and  C_4
REMARK    4  A    between atoms: C_4  and  CA_5
REMARK    5  A    between atoms: CA_5  and  N_7
REMARK    6  A    between atoms: CA_5  and  C_15
REMARK    7  A    between atoms: C_8  and  C_10
REMARK    8  A    between atoms: C_10  and  C_11
REMARK    9  A    between atoms: C_11  and  C_12
REMARK   10  A    between atoms: C_12  and  O_13
REMARK   11  A    between atoms: C_15  and  O_16
REMARK                            x       y       z     vdW  Elec       q    Type
REMARK                         _______ _______ _______ _____ _____    ______ ____
ROOT
ATOM      1  CA  UNL     1      10.347  -0.367  23.444  0.00  0.00    +0.182 C 
ENDROOT
BRANCH   1   2
ATOM      2  N   UNL     1       9.291  -0.992  24.253  0.00  0.00    -0.302 N 
ATOM      3  H   UNL     1       8.450  -0.447  24.411  0.00  0.00    +0.150 HD
ATOM      4  C   UNL     1       9.265  -2.330  24.507  0.00  0.00    +0.214 C 
ATOM      5  O   UNL     1      10.055  -3.118  23.987  0.00  0.00    -0.276 OA
BRANCH   4   6
ATOM      6  C   UNL     1       8.119  -2.831  25.347  0.00  0.00    +0.107 C 
BRANCH   6   7
ATOM      7  C   UNL     1       8.635  -3.731  26.454  0.00  0.00    +0.129 C 
BRANCH   7   8
ATOM      8  C   UNL     1       8.630  -5.227  26.227  0.00  0.00    +0.305 C 
ATOM      9  O   UNL     1       7.685  -5.916  26.598  0.00  0.00    -0.251 OA
BRANCH   8  10
ATOM     10  O   UNL     1       9.686  -5.783  25.610  0.00  0.00    -0.481 OA
ATOM     11  H   UNL     1      10.288  -6.372  26.114  0.00  0.00    +0.295 HD
ENDBRANCH   8  10
ENDBRANCH   7   8
ENDBRANCH   6   7
ENDBRANCH   4   6
ENDBRANCH   1   2
BRANCH   1  12
ATOM     12  C   UNL     1       9.921  -0.325  21.965  0.00  0.00    +0.325 C 
ATOM     13  OXT UNL     1       9.511   0.667  21.381  0.00  0.00    -0.249 OA
BRANCH  12  14
ATOM     14  O   UNL     1      10.071  -1.520  21.336  0.00  0.00    -0.479 OA
ATOM     15  H   UNL     1      10.474  -1.434  20.442  0.00  0.00    +0.295 HD
ENDBRANCH  12  14
ENDBRANCH   1  12
BRANCH   1  16
ATOM     16  C   UNL     1      10.664   1.035  23.979  0.00  0.00    +0.035 C 
BRANCH  16  17
ATOM     17  C   UNL     1       9.443   1.766  24.559  0.00  0.00    +0.017 C 
BRANCH  17  18
ATOM     18  C   UNL     1       9.283   3.219  24.105  0.00  0.00    +0.078 C 
BRANCH  18  19
ATOM     19  N   UNL     1       8.932   3.293  22.695  0.00  0.00    -0.330 NA
ATOM     20  H   UNL     1       8.016   3.732  22.588  0.00  0.00    +0.118 HD
ATOM     21  H   UNL     1       9.591   3.903  22.210  0.00  0.00    +0.118 HD
ENDBRANCH  18  19
ENDBRANCH  17  18
ENDBRANCH  16  17
ENDBRANCH   1  16
TORSDOF 11
ENDMDL
MODEL 2
REMARK VINA RESULT:      -5.1      2.085      2.571
REMARK  Name = 
REMARK  11 active torsions:
REMARK  status: ('A' for Active; 'I' for Inactive)
REMARK    1  A    between atoms: N_1  and  C_2
REMARK    2  A    between atoms: C_2  and  C_3
REMARK    3  A    between atoms: C_3  and  C_4
REMARK    4  A    between atoms: C_4  and  CA_5
REMARK    5  A    between atoms: CA_5  and  N_7
REMARK    6  A    between atoms: CA_5  and  C_15
REMARK    7  A    between atoms: C_8  and  C_10
REMARK    8  A    between atoms: C_10  and  C_11
REMARK    9  A    between atoms: C_11  and  C_12
REMARK   10  A    between atoms: C_12  and  O_13
REMARK   11  A    between atoms: C_15  and  O_16
REMARK                            x       y       z     vdW  Elec       q    Type
REMARK                         _______ _______ _______ _____ _____    ______ ____
ROOT
ATOM      1  CA  UNL     1       9.683  -0.889  23.779  0.00  0.00    +0.182 C 
ENDROOT
BRANCH   1   2
ATOM      2  N   UNL     1       9.898  -2.254  24.280  0.00  0.00    -0.302 N 
ATOM      3  H   UNL     1      10.748  -2.420  24.810  0.00  0.00    +0.150 HD
ATOM      4  C   UNL     1       8.895  -3.174  24.340  0.00  0.00    +0.214 C 
ATOM      5  O   UNL     1       7.725  -2.894  24.084  0.00  0.00    -0.276 OA
BRANCH   4   6
ATOM      6  C   UNL     1       9.262  -4.531  24.880  0.00  0.00    +0.107 C 
BRANCH   6   7
ATOM      7  C   UNL     1       8.860  -4.641  26.339  0.00  0.00    +0.129 C 
BRANCH   7   8
ATOM      8  C   UNL     1       7.618  -5.431  26.687  0.00  0.00    +0.305 C 
ATOM      9  O   UNL     1       6.687  -5.522  25.893  0.00  0.00    -0.251 OA
BRANCH   8  10
ATOM     10  O   UNL     1       7.559  -6.034  27.886  0.00  0.00    -0.481 OA
ATOM     11  H   UNL     1       8.375  -6.410  28.282  0.00  0.00    +0.295 HD
ENDBRANCH   8  10
ENDBRANCH   7   8
ENDBRANCH   6   7
ENDBRANCH   4   6
ENDBRANCH   1   2
BRANCH   1  12
ATOM     12  C   UNL     1      10.298   0.132  24.754  0.00  0.00    +0.325 C 
ATOM     13  OXT UNL     1      11.155   0.953  24.461  0.00  0.00    -0.249 OA
BRANCH  12  14
ATOM     14  O   UNL     1       9.767   0.059  26.002  0.00  0.00    -0.479 OA
ATOM     15  H   UNL     1       9.087  -0.647  26.088  0.00  0.00    +0.295 HD
ENDBRANCH  12  14
ENDBRANCH   1  12
BRANCH   1  16
ATOM     16  C   UNL     1      10.267  -0.746  22.368  0.00  0.00    +0.035 C 
BRANCH  16  17
ATOM     17  C   UNL     1       9.283  -0.155  21.347  0.00  0.00    +0.017 C 
BRANCH  17  18
ATOM     18  C   UNL     1       8.925   1.317  21.569  0.00  0.00    +0.078 C 
BRANCH  18  19
ATOM     19  N   UNL     1      10.120   2.132  21.720  0.00  0.00    -0.330 NA
ATOM     20  H   UNL     1      10.817   1.858  21.025  0.00  0.00    +0.118 HD
ATOM     21  H   UNL     1       9.897   3.107  21.520  0.00  0.00    +0.118 HD
ENDBRANCH  18  19
ENDBRANCH  17  18
ENDBRANCH  16  17
ENDBRANCH   1  16
TORSDOF 11
ENDMDL
MODEL 3
REMARK VINA RESULT:      -4.9      2.544      6.523
REMARK  Name = 
REMARK  11 active torsions:
REMARK  status: ('A' for Active; 'I' for Inactive)
REMARK    1  A    between atoms: N_1  and  C_2
REMARK    2  A    between atoms: C_2  and  C_3
REMARK    3  A    between atoms: C_3  and  C_4
REMARK    4  A    between atoms: C_4  and  CA_5
REMARK    5  A    between atoms: CA_5  and  N_7
REMARK    6  A    between atoms: CA_5  and  C_15
REMARK    7  A    between atoms: C_8  and  C_10
REMARK    8  A    between atoms: C_10  and  C_11
REMARK    9  A    between atoms: C_11  and  C_12
REMARK   10  A    between atoms: C_12  and  O_13
REMARK   11  A    between atoms: C_15  and  O_16
REMARK                            x       y       z     vdW  Elec       q    Type
REMARK                         _______ _______ _______ _____ _____    ______ ____
ROOT
ATOM      1  CA  UNL     1       8.712  -4.317  24.251  0.00  0.00    +0.182 C 
ENDROOT
BRANCH   1   2
ATOM      2  N   UNL     1       8.681  -2.855  24.401  0.00  0.00    -0.302 N 
ATOM      3  H   UNL     1       8.160  -2.485  25.190  0.00  0.00    +0.150 HD
ATOM      4  C   UNL     1       9.551  -2.036  23.746  0.00  0.00    +0.214 C 
ATOM      5  O   UNL     1      10.489  -2.469  23.076  0.00  0.00    -0.276 OA
BRANCH   4   6
ATOM      6  C   UNL     1       9.404  -0.559  24.001  0.00  0.00    +0.107 C 
BRANCH   6   7
ATOM      7  C   UNL     1      10.384   0.220  23.145  0.00  0.00    +0.129 C 
BRANCH   7   8
ATOM      8  C   UNL     1       9.868   0.897  21.894  0.00  0.00    +0.305 C 
ATOM      9  O   UNL     1       9.155   0.291  21.100  0.00  0.00    -0.251 OA
BRANCH   8  10
ATOM     10  O   UNL     1      10.208   2.178  21.673  0.00  0.00    -0.481 OA
ATOM     11  H   UNL     1      11.037   2.384  21.190  0.00  0.00    +0.295 HD
ENDBRANCH   8  10
ENDBRANCH   7   8
ENDBRANCH   6   7
ENDBRANCH   4   6
ENDBRANCH   1   2
BRANCH   1  12
ATOM     12  C   UNL     1       9.134  -4.972  25.579  0.00  0.00    +0.325 C 
ATOM     13  OXT UNL     1       8.849  -4.551  26.690  0.00  0.00    -0.249 OA
BRANCH  12  14
ATOM     14  O   UNL     1       9.849  -6.113  25.403  0.00  0.00    -0.479 OA
ATOM     15  H   UNL     1      10.408  -6.094  24.593  0.00  0.00    +0.295 HD
ENDBRANCH  12  14
ENDBRANCH   1  12
BRANCH   1  16
ATOM     16  C   UNL     1       7.347  -4.829  23.777  0.00  0.00    +0.035 C 
BRANCH  16  17
ATOM     17  C   UNL     1       7.416  -5.699  22.513  0.00  0.00    +0.017 C 
BRANCH  17  18
ATOM     18  C   UNL     1       6.234  -5.543  21.554  0.00  0.00    +0.078 C 
BRANCH  18  19
ATOM     19  N   UNL     1       5.178  -4.737  22.147  0.00  0.00    -0.330 NA
ATOM     20  H   UNL     1       4.308  -4.867  21.628  0.00  0.00    +0.118 HD
ATOM     21  H   UNL     1       4.988  -5.065  23.095  0.00  0.00    +0.118 HD
ENDBRANCH  18  19
ENDBRANCH  17  18
ENDBRANCH  16  17
ENDBRANCH   1  16
TORSDOF 11
ENDMDL
MODEL 4
REMARK VINA RESULT:      -4.9      2.918      6.368
REMARK  Name = 
REMARK  11 active torsions:
REMARK  status: ('A' for Active; 'I' for Inactive)
REMARK    1  A    between atoms: N_1  and  C_2
REMARK    2  A    between atoms: C_2  and  C_3
REMARK    3  A    between atoms: C_3  and  C_4
REMARK    4  A    between atoms: C_4  and  CA_5
REMARK    5  A    between atoms: CA_5  and  N_7
REMARK    6  A    between atoms: CA_5  and  C_15
REMARK    7  A    between atoms: C_8  and  C_10
REMARK    8  A    between atoms: C_10  and  C_11
REMARK    9  A    between atoms: C_11  and  C_12
REMARK   10  A    between atoms: C_12  and  O_13
REMARK   11  A    between atoms: C_15  and  O_16
REMARK                            x       y       z     vdW  Elec       q    Type
REMARK                         _______ _______ _______ _____ _____    ______ ____
ROOT
ATOM      1  CA  UNL     1       7.138  -3.767  23.192  0.00  0.00    +0.182 C 
ENDROOT
BRANCH   1   2
ATOM      2  N   UNL     1       8.176  -3.034  22.453  0.00  0.00    -0.302 N 
ATOM      3  H   UNL     1       8.091  -3.014  21.442  0.00  0.00    +0.150 HD
ATOM      4  C   UNL     1       9.017  -2.151  23.061  0.00  0.00    +0.214 C 
ATOM      5  O   UNL     1       8.893  -1.826  24.241  0.00  0.00    -0.276 OA
BRANCH   4   6
ATOM      6  C   UNL     1      10.027  -1.470  22.176  0.00  0.00    +0.107 C 
BRANCH   6   7
ATOM      7  C   UNL     1       9.446  -0.191  21.604  0.00  0.00    +0.129 C 
BRANCH   7   8
ATOM      8  C   UNL     1       9.936   1.131  22.151  0.00  0.00    +0.305 C 
ATOM      9  O   UNL     1      10.468   1.197  23.256  0.00  0.00    -0.251 OA
BRANCH   8  10
ATOM     10  O   UNL     1       9.777   2.233  21.399  0.00  0.00    -0.481 OA
ATOM     11  H   UNL     1      10.247   2.308  20.541  0.00  0.00    +0.295 HD
ENDBRANCH   8  10
ENDBRANCH   7   8
ENDBRANCH   6   7
ENDBRANCH   4   6
ENDBRANCH   1   2
BRANCH   1  12
ATOM     12  C   UNL     1       5.980  -4.134  22.247  0.00  0.00    +0.325 C 
ATOM     13  OXT UNL     1       5.586  -3.442  21.320  0.00  0.00    -0.249 OA
BRANCH  12  14
ATOM     14  O   UNL     1       5.434  -5.346  22.524  0.00  0.00    -0.479 OA
ATOM     15  H   UNL     1       5.091  -5.804  21.723  0.00  0.00    +0.295 HD
ENDBRANCH  12  14
ENDBRANCH   1  12
BRANCH   1  16
ATOM     16  C   UNL     1       7.742  -5.012  23.855  0.00  0.00    +0.035 C 
BRANCH  16  17
ATOM     17  C   UNL     1       7.660  -4.997  25.390  0.00  0.00    +0.017 C 
BRANCH  17  18
ATOM     18  C   UNL     1       9.008  -4.913  26.109  0.00  0.00    +0.078 C 
BRANCH  18  19
ATOM     19  N   UNL     1      10.070  -5.503  25.307  0.00  0.00    -0.330 NA
ATOM     20  H   UNL     1      10.315  -4.874  24.540  0.00  0.00    +0.118 HD
ATOM     21  H   UNL     1      10.915  -5.594  25.872  0.00  0.00    +0.118 HD
ENDBRANCH  18  19
ENDBRANCH  17  18
ENDBRANCH  16  17
ENDBRANCH   1  16
TORSDOF 11
ENDMDL
MODEL 5
REMARK VINA RESULT:      -4.8      2.456      6.104
REMARK  Name = 
REMARK  11 active torsions:
REMARK  status: ('A' for Active; 'I' for Inactive)
REMARK    1  A    between atoms: N_1  and  C_2
REMARK    2  A    between atoms: C_2  and  C_3
REMARK    3  A    between atoms: C_3  and  C_4
REMARK    4  A    between atoms: C_4  and  CA_5
REMARK    5  A    between atoms: CA_5  and  N_7
REMARK    6  A    between atoms: CA_5  and  C_15
REMARK    7  A    between atoms: C_8  and  C_10
REMARK    8  A    between atoms: C_10  and  C_11
REMARK    9  A    between atoms: C_11  and  C_12
REMARK   10  A    between atoms: C_12  and  O_13
REMARK   11  A    between atoms: C_15  and  O_16
REMARK                            x       y       z     vdW  Elec       q    Type
REMARK                         _______ _______ _______ _____ _____    ______ ____
ROOT
ATOM      1  CA  UNL     1       8.655  -2.054  25.380  0.00  0.00    +0.182 C 
ENDROOT
BRANCH   1   2
ATOM      2  N   UNL     1       8.897  -1.419  24.076  0.00  0.00    -0.302 N 
ATOM      3  H   UNL     1       8.579  -0.462  23.966  0.00  0.00    +0.150 HD
ATOM      4  C   UNL     1       9.779  -1.928  23.171  0.00  0.00    +0.214 C 
ATOM      5  O   UNL     1      10.511  -2.884  23.426  0.00  0.00    -0.276 OA
BRANCH   4   6
ATOM      6  C   UNL     1       9.928  -1.168  21.879  0.00  0.00    +0.107 C 
BRANCH   6   7
ATOM      7  C   UNL     1       9.203   0.162  21.967  0.00  0.00    +0.129 C 
BRANCH   7   8
ATOM      8  C   UNL     1       9.976   1.374  22.439  0.00  0.00    +0.305 C 
ATOM      9  O   UNL     1      10.327   1.478  23.611  0.00  0.00    -0.251 OA
BRANCH   8  10
ATOM     10  O   UNL     1      10.270   2.333  21.546  0.00  0.00    -0.481 OA
ATOM     11  H   UNL     1       9.836   2.327  20.666  0.00  0.00    +0.295 HD
ENDBRANCH   8  10
ENDBRANCH   7   8
ENDBRANCH   6   7
ENDBRANCH   4   6
ENDBRANCH   1   2
BRANCH   1  12
ATOM     12  C   UNL     1       8.372  -0.977  26.444  0.00  0.00    +0.325 C 
ATOM     13  OXT UNL     1       7.322  -0.856  27.056  0.00  0.00    -0.249 OA
BRANCH  12  14
ATOM     14  O   UNL     1       9.436  -0.165  26.672  0.00  0.00    -0.479 OA
ATOM     15  H   UNL     1       9.468   0.606  26.062  0.00  0.00    +0.295 HD
ENDBRANCH  12  14
ENDBRANCH   1  12
BRANCH   1  16
ATOM     16  C   UNL     1       7.502  -3.058  25.272  0.00  0.00    +0.035 C 
BRANCH  16  17
ATOM     17  C   UNL     1       7.955  -4.527  25.300  0.00  0.00    +0.017 C 
BRANCH  17  18
ATOM     18  C   UNL     1       9.207  -4.802  26.136  0.00  0.00    +0.078 C 
BRANCH  18  19
ATOM     19  N   UNL     1      10.251  -5.418  25.332  0.00  0.00    -0.330 NA
ATOM     20  H   UNL     1      10.788  -4.696  24.848  0.00  0.00    +0.118 HD
ATOM     21  H   UNL     1      10.916  -5.896  25.941  0.00  0.00    +0.118 HD
ENDBRANCH  18  19
ENDBRANCH  17  18
ENDBRANCH  16  17
ENDBRANCH   1  16
TORSDOF 11
ENDMDL
MODEL 6
REMARK VINA RESULT:      -4.8      2.442      6.500
REMARK  Name = 
REMARK  11 active torsions:
REMARK  status: ('A' for Active; 'I' for Inactive)
REMARK    1  A    between atoms: N_1  and  C_2
REMARK    2  A    between atoms: C_2  and  C_3
REMARK    3  A    between atoms: C_3  and  C_4
REMARK    4  A    between atoms: C_4  and  CA_5
REMARK    5  A    between atoms: CA_5  and  N_7
REMARK    6  A    between atoms: CA_5  and  C_15
REMARK    7  A    between atoms: C_8  and  C_10
REMARK    8  A    between atoms: C_10  and  C_11
REMARK    9  A    between atoms: C_11  and  C_12
REMARK   10  A    between atoms: C_12  and  O_13
REMARK   11  A    between atoms: C_15  and  O_16
REMARK                            x       y       z     vdW  Elec       q    Type
REMARK                         _______ _______ _______ _____ _____    ______ ____
ROOT
ATOM      1  CA  UNL     1       8.236  -3.557  24.767  0.00  0.00    +0.182 C 
ENDROOT
BRANCH   1   2
ATOM      2  N   UNL     1       9.158  -2.549  24.223  0.00  0.00    -0.302 N 
ATOM      3  H   UNL     1      10.045  -2.433  24.701  0.00  0.00    +0.150 HD
ATOM      4  C   UNL     1       9.010  -2.027  22.973  0.00  0.00    +0.214 C 
ATOM      5  O   UNL     1       8.168  -2.443  22.178  0.00  0.00    -0.276 OA
BRANCH   4   6
ATOM      6  C   UNL     1      10.033  -1.007  22.548  0.00  0.00    +0.107 C 
BRANCH   6   7
ATOM      7  C   UNL     1       9.510  -0.197  21.378  0.00  0.00    +0.129 C 
BRANCH   7   8
ATOM      8  C   UNL     1       9.102   1.240  21.621  0.00  0.00    +0.305 C 
ATOM      9  O   UNL     1       7.937   1.528  21.878  0.00  0.00    -0.251 OA
BRANCH   8  10
ATOM     10  O   UNL     1      10.046   2.194  21.550  0.00  0.00    -0.481 OA
ATOM     11  H   UNL     1       9.974   2.898  20.871  0.00  0.00    +0.295 HD
ENDBRANCH   8  10
ENDBRANCH   7   8
ENDBRANCH   6   7
ENDBRANCH   4   6
ENDBRANCH   1   2
BRANCH   1  12
ATOM     12  C   UNL     1       8.676  -4.965  24.325  0.00  0.00    +0.325 C 
ATOM     13  OXT UNL     1       9.473  -5.671  24.926  0.00  0.00    -0.249 OA
BRANCH  12  14
ATOM     14  O   UNL     1       8.061  -5.380  23.188  0.00  0.00    -0.479 OA
ATOM     15  H   UNL     1       8.461  -4.998  22.374  0.00  0.00    +0.295 HD
ENDBRANCH  12  14
ENDBRANCH   1  12
BRANCH   1  16
ATOM     16  C   UNL     1       8.167  -3.441  26.294  0.00  0.00    +0.035 C 
BRANCH  16  17
ATOM     17  C   UNL     1       6.758  -3.658  26.869  0.00  0.00    +0.017 C 
BRANCH  17  18
ATOM     18  C   UNL     1       6.532  -5.018  27.534  0.00  0.00    +0.078 C 
BRANCH  18  19
ATOM     19  N   UNL     1       7.751  -5.813  27.531  0.00  0.00    -0.330 NA
ATOM     20  H   UNL     1       8.485  -5.321  27.017  0.00  0.00    +0.118 HD
ATOM     21  H   UNL     1       8.099  -5.909  28.486  0.00  0.00    +0.118 HD
ENDBRANCH  18  19
ENDBRANCH  17  18
ENDBRANCH  16  17
ENDBRANCH   1  16
TORSDOF 11
ENDMDL
MODEL 7
REMARK VINA RESULT:      -4.8      5.155      7.557
REMARK  Name = 
REMARK  11 active torsions:
REMARK  status: ('A' for Active; 'I' for Inactive)
REMARK    1  A    between atoms: N_1  and  C_2
REMARK    2  A    between atoms: C_2  and  C_3
REMARK    3  A    between atoms: C_3  and  C_4
REMARK    4  A    between atoms: C_4  and  CA_5
REMARK    5  A    between atoms: CA_5  and  N_7
REMARK    6  A    between atoms: CA_5  and  C_15
REMARK    7  A    between atoms: C_8  and  C_10
REMARK    8  A    between atoms: C_10  and  C_11
REMARK    9  A    between atoms: C_11  and  C_12
REMARK   10  A    between atoms: C_12  and  O_13
REMARK   11  A    between atoms: C_15  and  O_16
REMARK                            x       y       z     vdW  Elec       q    Type
REMARK                         _______ _______ _______ _____ _____    ______ ____
ROOT
ATOM      1  CA  UNL     1       8.011   3.670  23.798  0.00  0.00    +0.182 C 
ENDROOT
BRANCH   1   2
ATOM      2  N   UNL     1       9.092   4.618  23.491  0.00  0.00    -0.302 N 
ATOM      3  H   UNL     1       9.308   4.765  22.510  0.00  0.00    +0.150 HD
ATOM      4  C   UNL     1       9.564   5.506  24.409  0.00  0.00    +0.214 C 
ATOM      5  O   UNL     1       9.047   5.650  25.517  0.00  0.00    -0.276 OA
BRANCH   4   6
ATOM      6  C   UNL     1      10.670   6.420  23.951  0.00  0.00    +0.107 C 
BRANCH   6   7
ATOM      7  C   UNL     1      12.020   5.827  24.304  0.00  0.00    +0.129 C 
BRANCH   7   8
ATOM      8  C   UNL     1      12.765   5.048  23.242  0.00  0.00    +0.305 C 
ATOM      9  O   UNL     1      12.158   4.401  22.394  0.00  0.00    -0.251 OA
BRANCH   8  10
ATOM     10  O   UNL     1      14.108   5.082  23.248  0.00  0.00    -0.481 OA
ATOM     11  H   UNL     1      14.612   4.309  23.582  0.00  0.00    +0.295 HD
ENDBRANCH   8  10
ENDBRANCH   7   8
ENDBRANCH   6   7
ENDBRANCH   4   6
ENDBRANCH   1   2
BRANCH   1  12
ATOM     12  C   UNL     1       7.181   3.391  22.532  0.00  0.00    +0.325 C 
ATOM     13  OXT UNL     1       6.980   2.284  22.054  0.00  0.00    -0.249 OA
BRANCH  12  14
ATOM     14  O   UNL     1       6.647   4.516  21.991  0.00  0.00    -0.479 OA
ATOM     15  H   UNL     1       6.235   5.107  22.662  0.00  0.00    +0.295 HD
ENDBRANCH  12  14
ENDBRANCH   1  12
BRANCH   1  16
ATOM     16  C   UNL     1       8.593   2.379  24.387  0.00  0.00    +0.035 C 
BRANCH  16  17
ATOM     17  C   UNL     1      10.064   2.135  24.012  0.00  0.00    +0.017 C 
BRANCH  17  18
ATOM     18  C   UNL     1      10.279   1.304  22.744  0.00  0.00    +0.078 C 
BRANCH  18  19
ATOM     19  N   UNL     1      10.199   2.134  21.552  0.00  0.00    -0.330 NA
ATOM     20  H   UNL     1      11.078   2.084  21.035  0.00  0.00    +0.118 HD
ATOM     21  H   UNL     1       9.486   1.762  20.923  0.00  0.00    +0.118 HD
ENDBRANCH  18  19
ENDBRANCH  17  18
ENDBRANCH  16  17
ENDBRANCH   1  16
TORSDOF 11
ENDMDL
MODEL 8
REMARK VINA RESULT:      -4.7      2.265      6.172
REMARK  Name = 
REMARK  11 active torsions:
REMARK  status: ('A' for Active; 'I' for Inactive)
REMARK    1  A    between atoms: N_1  and  C_2
REMARK    2  A    between atoms: C_2  and  C_3
REMARK    3  A    between atoms: C_3  and  C_4
REMARK    4  A    between atoms: C_4  and  CA_5
REMARK    5  A    between atoms: CA_5  and  N_7
REMARK    6  A    between atoms: CA_5  and  C_15
REMARK    7  A    between atoms: C_8  and  C_10
REMARK    8  A    between atoms: C_10  and  C_11
REMARK    9  A    between atoms: C_11  and  C_12
REMARK   10  A    between atoms: C_12  and  O_13
REMARK   11  A    between atoms: C_15  and  O_16
REMARK                            x       y       z     vdW  Elec       q    Type
REMARK                         _______ _______ _______ _____ _____    ______ ____
ROOT
ATOM      1  CA  UNL     1       8.166  -4.621  24.311  0.00  0.00    +0.182 C 
ENDROOT
BRANCH   1   2
ATOM      2  N   UNL     1       8.283  -3.170  24.518  0.00  0.00    -0.302 N 
ATOM      3  H   UNL     1       7.639  -2.747  25.178  0.00  0.00    +0.150 HD
ATOM      4  C   UNL     1       9.382  -2.465  24.127  0.00  0.00    +0.214 C 
ATOM      5  O   UNL     1      10.390  -3.009  23.678  0.00  0.00    -0.276 OA
BRANCH   4   6
ATOM      6  C   UNL     1       9.365  -0.986  24.408  0.00  0.00    +0.107 C 
BRANCH   6   7
ATOM      7  C   UNL     1      10.330  -0.266  23.486  0.00  0.00    +0.129 C 
BRANCH   7   8
ATOM      8  C   UNL     1       9.911  -0.021  22.053  0.00  0.00    +0.305 C 
ATOM      9  O   UNL     1       9.584   1.100  21.675  0.00  0.00    -0.251 OA
BRANCH   8  10
ATOM     10  O   UNL     1       9.908  -1.061  21.201  0.00  0.00    -0.481 OA
ATOM     11  H   UNL     1      10.759  -1.445  20.901  0.00  0.00    +0.295 HD
ENDBRANCH   8  10
ENDBRANCH   7   8
ENDBRANCH   6   7
ENDBRANCH   4   6
ENDBRANCH   1   2
BRANCH   1  12
ATOM     12  C   UNL     1       8.789  -5.373  25.502  0.00  0.00    +0.325 C 
ATOM     13  OXT UNL     1       8.186  -5.712  26.509  0.00  0.00    -0.249 OA
BRANCH  12  14
ATOM     14  O   UNL     1      10.103  -5.662  25.317  0.00  0.00    -0.479 OA
ATOM     15  H   UNL     1      10.360  -5.687  24.367  0.00  0.00    +0.295 HD
ENDBRANCH  12  14
ENDBRANCH   1  12
BRANCH   1  16
ATOM     16  C   UNL     1       6.697  -5.008  24.105  0.00  0.00    +0.035 C 
BRANCH  16  17
ATOM     17  C   UNL     1       5.703  -3.909  24.515  0.00  0.00    +0.017 C 
BRANCH  17  18
ATOM     18  C   UNL     1       5.126  -4.052  25.925  0.00  0.00    +0.078 C 
BRANCH  18  19
ATOM     19  N   UNL     1       6.019  -3.477  26.919  0.00  0.00    -0.330 NA
ATOM     20  H   UNL     1       6.615  -2.770  26.484  0.00  0.00    +0.118 HD
ATOM     21  H   UNL     1       5.473  -2.982  27.625  0.00  0.00    +0.118 HD
ENDBRANCH  18  19
ENDBRANCH  17  18
ENDBRANCH  16  17
ENDBRANCH   1  16
TORSDOF 11
ENDMDL
MODEL 9
REMARK VINA RESULT:      -4.7      4.113      6.288
REMARK  Name = 
REMARK  11 active torsions:
REMARK  status: ('A' for Active; 'I' for Inactive)
REMARK    1  A    between atoms: N_1  and  C_2
REMARK    2  A    between atoms: C_2  and  C_3
REMARK    3  A    between atoms: C_3  and  C_4
REMARK    4  A    between atoms: C_4  and  CA_5
REMARK    5  A    between atoms: CA_5  and  N_7
REMARK    6  A    between atoms: CA_5  and  C_15
REMARK    7  A    between atoms: C_8  and  C_10
REMARK    8  A    between atoms: C_10  and  C_11
REMARK    9  A    between atoms: C_11  and  C_12
REMARK   10  A    between atoms: C_12  and  O_13
REMARK   11  A    between atoms: C_15  and  O_16
REMARK                            x       y       z     vdW  Elec       q    Type
REMARK                         _______ _______ _______ _____ _____    ______ ____
ROOT
ATOM      1  CA  UNL     1       5.759  -4.591  22.449  0.00  0.00    +0.182 C 
ENDROOT
BRANCH   1   2
ATOM      2  N   UNL     1       6.928  -4.456  23.329  0.00  0.00    -0.302 N 
ATOM      3  H   UNL     1       7.155  -5.252  23.916  0.00  0.00    +0.150 HD
ATOM      4  C   UNL     1       7.862  -3.479  23.155  0.00  0.00    +0.214 C 
ATOM      5  O   UNL     1       7.850  -2.718  22.188  0.00  0.00    -0.276 OA
BRANCH   4   6
ATOM      6  C   UNL     1       9.009  -3.466  24.131  0.00  0.00    +0.107 C 
BRANCH   6   7
ATOM      7  C   UNL     1       9.072  -4.781  24.884  0.00  0.00    +0.129 C 
BRANCH   7   8
ATOM      8  C   UNL     1       8.651  -4.800  26.337  0.00  0.00    +0.305 C 
ATOM      9  O   UNL     1       8.782  -3.805  27.044  0.00  0.00    -0.251 OA
BRANCH   8  10
ATOM     10  O   UNL     1       8.129  -5.933  26.837  0.00  0.00    -0.481 OA
ATOM     11  H   UNL     1       7.784  -6.619  26.226  0.00  0.00    +0.295 HD
ENDBRANCH   8  10
ENDBRANCH   7   8
ENDBRANCH   6   7
ENDBRANCH   4   6
ENDBRANCH   1   2
BRANCH   1  12
ATOM     12  C   UNL     1       6.027  -5.667  21.381  0.00  0.00    +0.325 C 
ATOM     13  OXT UNL     1       5.967  -5.488  20.174  0.00  0.00    -0.249 OA
BRANCH  12  14
ATOM     14  O   UNL     1       6.378  -6.866  21.915  0.00  0.00    -0.479 OA
ATOM     15  H   UNL     1       7.352  -6.984  21.987  0.00  0.00    +0.295 HD
ENDBRANCH  12  14
ENDBRANCH   1  12
BRANCH   1  16
ATOM     16  C   UNL     1       4.509  -4.915  23.276  0.00  0.00    +0.035 C 
BRANCH  16  17
ATOM     17  C   UNL     1       4.806  -5.223  24.752  0.00  0.00    +0.017 C 
BRANCH  17  18
ATOM     18  C   UNL     1       4.514  -6.663  25.183  0.00  0.00    +0.078 C 
BRANCH  18  19
ATOM     19  N   UNL     1       4.292  -7.522  24.030  0.00  0.00    -0.330 NA
ATOM     20  H   UNL     1       4.175  -8.490  24.336  0.00  0.00    +0.118 HD
ATOM     21  H   UNL     1       3.414  -7.267  23.577  0.00  0.00    +0.118 HD
ENDBRANCH  18  19
ENDBRANCH  17  18
ENDBRANCH  16  17
ENDBRANCH   1  16
TORSDOF 11
ENDMDL
