MODEL 1
REMARK VINA RESULT:      -5.2      0.000      0.000
REMARK  Name = 
REMARK  8 active torsions:
REMARK  status: ('A' for Active; 'I' for Inactive)
REMARK    1  A    between atoms: N_1  and  CA_2
REMARK    2  A    between atoms: CA_2  and  C_4
REMARK    3  A    between atoms: CA_2  and  C_14
REMARK    4  A    between atoms: C_4  and  C_5
REMARK    5  A    between atoms: C_5  and  C_6
REMARK    6  A    between atoms: C_6  and  N_7
REMARK    7  A    between atoms: N_10  and  N_11
REMARK    8  A    between atoms: C_14  and  O_15
REMARK                            x       y       z     vdW  Elec       q    Type
REMARK                         _______ _______ _______ _____ _____    ______ ____
ROOT
ATOM      1  C   UNL     1       9.464  -2.935  24.318  0.00  0.00    +0.196 C 
ENDROOT
BRANCH   1   2
ATOM      2  N   UNL     1       8.752  -3.823  25.206  0.00  0.00    -0.272 N 
ATOM      3  H   UNL     1       7.851  -3.486  25.554  0.00  0.00    +0.258 HD
ATOM      4  C   UNL     1       9.192  -5.003  25.701  0.00  0.00    +0.440 C 
ATOM      5  N   UNL     1       8.421  -5.730  26.543  0.00  0.00    +0.025 N 
ATOM      6  H   UNL     1       8.848  -6.594  26.836  0.00  0.00    +0.348 HD
ATOM      7  N   UNL     1      10.350  -5.508  25.409  0.00  0.00    -0.125 NA
ATOM      8  H   UNL     1      10.849  -4.886  24.771  0.00  0.00    +0.306 HD
BRANCH   5   9
ATOM      9  N   UNL     1       7.189  -5.433  26.959  0.00  0.00    +0.232 N 
ATOM     10  O   UNL     1       6.347  -6.279  26.654  0.00  0.00    +0.084 OA
ATOM     11  O   UNL     1       6.990  -4.390  27.591  0.00  0.00    -0.542 OA
ENDBRANCH   5   9
ENDBRANCH   1   2
BRANCH   1  12
ATOM     12  C   UNL     1       8.505  -2.299  23.309  0.00  0.00    +0.039 C 
BRANCH  12  13
ATOM     13  C   UNL     1       7.159  -3.022  23.353  0.00  0.00    +0.033 C 
BRANCH  13  14
ATOM     14  CA  UNL     1       6.841  -3.847  22.104  0.00  0.00    +0.161 C 
BRANCH  14  15
ATOM     15  N   UNL     1       5.518  -3.482  21.515  0.00  0.00    -0.318 NA
ATOM     16  H1  UNL     1       4.815  -3.477  22.262  0.00  0.00    +0.119 HD
ATOM     17  H2  UNL     1       5.569  -2.504  21.215  0.00  0.00    +0.119 HD
ENDBRANCH  14  15
BRANCH  14  18
ATOM     18  C   UNL     1       6.813  -5.341  22.484  0.00  0.00    +0.322 C 
ATOM     19  OXT UNL     1       7.022  -6.267  21.717  0.00  0.00    -0.249 OA
BRANCH  18  20
ATOM     20  O   UNL     1       6.539  -5.510  23.803  0.00  0.00    -0.480 OA
ATOM     21  H   UNL     1       5.723  -6.071  23.835  0.00  0.00    +0.295 HD
ENDBRANCH  18  20
ENDBRANCH  14  18
ENDBRANCH  13  14
ENDBRANCH  12  13
ENDBRANCH   1  12
TORSDOF 8
ENDMDL
MODEL 2
REMARK VINA RESULT:      -5.2      3.571      4.296
REMARK  Name = 
REMARK  8 active torsions:
REMARK  status: ('A' for Active; 'I' for Inactive)
REMARK    1  A    between atoms: N_1  and  CA_2
REMARK    2  A    between atoms: CA_2  and  C_4
REMARK    3  A    between atoms: CA_2  and  C_14
REMARK    4  A    between atoms: C_4  and  C_5
REMARK    5  A    between atoms: C_5  and  C_6
REMARK    6  A    between atoms: C_6  and  N_7
REMARK    7  A    between atoms: N_10  and  N_11
REMARK    8  A    between atoms: C_14  and  O_15
REMARK                            x       y       z     vdW  Elec       q    Type
REMARK                         _______ _______ _______ _____ _____    ______ ____
ROOT
ATOM      1  C   UNL     1       8.865  -3.252  23.961  0.00  0.00    +0.196 C 
ENDROOT
BRANCH   1   2
ATOM      2  N   UNL     1       8.331  -4.098  25.001  0.00  0.00    -0.272 N 
ATOM      3  H   UNL     1       7.393  -3.865  25.334  0.00  0.00    +0.258 HD
ATOM      4  C   UNL     1       8.975  -5.099  25.647  0.00  0.00    +0.440 C 
ATOM      5  N   UNL     1       8.354  -5.805  26.621  0.00  0.00    +0.025 N 
ATOM      6  H   UNL     1       8.927  -6.530  27.020  0.00  0.00    +0.348 HD
ATOM      7  N   UNL     1      10.197  -5.444  25.383  0.00  0.00    -0.125 NA
ATOM      8  H   UNL     1      10.571  -4.853  24.638  0.00  0.00    +0.306 HD
BRANCH   5   9
ATOM      9  N   UNL     1       7.098  -5.655  27.041  0.00  0.00    +0.232 N 
ATOM     10  O   UNL     1       6.974  -4.827  27.945  0.00  0.00    +0.084 OA
ATOM     11  O   UNL     1       6.194  -6.316  26.518  0.00  0.00    -0.542 OA
ENDBRANCH   5   9
ENDBRANCH   1   2
BRANCH   1  12
ATOM     12  C   UNL     1       9.049  -1.822  24.471  0.00  0.00    +0.039 C 
BRANCH  12  13
ATOM     13  C   UNL     1      10.057  -1.086  23.587  0.00  0.00    +0.033 C 
BRANCH  13  14
ATOM     14  CA  UNL     1       9.428  -0.150  22.552  0.00  0.00    +0.161 C 
BRANCH  14  15
ATOM     15  N   UNL     1       9.632  -0.642  21.158  0.00  0.00    -0.318 NA
ATOM     16  H1  UNL     1      10.544  -0.313  20.822  0.00  0.00    +0.119 HD
ATOM     17  H2  UNL     1       9.734  -1.660  21.197  0.00  0.00    +0.119 HD
ENDBRANCH  14  15
BRANCH  14  18
ATOM     18  C   UNL     1      10.073   1.244  22.681  0.00  0.00    +0.322 C 
ATOM     19  OXT UNL     1      10.659   1.660  23.667  0.00  0.00    -0.249 OA
BRANCH  18  20
ATOM     20  O   UNL     1       9.922   1.965  21.541  0.00  0.00    -0.480 OA
ATOM     21  H   UNL     1      10.647   2.639  21.555  0.00  0.00    +0.295 HD
ENDBRANCH  18  20
ENDBRANCH  14  18
ENDBRANCH  13  14
ENDBRANCH  12  13
ENDBRANCH   1  12
TORSDOF 8
ENDMDL
MODEL 3
REMARK VINA RESULT:      -5.0      2.391      2.998
REMARK  Name = 
REMARK  8 active torsions:
REMARK  status: ('A' for Active; 'I' for Inactive)
REMARK    1  A    between atoms: N_1  and  CA_2
REMARK    2  A    between atoms: CA_2  and  C_4
REMARK    3  A    between atoms: CA_2  and  C_14
REMARK    4  A    between atoms: C_4  and  C_5
REMARK    5  A    between atoms: C_5  and  C_6
REMARK    6  A    between atoms: C_6  and  N_7
REMARK    7  A    between atoms: N_10  and  N_11
REMARK    8  A    between atoms: C_14  and  O_15
REMARK                            x       y       z     vdW  Elec       q    Type
REMARK                         _______ _______ _______ _____ _____    ______ ____
ROOT
ATOM      1  C   UNL     1       7.201  -4.601  23.459  0.00  0.00    +0.196 C 
ENDROOT
BRANCH   1   2
ATOM      2  N   UNL     1       7.313  -4.919  24.863  0.00  0.00    -0.272 N 
ATOM      3  H   UNL     1       6.499  -4.696  25.442  0.00  0.00    +0.258 HD
ATOM      4  C   UNL     1       8.409  -5.385  25.506  0.00  0.00    +0.440 C 
ATOM      5  N   UNL     1       8.378  -5.625  26.838  0.00  0.00    +0.025 N 
ATOM      6  H   UNL     1       9.246  -5.980  27.203  0.00  0.00    +0.348 HD
ATOM      7  N   UNL     1       9.532  -5.630  24.909  0.00  0.00    -0.125 NA
ATOM      8  H   UNL     1       9.450  -5.417  23.913  0.00  0.00    +0.306 HD
BRANCH   5   9
ATOM      9  N   UNL     1       7.333  -5.480  27.654  0.00  0.00    +0.232 N 
ATOM     10  O   UNL     1       7.111  -6.470  28.353  0.00  0.00    +0.084 OA
ATOM     11  O   UNL     1       6.699  -4.420  27.656  0.00  0.00    -0.542 OA
ENDBRANCH   5   9
ENDBRANCH   1   2
BRANCH   1  12
ATOM     12  C   UNL     1       7.013  -3.096  23.260  0.00  0.00    +0.039 C 
BRANCH  12  13
ATOM     13  C   UNL     1       7.914  -2.611  22.125  0.00  0.00    +0.033 C 
BRANCH  13  14
ATOM     14  CA  UNL     1       8.884  -1.495  22.518  0.00  0.00    +0.161 C 
BRANCH  14  15
ATOM     15  N   UNL     1       9.811  -1.142  21.402  0.00  0.00    -0.318 NA
ATOM     16  H1  UNL     1      10.031  -1.994  20.874  0.00  0.00    +0.119 HD
ATOM     17  H2  UNL     1       9.292  -0.564  20.735  0.00  0.00    +0.119 HD
ENDBRANCH  14  15
BRANCH  14  18
ATOM     18  C   UNL     1       9.723  -1.963  23.723  0.00  0.00    +0.322 C 
ATOM     19  OXT UNL     1      10.375  -2.994  23.769  0.00  0.00    -0.249 OA
BRANCH  18  20
ATOM     20  O   UNL     1       9.663  -1.070  24.744  0.00  0.00    -0.480 OA
ATOM     21  H   UNL     1       9.941  -0.203  24.355  0.00  0.00    +0.295 HD
ENDBRANCH  18  20
ENDBRANCH  14  18
ENDBRANCH  13  14
ENDBRANCH  12  13
ENDBRANCH   1  12
TORSDOF 8
ENDMDL
MODEL 4
REMARK VINA RESULT:      -5.0      1.622      4.491
REMARK  Name = 
REMARK  8 active torsions:
REMARK  status: ('A' for Active; 'I' for Inactive)
REMARK    1  A    between atoms: N_1  and  CA_2
REMARK    2  A    between atoms: CA_2  and  C_4
REMARK    3  A    between atoms: CA_2  and  C_14
REMARK    4  A    between atoms: C_4  and  C_5
REMARK    5  A    between atoms: C_5  and  C_6
REMARK    6  A    between atoms: C_6  and  N_7
REMARK    7  A    between atoms: N_10  and  N_11
REMARK    8  A    between atoms: C_14  and  O_15
REMARK                            x       y       z     vdW  Elec       q    Type
REMARK                         _______ _______ _______ _____ _____    ______ ____
ROOT
ATOM      1  C   UNL     1       8.880  -2.209  22.985  0.00  0.00    +0.196 C 
ENDROOT
BRANCH   1   2
ATOM      2  N   UNL     1       7.989  -3.235  22.498  0.00  0.00    -0.272 N 
ATOM      3  H   UNL     1       8.433  -4.078  22.125  0.00  0.00    +0.258 HD
ATOM      4  C   UNL     1       6.641  -3.160  22.393  0.00  0.00    +0.440 C 
ATOM      5  N   UNL     1       5.928  -4.199  21.900  0.00  0.00    +0.025 N 
ATOM      6  H   UNL     1       4.935  -4.032  21.882  0.00  0.00    +0.348 HD
ATOM      7  N   UNL     1       5.958  -2.118  22.751  0.00  0.00    -0.125 NA
ATOM      8  H   UNL     1       6.588  -1.396  23.107  0.00  0.00    +0.306 HD
BRANCH   5   9
ATOM      9  N   UNL     1       6.403  -5.379  21.501  0.00  0.00    +0.232 N 
ATOM     10  O   UNL     1       5.987  -5.732  20.397  0.00  0.00    +0.084 OA
ATOM     11  O   UNL     1       7.189  -5.999  22.224  0.00  0.00    -0.542 OA
ENDBRANCH   5   9
ENDBRANCH   1   2
BRANCH   1  12
ATOM     12  C   UNL     1       9.755  -2.748  24.118  0.00  0.00    +0.039 C 
BRANCH  12  13
ATOM     13  C   UNL     1       8.869  -3.240  25.263  0.00  0.00    +0.033 C 
BRANCH  13  14
ATOM     14  CA  UNL     1       9.057  -4.716  25.621  0.00  0.00    +0.161 C 
BRANCH  14  15
ATOM     15  N   UNL     1       9.434  -5.536  24.432  0.00  0.00    -0.318 NA
ATOM     16  H1  UNL     1       8.987  -6.456  24.511  0.00  0.00    +0.119 HD
ATOM     17  H2  UNL     1       8.992  -5.114  23.609  0.00  0.00    +0.119 HD
ENDBRANCH  14  15
BRANCH  14  18
ATOM     18  C   UNL     1       7.736  -5.263  26.196  0.00  0.00    +0.322 C 
ATOM     19  OXT UNL     1       6.651  -5.213  25.639  0.00  0.00    -0.249 OA
BRANCH  18  20
ATOM     20  O   UNL     1       7.925  -5.832  27.414  0.00  0.00    -0.480 OA
ATOM     21  H   UNL     1       8.904  -5.950  27.502  0.00  0.00    +0.295 HD
ENDBRANCH  18  20
ENDBRANCH  14  18
ENDBRANCH  13  14
ENDBRANCH  12  13
ENDBRANCH   1  12
TORSDOF 8
ENDMDL
MODEL 5
REMARK VINA RESULT:      -4.9      4.222      5.932
REMARK  Name = 
REMARK  8 active torsions:
REMARK  status: ('A' for Active; 'I' for Inactive)
REMARK    1  A    between atoms: N_1  and  CA_2
REMARK    2  A    between atoms: CA_2  and  C_4
REMARK    3  A    between atoms: CA_2  and  C_14
REMARK    4  A    between atoms: C_4  and  C_5
REMARK    5  A    between atoms: C_5  and  C_6
REMARK    6  A    between atoms: C_6  and  N_7
REMARK    7  A    between atoms: N_10  and  N_11
REMARK    8  A    between atoms: C_14  and  O_15
REMARK                            x       y       z     vdW  Elec       q    Type
REMARK                         _______ _______ _______ _____ _____    ______ ____
ROOT
ATOM      1  C   UNL     1       9.538  -1.618  24.259  0.00  0.00    +0.196 C 
ENDROOT
BRANCH   1   2
ATOM      2  N   UNL     1       9.323  -0.483  23.393  0.00  0.00    -0.272 N 
ATOM      3  H   UNL     1       8.908   0.344  23.829  0.00  0.00    +0.258 HD
ATOM      4  C   UNL     1       9.520  -0.432  22.054  0.00  0.00    +0.440 C 
ATOM      5  N   UNL     1       9.260   0.701  21.361  0.00  0.00    +0.025 N 
ATOM      6  H   UNL     1       9.456   0.624  20.376  0.00  0.00    +0.348 HD
ATOM      7  N   UNL     1       9.963  -1.435  21.363  0.00  0.00    -0.125 NA
ATOM      8  H   UNL     1      10.126  -2.235  21.977  0.00  0.00    +0.306 HD
BRANCH   5   9
ATOM      9  N   UNL     1       8.832   1.863  21.856  0.00  0.00    +0.232 N 
ATOM     10  O   UNL     1       9.673   2.448  22.541  0.00  0.00    +0.084 OA
ATOM     11  O   UNL     1       7.688   2.253  21.603  0.00  0.00    -0.542 OA
ENDBRANCH   5   9
ENDBRANCH   1   2
BRANCH   1  12
ATOM     12  C   UNL     1       8.253  -2.436  24.403  0.00  0.00    +0.039 C 
BRANCH  12  13
ATOM     13  C   UNL     1       8.573  -3.925  24.269  0.00  0.00    +0.033 C 
BRANCH  13  14
ATOM     14  CA  UNL     1       9.028  -4.595  25.567  0.00  0.00    +0.161 C 
BRANCH  14  15
ATOM     15  N   UNL     1      10.164  -5.537  25.341  0.00  0.00    -0.318 NA
ATOM     16  H1  UNL     1      11.045  -5.036  25.501  0.00  0.00    +0.119 HD
ATOM     17  H2  UNL     1      10.140  -6.241  26.086  0.00  0.00    +0.119 HD
ENDBRANCH  14  15
BRANCH  14  18
ATOM     18  C   UNL     1       7.846  -5.386  26.163  0.00  0.00    +0.322 C 
ATOM     19  OXT UNL     1       6.798  -5.626  25.585  0.00  0.00    -0.249 OA
BRANCH  18  20
ATOM     20  O   UNL     1       8.117  -5.803  27.426  0.00  0.00    -0.480 OA
ATOM     21  H   UNL     1       7.651  -6.671  27.524  0.00  0.00    +0.295 HD
ENDBRANCH  18  20
ENDBRANCH  14  18
ENDBRANCH  13  14
ENDBRANCH  12  13
ENDBRANCH   1  12
TORSDOF 8
ENDMDL
MODEL 6
REMARK VINA RESULT:      -4.8      3.436      4.833
REMARK  Name = 
REMARK  8 active torsions:
REMARK  status: ('A' for Active; 'I' for Inactive)
REMARK    1  A    between atoms: N_1  and  CA_2
REMARK    2  A    between atoms: CA_2  and  C_4
REMARK    3  A    between atoms: CA_2  and  C_14
REMARK    4  A    between atoms: C_4  and  C_5
REMARK    5  A    between atoms: C_5  and  C_6
REMARK    6  A    between atoms: C_6  and  N_7
REMARK    7  A    between atoms: N_10  and  N_11
REMARK    8  A    between atoms: C_14  and  O_15
REMARK                            x       y       z     vdW  Elec       q    Type
REMARK                         _______ _______ _______ _____ _____    ______ ____
ROOT
ATOM      1  C   UNL     1       7.816  -1.598  25.824  0.00  0.00    +0.196 C 
ENDROOT
BRANCH   1   2
ATOM      2  N   UNL     1       8.640  -1.261  24.687  0.00  0.00    -0.272 N 
ATOM      3  H   UNL     1       8.481  -1.806  23.837  0.00  0.00    +0.258 HD
ATOM      4  C   UNL     1       9.662  -0.374  24.658  0.00  0.00    +0.440 C 
ATOM      5  N   UNL     1      10.366  -0.167  23.521  0.00  0.00    +0.025 N 
ATOM      6  H   UNL     1      11.093   0.523  23.616  0.00  0.00    +0.348 HD
ATOM      7  N   UNL     1      10.026   0.324  25.688  0.00  0.00    -0.125 NA
ATOM      8  H   UNL     1       9.435   0.095  26.490  0.00  0.00    +0.306 HD
BRANCH   5   9
ATOM      9  N   UNL     1      10.157  -0.740  22.335  0.00  0.00    +0.232 N 
ATOM     10  O   UNL     1      10.427  -1.942  22.312  0.00  0.00    +0.084 OA
ATOM     11  O   UNL     1       9.724  -0.065  21.396  0.00  0.00    -0.542 OA
ENDBRANCH   5   9
ENDBRANCH   1   2
BRANCH   1  12
ATOM     12  C   UNL     1       8.228  -2.951  26.406  0.00  0.00    +0.039 C 
BRANCH  12  13
ATOM     13  C   UNL     1       7.542  -4.075  25.629  0.00  0.00    +0.033 C 
BRANCH  13  14
ATOM     14  CA  UNL     1       8.435  -4.770  24.598  0.00  0.00    +0.161 C 
BRANCH  14  15
ATOM     15  N   UNL     1       9.798  -4.164  24.541  0.00  0.00    -0.318 NA
ATOM     16  H1  UNL     1      10.289  -4.374  25.416  0.00  0.00    +0.119 HD
ATOM     17  H2  UNL     1      10.334  -4.667  23.828  0.00  0.00    +0.119 HD
ENDBRANCH  14  15
BRANCH  14  18
ATOM     18  C   UNL     1       7.783  -4.645  23.207  0.00  0.00    +0.322 C 
ATOM     19  OXT UNL     1       7.229  -5.551  22.605  0.00  0.00    -0.249 OA
BRANCH  18  20
ATOM     20  O   UNL     1       7.888  -3.380  22.724  0.00  0.00    -0.480 OA
ATOM     21  H   UNL     1       8.856  -3.173  22.732  0.00  0.00    +0.295 HD
ENDBRANCH  18  20
ENDBRANCH  14  18
ENDBRANCH  13  14
ENDBRANCH  12  13
ENDBRANCH   1  12
TORSDOF 8
ENDMDL
MODEL 7
REMARK VINA RESULT:      -4.8      3.335      4.986
REMARK  Name = 
REMARK  8 active torsions:
REMARK  status: ('A' for Active; 'I' for Inactive)
REMARK    1  A    between atoms: N_1  and  CA_2
REMARK    2  A    between atoms: CA_2  and  C_4
REMARK    3  A    between atoms: CA_2  and  C_14
REMARK    4  A    between atoms: C_4  and  C_5
REMARK    5  A    between atoms: C_5  and  C_6
REMARK    6  A    between atoms: C_6  and  N_7
REMARK    7  A    between atoms: N_10  and  N_11
REMARK    8  A    between atoms: C_14  and  O_15
REMARK                            x       y       z     vdW  Elec       q    Type
REMARK                         _______ _______ _______ _____ _____    ______ ____
ROOT
ATOM      1  C   UNL     1       7.029  -1.609  26.090  0.00  0.00    +0.196 C 
ENDROOT
BRANCH   1   2
ATOM      2  N   UNL     1       7.967  -1.449  25.004  0.00  0.00    -0.272 N 
ATOM      3  H   UNL     1       7.771  -1.987  24.157  0.00  0.00    +0.258 HD
ATOM      4  C   UNL     1       9.123  -0.746  25.025  0.00  0.00    +0.440 C 
ATOM      5  N   UNL     1       9.921  -0.695  23.932  0.00  0.00    +0.025 N 
ATOM      6  H   UNL     1      10.745  -0.132  24.062  0.00  0.00    +0.348 HD
ATOM      7  N   UNL     1       9.535  -0.086  26.062  0.00  0.00    -0.125 NA
ATOM      8  H   UNL     1       8.865  -0.189  26.827  0.00  0.00    +0.306 HD
BRANCH   5   9
ATOM      9  N   UNL     1       9.692  -1.262  22.747  0.00  0.00    +0.232 N 
ATOM     10  O   UNL     1      10.687  -1.792  22.253  0.00  0.00    +0.084 OA
ATOM     11  O   UNL     1       8.558  -1.223  22.258  0.00  0.00    -0.542 OA
ENDBRANCH   5   9
ENDBRANCH   1   2
BRANCH   1  12
ATOM     12  C   UNL     1       7.098  -3.027  26.658  0.00  0.00    +0.039 C 
BRANCH  12  13
ATOM     13  C   UNL     1       7.088  -4.040  25.513  0.00  0.00    +0.033 C 
BRANCH  13  14
ATOM     14  CA  UNL     1       7.998  -5.252  25.730  0.00  0.00    +0.161 C 
BRANCH  14  15
ATOM     15  N   UNL     1       8.086  -5.633  27.171  0.00  0.00    -0.318 NA
ATOM     16  H1  UNL     1       7.292  -5.218  27.671  0.00  0.00    +0.119 HD
ATOM     17  H2  UNL     1       7.923  -6.642  27.238  0.00  0.00    +0.119 HD
ENDBRANCH  14  15
BRANCH  14  18
ATOM     18  C   UNL     1       9.414  -4.911  25.225  0.00  0.00    +0.322 C 
ATOM     19  OXT UNL     1       9.686  -4.011  24.447  0.00  0.00    -0.249 OA
BRANCH  18  20
ATOM     20  O   UNL     1      10.345  -5.736  25.770  0.00  0.00    -0.480 OA
ATOM     21  H   UNL     1      11.121  -5.158  25.980  0.00  0.00    +0.295 HD
ENDBRANCH  18  20
ENDBRANCH  14  18
ENDBRANCH  13  14
ENDBRANCH  12  13
ENDBRANCH   1  12
TORSDOF 8
ENDMDL
MODEL 8
REMARK VINA RESULT:      -4.6      2.824      3.899
REMARK  Name = 
REMARK  8 active torsions:
REMARK  status: ('A' for Active; 'I' for Inactive)
REMARK    1  A    between atoms: N_1  and  CA_2
REMARK    2  A    between atoms: CA_2  and  C_4
REMARK    3  A    between atoms: CA_2  and  C_14
REMARK    4  A    between atoms: C_4  and  C_5
REMARK    5  A    between atoms: C_5  and  C_6
REMARK    6  A    between atoms: C_6  and  N_7
REMARK    7  A    between atoms: N_10  and  N_11
REMARK    8  A    between atoms: C_14  and  O_15
REMARK                            x       y       z     vdW  Elec       q    Type
REMARK                         _______ _______ _______ _____ _____    ______ ____
ROOT
ATOM      1  C   UNL     1       8.668  -2.923  25.903  0.00  0.00    +0.196 C 
ENDROOT
BRANCH   1   2
ATOM      2  N   UNL     1       8.135  -3.654  24.778  0.00  0.00    -0.272 N 
ATOM      3  H   UNL     1       7.318  -3.243  24.320  0.00  0.00    +0.258 HD
ATOM      4  C   UNL     1       8.537  -4.867  24.331  0.00  0.00    +0.440 C 
ATOM      5  N   UNL     1       7.932  -5.447  23.269  0.00  0.00    +0.025 N 
ATOM      6  H   UNL     1       8.324  -6.341  23.021  0.00  0.00    +0.348 HD
ATOM      7  N   UNL     1       9.505  -5.538  24.873  0.00  0.00    -0.125 NA
ATOM      8  H   UNL     1       9.891  -5.015  25.662  0.00  0.00    +0.306 HD
BRANCH   5   9
ATOM      9  N   UNL     1       6.942  -4.938  22.534  0.00  0.00    +0.232 N 
ATOM     10  O   UNL     1       5.995  -5.710  22.377  0.00  0.00    +0.084 OA
ATOM     11  O   UNL     1       7.036  -3.788  22.092  0.00  0.00    -0.542 OA
ENDBRANCH   5   9
ENDBRANCH   1   2
BRANCH   1  12
ATOM     12  C   UNL     1       8.379  -1.428  25.759  0.00  0.00    +0.039 C 
BRANCH  12  13
ATOM     13  C   UNL     1       9.449  -0.779  24.880  0.00  0.00    +0.033 C 
BRANCH  13  14
ATOM     14  CA  UNL     1       9.028  -0.568  23.423  0.00  0.00    +0.161 C 
BRANCH  14  15
ATOM     15  N   UNL     1       7.592  -0.908  23.202  0.00  0.00    -0.318 NA
ATOM     16  H1  UNL     1       7.538  -1.774  22.655  0.00  0.00    +0.119 HD
ATOM     17  H2  UNL     1       7.187  -1.161  24.108  0.00  0.00    +0.119 HD
ENDBRANCH  14  15
BRANCH  14  18
ATOM     18  C   UNL     1       9.891  -1.469  22.518  0.00  0.00    +0.322 C 
ATOM     19  OXT UNL     1      10.521  -2.445  22.891  0.00  0.00    -0.249 OA
BRANCH  18  20
ATOM     20  O   UNL     1       9.857  -1.050  21.227  0.00  0.00    -0.480 OA
ATOM     21  H   UNL     1      10.429  -1.684  20.727  0.00  0.00    +0.295 HD
ENDBRANCH  18  20
ENDBRANCH  14  18
ENDBRANCH  13  14
ENDBRANCH  12  13
ENDBRANCH   1  12
TORSDOF 8
ENDMDL
MODEL 9
REMARK VINA RESULT:      -4.6      3.713      5.123
REMARK  Name = 
REMARK  8 active torsions:
REMARK  status: ('A' for Active; 'I' for Inactive)
REMARK    1  A    between atoms: N_1  and  CA_2
REMARK    2  A    between atoms: CA_2  and  C_4
REMARK    3  A    between atoms: CA_2  and  C_14
REMARK    4  A    between atoms: C_4  and  C_5
REMARK    5  A    between atoms: C_5  and  C_6
REMARK    6  A    between atoms: C_6  and  N_7
REMARK    7  A    between atoms: N_10  and  N_11
REMARK    8  A    between atoms: C_14  and  O_15
REMARK                            x       y       z     vdW  Elec       q    Type
REMARK                         _______ _______ _______ _____ _____    ______ ____
ROOT
ATOM      1  C   UNL     1       7.594  -2.857  22.303  0.00  0.00    +0.196 C 
ENDROOT
BRANCH   1   2
ATOM      2  N   UNL     1       8.481  -1.727  22.442  0.00  0.00    -0.272 N 
ATOM      3  H   UNL     1       8.212  -0.878  21.940  0.00  0.00    +0.258 HD
ATOM      4  C   UNL     1       9.675  -1.704  23.081  0.00  0.00    +0.440 C 
ATOM      5  N   UNL     1      10.416  -0.572  23.119  0.00  0.00    +0.025 N 
ATOM      6  H   UNL     1      11.277  -0.672  23.632  0.00  0.00    +0.348 HD
ATOM      7  N   UNL     1      10.176  -2.734  23.687  0.00  0.00    -0.125 NA
ATOM      8  H   UNL     1       9.542  -3.531  23.599  0.00  0.00    +0.306 HD
BRANCH   5   9
ATOM      9  N   UNL     1      10.095   0.613  22.599  0.00  0.00    +0.232 N 
ATOM     10  O   UNL     1      10.285   1.558  23.368  0.00  0.00    +0.084 OA
ATOM     11  O   UNL     1       9.659   0.679  21.445  0.00  0.00    -0.542 OA
ENDBRANCH   5   9
ENDBRANCH   1   2
BRANCH   1  12
ATOM     12  C   UNL     1       6.568  -2.879  23.438  0.00  0.00    +0.039 C 
BRANCH  12  13
ATOM     13  C   UNL     1       6.590  -4.244  24.125  0.00  0.00    +0.033 C 
BRANCH  13  14
ATOM     14  CA  UNL     1       7.233  -4.244  25.514  0.00  0.00    +0.161 C 
BRANCH  14  15
ATOM     15  N   UNL     1       7.768  -2.900  25.881  0.00  0.00    -0.318 NA
ATOM     16  H1  UNL     1       8.354  -2.995  26.718  0.00  0.00    +0.119 HD
ATOM     17  H2  UNL     1       8.425  -2.614  25.149  0.00  0.00    +0.119 HD
ENDBRANCH  14  15
BRANCH  14  18
ATOM     18  C   UNL     1       8.397  -5.256  25.527  0.00  0.00    +0.322 C 
ATOM     19  OXT UNL     1       9.193  -5.423  24.618  0.00  0.00    -0.249 OA
BRANCH  18  20
ATOM     20  O   UNL     1       8.441  -5.942  26.697  0.00  0.00    -0.480 OA
ATOM     21  H   UNL     1       9.046  -5.425  27.286  0.00  0.00    +0.295 HD
ENDBRANCH  18  20
ENDBRANCH  14  18
ENDBRANCH  13  14
ENDBRANCH  12  13
ENDBRANCH   1  12
TORSDOF 8
ENDMDL
