MODEL 1
REMARK VINA RESULT:      -7.1      0.000      0.000
REMARK  Name = 
REMARK  6 active torsions:
REMARK  status: ('A' for Active; 'I' for Inactive)
REMARK    1  A    between atoms: C_2  and  C_3
REMARK    2  A    between atoms: C_6  and  C_7
REMARK    3  A    between atoms: C_7  and  O_8
REMARK    4  A    between atoms: C_11  and  C_13
REMARK    5  A    between atoms: C_16  and  O_17
REMARK    6  A    between atoms: C_22  and  C_24
REMARK                            x       y       z     vdW  Elec       q    Type
REMARK                         _______ _______ _______ _____ _____    ______ ____
ROOT
ATOM      1  C   UNL     1       6.426  -2.496  23.342  0.00  0.00    -0.008 C 
ATOM      2  C   UNL     1       5.639  -2.954  22.105  0.00  0.00    +0.008 C 
ATOM      3  C   UNL     1       7.724  -3.336  23.502  0.00  0.00    +0.029 C 
ATOM      4  C   UNL     1       7.406  -4.639  24.281  0.00  0.00    +0.003 C 
ATOM      5  C   UNL     1       8.534  -5.670  24.170  0.00  0.00    +0.008 C 
ATOM      6  C   UNL     1       7.037  -4.259  25.739  0.00  0.00    +0.020 C 
ATOM      7  C   UNL     1       8.129  -3.346  26.351  0.00  0.00    +0.170 C 
ATOM      8  O   UNL     1       8.383  -2.196  25.550  0.00  0.00    -0.371 OA
ATOM      9  C   UNL     1       5.686  -3.502  25.680  0.00  0.00    +0.012 C 
ATOM     10  C   UNL     1       8.834  -2.543  24.237  0.00  0.00    +0.152 C 
ATOM     11  C   UNL     1       5.532  -2.427  24.595  0.00  0.00    +0.004 C 
ENDROOT
BRANCH  10  12
ATOM     12  C   UNL     1       9.327  -1.298  23.510  0.00  0.00    -0.018 A 
ATOM     13  C   UNL     1       9.761  -0.181  24.243  0.00  0.00    +0.010 A 
ATOM     14  C   UNL     1      10.089   1.014  23.594  0.00  0.00    +0.046 A 
ATOM     15  C   UNL     1       9.994   1.095  22.211  0.00  0.00    +0.117 A 
ATOM     16  C   UNL     1       9.633  -0.013  21.459  0.00  0.00    +0.046 A 
ATOM     17  C   UNL     1       9.305  -1.206  22.107  0.00  0.00    +0.010 A 
BRANCH  15  18
ATOM     18  O   UNL     1      10.243   2.301  21.622  0.00  0.00    -0.507 OA
ATOM     19  H   UNL     1      10.970   2.182  20.988  0.00  0.00    +0.292 HD
ENDBRANCH  15  18
ENDBRANCH  10  12
BRANCH   6  20
ATOM     20  C   UNL     1       6.889  -5.504  26.648  0.00  0.00    +0.165 C 
BRANCH  20  21
ATOM     21  O   UNL     1       8.016  -5.680  27.500  0.00  0.00    -0.394 OA
ATOM     22  H   UNL     1       8.806  -5.756  26.939  0.00  0.00    +0.209 HD
ENDBRANCH  20  21
ENDBRANCH   6  20
TORSDOF 4
ENDMDL
MODEL 2
REMARK VINA RESULT:      -6.8      1.406      1.651
REMARK  Name = 
REMARK  6 active torsions:
REMARK  status: ('A' for Active; 'I' for Inactive)
REMARK    1  A    between atoms: C_2  and  C_3
REMARK    2  A    between atoms: C_6  and  C_7
REMARK    3  A    between atoms: C_7  and  O_8
REMARK    4  A    between atoms: C_11  and  C_13
REMARK    5  A    between atoms: C_16  and  O_17
REMARK    6  A    between atoms: C_22  and  C_24
REMARK                            x       y       z     vdW  Elec       q    Type
REMARK                         _______ _______ _______ _____ _____    ______ ____
ROOT
ATOM      1  C   UNL     1       6.985  -4.143  23.043  0.00  0.00    -0.008 C 
ATOM      2  C   UNL     1       7.200  -5.170  21.921  0.00  0.00    +0.008 C 
ATOM      3  C   UNL     1       8.284  -3.975  23.881  0.00  0.00    +0.029 C 
ATOM      4  C   UNL     1       8.331  -5.061  24.988  0.00  0.00    +0.003 C 
ATOM      5  C   UNL     1       9.724  -5.186  25.616  0.00  0.00    +0.008 C 
ATOM      6  C   UNL     1       7.200  -4.769  26.008  0.00  0.00    +0.020 C 
ATOM      7  C   UNL     1       7.275  -3.298  26.490  0.00  0.00    +0.170 C 
ATOM      8  O   UNL     1       7.266  -2.374  25.406  0.00  0.00    -0.371 OA
ATOM      9  C   UNL     1       5.857  -5.018  25.276  0.00  0.00    +0.012 C 
ATOM     10  C   UNL     1       8.374  -2.567  24.523  0.00  0.00    +0.152 C 
ATOM     11  C   UNL     1       5.714  -4.445  23.859  0.00  0.00    +0.004 C 
ENDROOT
BRANCH  10  12
ATOM     12  C   UNL     1       8.461  -1.411  23.534  0.00  0.00    -0.018 A 
ATOM     13  C   UNL     1       9.569  -1.300  22.677  0.00  0.00    +0.010 A 
ATOM     14  C   UNL     1       9.729  -0.177  21.861  0.00  0.00    +0.046 A 
ATOM     15  C   UNL     1       8.780   0.836  21.889  0.00  0.00    +0.117 A 
ATOM     16  C   UNL     1       7.643   0.721  22.676  0.00  0.00    +0.046 A 
ATOM     17  C   UNL     1       7.484  -0.401  23.492  0.00  0.00    +0.010 A 
BRANCH  15  18
ATOM     18  O   UNL     1       9.012   1.953  21.141  0.00  0.00    -0.507 OA
ATOM     19  H   UNL     1       9.966   2.005  20.964  0.00  0.00    +0.292 HD
ENDBRANCH  15  18
ENDBRANCH  10  12
BRANCH   6  20
ATOM     20  C   UNL     1       7.285  -5.686  27.253  0.00  0.00    +0.165 C 
BRANCH  20  21
ATOM     21  O   UNL     1       6.609  -5.127  28.374  0.00  0.00    -0.394 OA
ATOM     22  H   UNL     1       7.179  -4.435  28.753  0.00  0.00    +0.209 HD
ENDBRANCH  20  21
ENDBRANCH   6  20
TORSDOF 4
ENDMDL
MODEL 3
REMARK VINA RESULT:      -6.6      1.922      3.056
REMARK  Name = 
REMARK  6 active torsions:
REMARK  status: ('A' for Active; 'I' for Inactive)
REMARK    1  A    between atoms: C_2  and  C_3
REMARK    2  A    between atoms: C_6  and  C_7
REMARK    3  A    between atoms: C_7  and  O_8
REMARK    4  A    between atoms: C_11  and  C_13
REMARK    5  A    between atoms: C_16  and  O_17
REMARK    6  A    between atoms: C_22  and  C_24
REMARK                            x       y       z     vdW  Elec       q    Type
REMARK                         _______ _______ _______ _____ _____    ______ ____
ROOT
ATOM      1  C   UNL     1       8.304  -2.559  25.197  0.00  0.00    -0.008 C 
ATOM      2  C   UNL     1       8.307  -2.043  26.643  0.00  0.00    +0.008 C 
ATOM      3  C   UNL     1       6.908  -2.343  24.546  0.00  0.00    +0.029 C 
ATOM      4  C   UNL     1       5.983  -3.539  24.894  0.00  0.00    +0.003 C 
ATOM      5  C   UNL     1       4.510  -3.236  24.598  0.00  0.00    +0.008 C 
ATOM      6  C   UNL     1       6.527  -4.802  24.178  0.00  0.00    +0.020 C 
ATOM      7  C   UNL     1       6.738  -4.519  22.669  0.00  0.00    +0.170 C 
ATOM      8  O   UNL     1       7.567  -3.382  22.445  0.00  0.00    -0.371 OA
ATOM      9  C   UNL     1       7.881  -5.152  24.845  0.00  0.00    +0.012 C 
ATOM     10  C   UNL     1       7.011  -2.190  23.007  0.00  0.00    +0.152 C 
ATOM     11  C   UNL     1       8.856  -3.995  25.101  0.00  0.00    +0.004 C 
ENDROOT
BRANCH  10  12
ATOM     12  C   UNL     1       7.795  -0.974  22.530  0.00  0.00    -0.018 A 
ATOM     13  C   UNL     1       9.029  -1.143  21.881  0.00  0.00    +0.010 A 
ATOM     14  C   UNL     1       9.823  -0.038  21.558  0.00  0.00    +0.046 A 
ATOM     15  C   UNL     1       9.383   1.241  21.874  0.00  0.00    +0.117 A 
ATOM     16  C   UNL     1       8.139   1.440  22.454  0.00  0.00    +0.046 A 
ATOM     17  C   UNL     1       7.347   0.336  22.777  0.00  0.00    +0.010 A 
BRANCH  15  18
ATOM     18  O   UNL     1      10.221   2.287  21.618  0.00  0.00    -0.507 OA
ATOM     19  H   UNL     1      10.652   2.126  20.762  0.00  0.00    +0.292 HD
ENDBRANCH  15  18
ENDBRANCH  10  12
BRANCH   6  20
ATOM     20  C   UNL     1       5.564  -6.008  24.308  0.00  0.00    +0.165 C 
BRANCH  20  21
ATOM     21  O   UNL     1       5.238  -6.571  23.042  0.00  0.00    -0.394 OA
ATOM     22  H   UNL     1       5.791  -6.136  22.370  0.00  0.00    +0.209 HD
ENDBRANCH  20  21
ENDBRANCH   6  20
TORSDOF 4
ENDMDL
MODEL 4
REMARK VINA RESULT:      -6.6      2.414      5.695
REMARK  Name = 
REMARK  6 active torsions:
REMARK  status: ('A' for Active; 'I' for Inactive)
REMARK    1  A    between atoms: C_2  and  C_3
REMARK    2  A    between atoms: C_6  and  C_7
REMARK    3  A    between atoms: C_7  and  O_8
REMARK    4  A    between atoms: C_11  and  C_13
REMARK    5  A    between atoms: C_16  and  O_17
REMARK    6  A    between atoms: C_22  and  C_24
REMARK                            x       y       z     vdW  Elec       q    Type
REMARK                         _______ _______ _______ _____ _____    ______ ____
ROOT
ATOM      1  C   UNL     1       8.483  -3.610  25.075  0.00  0.00    -0.008 C 
ATOM      2  C   UNL     1       9.587  -4.643  25.345  0.00  0.00    +0.008 C 
ATOM      3  C   UNL     1       8.626  -3.026  23.641  0.00  0.00    +0.029 C 
ATOM      4  C   UNL     1       9.625  -1.839  23.663  0.00  0.00    +0.003 C 
ATOM      5  C   UNL     1      10.086  -1.446  22.255  0.00  0.00    +0.008 C 
ATOM      6  C   UNL     1       8.987  -0.677  24.467  0.00  0.00    +0.020 C 
ATOM      7  C   UNL     1       7.567  -0.365  23.931  0.00  0.00    +0.170 C 
ATOM      8  O   UNL     1       6.732  -1.519  23.911  0.00  0.00    -0.371 OA
ATOM      9  C   UNL     1       8.905  -1.142  25.943  0.00  0.00    +0.012 C 
ATOM     10  C   UNL     1       7.262  -2.553  23.076  0.00  0.00    +0.152 C 
ATOM     11  C   UNL     1       8.390  -2.564  26.203  0.00  0.00    +0.004 C 
ENDROOT
BRANCH  10  12
ATOM     12  C   UNL     1       6.225  -3.654  22.888  0.00  0.00    -0.018 A 
ATOM     13  C   UNL     1       4.954  -3.530  23.474  0.00  0.00    +0.010 A 
ATOM     14  C   UNL     1       4.040  -4.587  23.423  0.00  0.00    +0.046 A 
ATOM     15  C   UNL     1       4.388  -5.768  22.782  0.00  0.00    +0.117 A 
ATOM     16  C   UNL     1       5.610  -5.892  22.138  0.00  0.00    +0.046 A 
ATOM     17  C   UNL     1       6.523  -4.836  22.189  0.00  0.00    +0.010 A 
BRANCH  15  18
ATOM     18  O   UNL     1       3.502  -6.805  22.825  0.00  0.00    -0.507 OA
ATOM     19  H   UNL     1       3.444  -7.190  21.934  0.00  0.00    +0.292 HD
ENDBRANCH  15  18
ENDBRANCH  10  12
BRANCH   6  20
ATOM     20  C   UNL     1       9.826   0.622  24.384  0.00  0.00    +0.165 C 
BRANCH  20  21
ATOM     21  O   UNL     1      10.918   0.612  25.296  0.00  0.00    -0.394 OA
ATOM     22  H   UNL     1      11.167   1.535  25.475  0.00  0.00    +0.209 HD
ENDBRANCH  20  21
ENDBRANCH   6  20
TORSDOF 4
ENDMDL
MODEL 5
REMARK VINA RESULT:      -6.6      1.646      6.120
REMARK  Name = 
REMARK  6 active torsions:
REMARK  status: ('A' for Active; 'I' for Inactive)
REMARK    1  A    between atoms: C_2  and  C_3
REMARK    2  A    between atoms: C_6  and  C_7
REMARK    3  A    between atoms: C_7  and  O_8
REMARK    4  A    between atoms: C_11  and  C_13
REMARK    5  A    between atoms: C_16  and  O_17
REMARK    6  A    between atoms: C_22  and  C_24
REMARK                            x       y       z     vdW  Elec       q    Type
REMARK                         _______ _______ _______ _____ _____    ______ ____
ROOT
ATOM      1  C   UNL     1       7.020  -0.442  24.869  0.00  0.00    -0.008 C 
ATOM      2  C   UNL     1       6.530   0.439  26.028  0.00  0.00    +0.008 C 
ATOM      3  C   UNL     1       8.540  -0.734  25.015  0.00  0.00    +0.029 C 
ATOM      4  C   UNL     1       9.354   0.423  24.379  0.00  0.00    +0.003 C 
ATOM      5  C   UNL     1      10.830   0.387  24.791  0.00  0.00    +0.008 C 
ATOM      6  C   UNL     1       9.124   0.397  22.845  0.00  0.00    +0.020 C 
ATOM      7  C   UNL     1       9.398  -1.021  22.282  0.00  0.00    +0.170 C 
ATOM      8  O   UNL     1       8.637  -2.022  22.951  0.00  0.00    -0.371 OA
ATOM      9  C   UNL     1       7.643   0.786  22.604  0.00  0.00    +0.012 C 
ATOM     10  C   UNL     1       8.932  -2.079  24.350  0.00  0.00    +0.152 C 
ATOM     11  C   UNL     1       6.589   0.121  23.501  0.00  0.00    +0.004 C 
ENDROOT
BRANCH  10  12
ATOM     12  C   UNL     1       8.291  -3.315  24.968  0.00  0.00    -0.018 A 
ATOM     13  C   UNL     1       7.420  -4.111  24.206  0.00  0.00    +0.010 A 
ATOM     14  C   UNL     1       6.721  -5.169  24.796  0.00  0.00    +0.046 A 
ATOM     15  C   UNL     1       6.897  -5.443  26.146  0.00  0.00    +0.117 A 
ATOM     16  C   UNL     1       7.802  -4.715  26.905  0.00  0.00    +0.046 A 
ATOM     17  C   UNL     1       8.498  -3.658  26.316  0.00  0.00    +0.010 A 
BRANCH  15  18
ATOM     18  O   UNL     1       6.137  -6.430  26.704  0.00  0.00    -0.507 OA
ATOM     19  H   UNL     1       5.210  -6.271  26.460  0.00  0.00    +0.292 HD
ENDBRANCH  15  18
ENDBRANCH  10  12
BRANCH   6  20
ATOM     20  C   UNL     1      10.044   1.394  22.099  0.00  0.00    +0.165 C 
BRANCH  20  21
ATOM     21  O   UNL     1       9.305   2.431  21.463  0.00  0.00    -0.394 OA
ATOM     22  H   UNL     1       9.877   3.215  21.406  0.00  0.00    +0.209 HD
ENDBRANCH  20  21
ENDBRANCH   6  20
TORSDOF 4
ENDMDL
MODEL 6
REMARK VINA RESULT:      -6.4      2.306      5.994
REMARK  Name = 
REMARK  6 active torsions:
REMARK  status: ('A' for Active; 'I' for Inactive)
REMARK    1  A    between atoms: C_2  and  C_3
REMARK    2  A    between atoms: C_6  and  C_7
REMARK    3  A    between atoms: C_7  and  O_8
REMARK    4  A    between atoms: C_11  and  C_13
REMARK    5  A    between atoms: C_16  and  O_17
REMARK    6  A    between atoms: C_22  and  C_24
REMARK                            x       y       z     vdW  Elec       q    Type
REMARK                         _______ _______ _______ _____ _____    ______ ____
ROOT
ATOM      1  C   UNL     1       6.763  -0.068  23.702  0.00  0.00    -0.008 C 
ATOM      2  C   UNL     1       5.993   0.347  24.965  0.00  0.00    +0.008 C 
ATOM      3  C   UNL     1       8.181  -0.584  24.077  0.00  0.00    +0.029 C 
ATOM      4  C   UNL     1       9.158   0.617  24.186  0.00  0.00    +0.003 C 
ATOM      5  C   UNL     1      10.465   0.236  24.890  0.00  0.00    +0.008 C 
ATOM      6  C   UNL     1       9.352   1.219  22.771  0.00  0.00    +0.020 C 
ATOM      7  C   UNL     1       9.743   0.111  21.761  0.00  0.00    +0.170 C 
ATOM      8  O   UNL     1       8.812  -0.967  21.757  0.00  0.00    -0.371 OA
ATOM      9  C   UNL     1       8.000   1.855  22.362  0.00  0.00    +0.012 C 
ATOM     10  C   UNL     1       8.715  -1.601  23.036  0.00  0.00    +0.152 C 
ATOM     11  C   UNL     1       6.730   1.033  22.625  0.00  0.00    +0.004 C 
ENDROOT
BRANCH  10  12
ATOM     12  C   UNL     1       7.909  -2.888  22.920  0.00  0.00    -0.018 A 
ATOM     13  C   UNL     1       8.212  -3.984  23.745  0.00  0.00    +0.010 A 
ATOM     14  C   UNL     1       7.573  -5.214  23.561  0.00  0.00    +0.046 A 
ATOM     15  C   UNL     1       6.623  -5.353  22.557  0.00  0.00    +0.117 A 
ATOM     16  C   UNL     1       6.256  -4.269  21.773  0.00  0.00    +0.046 A 
ATOM     17  C   UNL     1       6.896  -3.041  21.958  0.00  0.00    +0.010 A 
BRANCH  15  18
ATOM     18  O   UNL     1       6.082  -6.589  22.354  0.00  0.00    -0.507 OA
ATOM     19  H   UNL     1       6.352  -7.162  23.091  0.00  0.00    +0.292 HD
ENDBRANCH  15  18
ENDBRANCH  10  12
BRANCH   6  20
ATOM     20  C   UNL     1      10.458   2.303  22.743  0.00  0.00    +0.165 C 
BRANCH  20  21
ATOM     21  O   UNL     1       9.942   3.600  23.022  0.00  0.00    -0.394 OA
ATOM     22  H   UNL     1       9.656   3.615  23.951  0.00  0.00    +0.209 HD
ENDBRANCH  20  21
ENDBRANCH   6  20
TORSDOF 4
ENDMDL
MODEL 7
REMARK VINA RESULT:      -6.4      1.727      2.521
REMARK  Name = 
REMARK  6 active torsions:
REMARK  status: ('A' for Active; 'I' for Inactive)
REMARK    1  A    between atoms: C_2  and  C_3
REMARK    2  A    between atoms: C_6  and  C_7
REMARK    3  A    between atoms: C_7  and  O_8
REMARK    4  A    between atoms: C_11  and  C_13
REMARK    5  A    between atoms: C_16  and  O_17
REMARK    6  A    between atoms: C_22  and  C_24
REMARK                            x       y       z     vdW  Elec       q    Type
REMARK                         _______ _______ _______ _____ _____    ______ ____
ROOT
ATOM      1  C   UNL     1       7.144  -0.954  25.198  0.00  0.00    -0.008 C 
ATOM      2  C   UNL     1       5.637  -0.764  25.427  0.00  0.00    +0.008 C 
ATOM      3  C   UNL     1       7.411  -1.499  23.766  0.00  0.00    +0.029 C 
ATOM      4  C   UNL     1       7.295  -3.045  23.770  0.00  0.00    +0.003 C 
ATOM      5  C   UNL     1       7.190  -3.621  22.354  0.00  0.00    +0.008 C 
ATOM      6  C   UNL     1       8.469  -3.622  24.603  0.00  0.00    +0.020 C 
ATOM      7  C   UNL     1       9.818  -3.040  24.110  0.00  0.00    +0.170 C 
ATOM      8  O   UNL     1       9.819  -1.615  24.103  0.00  0.00    -0.371 OA
ATOM      9  C   UNL     1       8.222  -3.210  26.077  0.00  0.00    +0.012 C 
ATOM     10  C   UNL     1       8.809  -1.079  23.244  0.00  0.00    +0.152 C 
ATOM     11  C   UNL     1       7.800  -1.758  26.337  0.00  0.00    +0.004 C 
ENDROOT
BRANCH  10  12
ATOM     12  C   UNL     1       9.011   0.421  23.075  0.00  0.00    -0.018 A 
ATOM     13  C   UNL     1      10.028   1.079  23.787  0.00  0.00    +0.010 A 
ATOM     14  C   UNL     1      10.141   2.472  23.746  0.00  0.00    +0.046 A 
ATOM     15  C   UNL     1       9.244   3.214  22.988  0.00  0.00    +0.117 A 
ATOM     16  C   UNL     1       8.273   2.585  22.222  0.00  0.00    +0.046 A 
ATOM     17  C   UNL     1       8.160   1.194  22.264  0.00  0.00    +0.010 A 
BRANCH  15  18
ATOM     18  O   UNL     1       9.335   4.575  23.039  0.00  0.00    -0.507 OA
ATOM     19  H   UNL     1       8.471   4.925  23.312  0.00  0.00    +0.292 HD
ENDBRANCH  15  18
ENDBRANCH  10  12
BRANCH   6  20
ATOM     20  C   UNL     1       8.551  -5.166  24.508  0.00  0.00    +0.165 C 
BRANCH  20  21
ATOM     21  O   UNL     1       9.827  -5.658  24.902  0.00  0.00    -0.394 OA
ATOM     22  H   UNL     1      10.379  -4.896  25.149  0.00  0.00    +0.209 HD
ENDBRANCH  20  21
ENDBRANCH   6  20
TORSDOF 4
ENDMDL
MODEL 8
REMARK VINA RESULT:      -6.1      1.477      6.025
REMARK  Name = 
REMARK  6 active torsions:
REMARK  status: ('A' for Active; 'I' for Inactive)
REMARK    1  A    between atoms: C_2  and  C_3
REMARK    2  A    between atoms: C_6  and  C_7
REMARK    3  A    between atoms: C_7  and  O_8
REMARK    4  A    between atoms: C_11  and  C_13
REMARK    5  A    between atoms: C_16  and  O_17
REMARK    6  A    between atoms: C_22  and  C_24
REMARK                            x       y       z     vdW  Elec       q    Type
REMARK                         _______ _______ _______ _____ _____    ______ ____
ROOT
ATOM      1  C   UNL     1       7.573  -2.442  22.892  0.00  0.00    -0.008 C 
ATOM      2  C   UNL     1       6.419  -2.773  21.933  0.00  0.00    +0.008 C 
ATOM      3  C   UNL     1       7.154  -1.314  23.876  0.00  0.00    +0.029 C 
ATOM      4  C   UNL     1       7.406   0.068  23.218  0.00  0.00    +0.003 C 
ATOM      5  C   UNL     1       6.698   1.203  23.966  0.00  0.00    +0.008 C 
ATOM      6  C   UNL     1       8.936   0.267  23.068  0.00  0.00    +0.020 C 
ATOM      7  C   UNL     1       9.649   0.014  24.421  0.00  0.00    +0.170 C 
ATOM      8  O   UNL     1       9.328  -1.261  24.969  0.00  0.00    -0.371 OA
ATOM      9  C   UNL     1       9.423  -0.760  22.014  0.00  0.00    +0.012 C 
ATOM     10  C   UNL     1       7.927  -1.405  25.216  0.00  0.00    +0.152 C 
ATOM     11  C   UNL     1       8.892  -2.195  22.136  0.00  0.00    +0.004 C 
ENDROOT
BRANCH  10  12
ATOM     12  C   UNL     1       7.668  -2.669  26.026  0.00  0.00    -0.018 A 
ATOM     13  C   UNL     1       8.646  -3.676  26.091  0.00  0.00    +0.010 A 
ATOM     14  C   UNL     1       8.373  -4.896  26.716  0.00  0.00    +0.046 A 
ATOM     15  C   UNL     1       7.126  -5.114  27.287  0.00  0.00    +0.117 A 
ATOM     16  C   UNL     1       6.165  -4.112  27.296  0.00  0.00    +0.046 A 
ATOM     17  C   UNL     1       6.439  -2.894  26.671  0.00  0.00    +0.010 A 
BRANCH  15  18
ATOM     18  O   UNL     1       6.869  -6.346  27.815  0.00  0.00    -0.507 OA
ATOM     19  H   UNL     1       6.588  -6.226  28.738  0.00  0.00    +0.292 HD
ENDBRANCH  15  18
ENDBRANCH  10  12
BRANCH   6  20
ATOM     20  C   UNL     1       9.297   1.697  22.596  0.00  0.00    +0.165 C 
BRANCH  20  21
ATOM     21  O   UNL     1       9.115   1.859  21.194  0.00  0.00    -0.394 OA
ATOM     22  H   UNL     1       9.398   1.036  20.758  0.00  0.00    +0.209 HD
ENDBRANCH  20  21
ENDBRANCH   6  20
TORSDOF 4
ENDMDL
MODEL 9
REMARK VINA RESULT:      -6.1      2.207      3.371
REMARK  Name = 
REMARK  6 active torsions:
REMARK  status: ('A' for Active; 'I' for Inactive)
REMARK    1  A    between atoms: C_2  and  C_3
REMARK    2  A    between atoms: C_6  and  C_7
REMARK    3  A    between atoms: C_7  and  O_8
REMARK    4  A    between atoms: C_11  and  C_13
REMARK    5  A    between atoms: C_16  and  O_17
REMARK    6  A    between atoms: C_22  and  C_24
REMARK                            x       y       z     vdW  Elec       q    Type
REMARK                         _______ _______ _______ _____ _____    ______ ____
ROOT
ATOM      1  C   UNL     1       8.077  -4.403  24.514  0.00  0.00    -0.008 C 
ATOM      2  C   UNL     1       8.488  -5.178  25.775  0.00  0.00    +0.008 C 
ATOM      3  C   UNL     1       6.967  -3.368  24.850  0.00  0.00    +0.029 C 
ATOM      4  C   UNL     1       5.579  -4.058  24.786  0.00  0.00    +0.003 C 
ATOM      5  C   UNL     1       4.482  -3.212  25.443  0.00  0.00    +0.008 C 
ATOM      6  C   UNL     1       5.288  -4.436  23.310  0.00  0.00    +0.020 C 
ATOM      7  C   UNL     1       5.483  -3.205  22.389  0.00  0.00    +0.170 C 
ATOM      8  O   UNL     1       6.770  -2.614  22.544  0.00  0.00    -0.371 OA
ATOM      9  C   UNL     1       6.294  -5.550  22.924  0.00  0.00    +0.012 C 
ATOM     10  C   UNL     1       6.997  -2.159  23.880  0.00  0.00    +0.152 C 
ATOM     11  C   UNL     1       7.757  -5.349  23.340  0.00  0.00    +0.004 C 
ENDROOT
BRANCH  10  12
ATOM     12  C   UNL     1       8.267  -1.319  23.936  0.00  0.00    -0.018 A 
ATOM     13  C   UNL     1       8.757  -0.866  25.173  0.00  0.00    +0.010 A 
ATOM     14  C   UNL     1       9.841   0.014  25.231  0.00  0.00    +0.046 A 
ATOM     15  C   UNL     1      10.447   0.440  24.056  0.00  0.00    +0.117 A 
ATOM     16  C   UNL     1      10.026  -0.044  22.826  0.00  0.00    +0.046 A 
ATOM     17  C   UNL     1       8.942  -0.924  22.769  0.00  0.00    +0.010 A 
BRANCH  15  18
ATOM     18  O   UNL     1      11.448   1.363  24.149  0.00  0.00    -0.507 OA
ATOM     19  H   UNL     1      11.450   1.715  25.054  0.00  0.00    +0.292 HD
ENDBRANCH  15  18
ENDBRANCH  10  12
BRANCH   6  20
ATOM     20  C   UNL     1       3.844  -4.957  23.113  0.00  0.00    +0.165 C 
BRANCH  20  21
ATOM     21  O   UNL     1       3.816  -6.223  22.463  0.00  0.00    -0.394 OA
ATOM     22  H   UNL     1       4.719  -6.585  22.476  0.00  0.00    +0.209 HD
ENDBRANCH  20  21
ENDBRANCH   6  20
TORSDOF 4
ENDMDL
