MODEL 1
REMARK VINA RESULT:      -5.1      0.000      0.000
REMARK  Name = 
REMARK  13 active torsions:
REMARK  status: ('A' for Active; 'I' for Inactive)
REMARK    1  A    between atoms: N_1  and  C_2
REMARK    2  A    between atoms: C_2  and  C_3
REMARK    3  A    between atoms: C_3  and  C_4
REMARK    4  A    between atoms: N_6  and  C_7
REMARK    5  A    between atoms: C_7  and  C_8
REMARK    6  A    between atoms: C_8  and  S_9
REMARK    7  A    between atoms: S_9  and  S_10
REMARK    8  A    between atoms: S_10  and  C_11
REMARK    9  A    between atoms: C_11  and  C_12
REMARK   10  A    between atoms: C_12  and  N_13
REMARK   11  A    between atoms: C_14  and  C_16
REMARK   12  A    between atoms: C_16  and  C_17
REMARK   13  A    between atoms: C_17  and  N_18
REMARK                            x       y       z     vdW  Elec       q    Type
REMARK                         _______ _______ _______ _____ _____    ______ ____
ROOT
ATOM      1  S   UNL     1      10.636   0.435  24.649  0.00  0.00    -0.092 S 
ENDROOT
BRANCH   1   2
ATOM      2  C   UNL     1       9.644   1.941  24.323  0.00  0.00    +0.099 C 
BRANCH   2   3
ATOM      3  C   UNL     1      10.045   2.692  23.055  0.00  0.00    +0.115 C 
BRANCH   3   5
ATOM      4  C   UNL     1      10.851   4.953  23.659  0.00  0.00    +0.214 C 
ATOM      5  N   UNL     1      11.111   3.650  23.297  0.00  0.00    -0.314 N 
ATOM      6  H   UNL     1      12.068   3.315  23.283  0.00  0.00    +0.149 HD
ATOM      7  O   UNL     1       9.717   5.390  23.816  0.00  0.00    -0.276 OA
BRANCH   4   8
ATOM      8  C   UNL     1      12.085   5.811  23.829  0.00  0.00    +0.110 C 
BRANCH   8   9
ATOM      9  C   UNL     1      13.012   5.615  22.640  0.00  0.00    +0.087 C 
BRANCH   9  10
ATOM     10  N   UNL     1      14.286   5.033  23.064  0.00  0.00    -0.330 NA
ATOM     11  H   UNL     1      15.048   5.486  22.558  0.00  0.00    +0.118 HD
ATOM     12  H   UNL     1      14.441   5.258  24.048  0.00  0.00    +0.118 HD
ENDBRANCH   9  10
ENDBRANCH   8   9
ENDBRANCH   4   8
ENDBRANCH   3   5
ENDBRANCH   2   3
ENDBRANCH   1   2
BRANCH   1  13
ATOM     13  S   UNL     1      10.006  -0.900  23.211  0.00  0.00    -0.092 S 
BRANCH  13  14
ATOM     14  C   UNL     1       9.607  -2.360  24.221  0.00  0.00    +0.099 C 
BRANCH  14  15
ATOM     15  C   UNL     1       8.307  -3.011  23.745  0.00  0.00    +0.115 C 
BRANCH  15  16
ATOM     16  N   UNL     1       7.667  -3.797  24.791  0.00  0.00    -0.314 N 
ATOM     17  H   UNL     1       7.618  -3.399  25.722  0.00  0.00    +0.149 HD
ATOM     18  C   UNL     1       6.874  -4.883  24.487  0.00  0.00    +0.214 C 
ATOM     19  O   UNL     1       6.723  -5.310  23.347  0.00  0.00    -0.276 OA
BRANCH  18  20
ATOM     20  C   UNL     1       6.244  -5.548  25.690  0.00  0.00    +0.110 C 
BRANCH  20  21
ATOM     21  C   UNL     1       6.878  -5.017  26.968  0.00  0.00    +0.087 C 
BRANCH  21  22
ATOM     22  N   UNL     1       8.136  -5.701  27.251  0.00  0.00    -0.330 NA
ATOM     23  H   UNL     1       8.889  -5.019  27.322  0.00  0.00    +0.118 HD
ATOM     24  H   UNL     1       8.089  -6.171  28.153  0.00  0.00    +0.118 HD
ENDBRANCH  21  22
ENDBRANCH  20  21
ENDBRANCH  18  20
ENDBRANCH  15  16
ENDBRANCH  14  15
ENDBRANCH  13  14
ENDBRANCH   1  13
TORSDOF 13
ENDMDL
MODEL 2
REMARK VINA RESULT:      -5.1      2.178      2.329
REMARK  Name = 
REMARK  13 active torsions:
REMARK  status: ('A' for Active; 'I' for Inactive)
REMARK    1  A    between atoms: N_1  and  C_2
REMARK    2  A    between atoms: C_2  and  C_3
REMARK    3  A    between atoms: C_3  and  C_4
REMARK    4  A    between atoms: N_6  and  C_7
REMARK    5  A    between atoms: C_7  and  C_8
REMARK    6  A    between atoms: C_8  and  S_9
REMARK    7  A    between atoms: S_9  and  S_10
REMARK    8  A    between atoms: S_10  and  C_11
REMARK    9  A    between atoms: C_11  and  C_12
REMARK   10  A    between atoms: C_12  and  N_13
REMARK   11  A    between atoms: C_14  and  C_16
REMARK   12  A    between atoms: C_16  and  C_17
REMARK   13  A    between atoms: C_17  and  N_18
REMARK                            x       y       z     vdW  Elec       q    Type
REMARK                         _______ _______ _______ _____ _____    ______ ____
ROOT
ATOM      1  S   UNL     1       9.369   0.122  24.525  0.00  0.00    -0.092 S 
ENDROOT
BRANCH   1   2
ATOM      2  C   UNL     1      10.664   1.396  24.281  0.00  0.00    +0.099 C 
BRANCH   2   3
ATOM      3  C   UNL     1      10.381   2.366  23.136  0.00  0.00    +0.115 C 
BRANCH   3   5
ATOM      4  C   UNL     1      10.849   4.729  23.702  0.00  0.00    +0.214 C 
ATOM      5  N   UNL     1      11.256   3.526  23.169  0.00  0.00    -0.314 N 
ATOM      6  H   UNL     1      12.218   3.410  22.871  0.00  0.00    +0.149 HD
ATOM      7  O   UNL     1       9.741   4.902  24.194  0.00  0.00    -0.276 OA
BRANCH   4   8
ATOM      8  C   UNL     1      11.881   5.831  23.612  0.00  0.00    +0.110 C 
BRANCH   8   9
ATOM      9  C   UNL     1      12.893   5.497  22.528  0.00  0.00    +0.087 C 
BRANCH   9  10
ATOM     10  N   UNL     1      14.180   5.121  23.115  0.00  0.00    -0.330 NA
ATOM     11  H   UNL     1      14.393   4.154  22.868  0.00  0.00    +0.118 HD
ATOM     12  H   UNL     1      14.916   5.682  22.686  0.00  0.00    +0.118 HD
ENDBRANCH   9  10
ENDBRANCH   8   9
ENDBRANCH   4   8
ENDBRANCH   3   5
ENDBRANCH   2   3
ENDBRANCH   1   2
BRANCH   1  13
ATOM     13  S   UNL     1      10.053  -1.500  23.453  0.00  0.00    -0.092 S 
BRANCH  13  14
ATOM     14  C   UNL     1       8.890  -1.526  22.053  0.00  0.00    +0.099 C 
BRANCH  14  15
ATOM     15  C   UNL     1       7.498  -1.962  22.513  0.00  0.00    +0.115 C 
BRANCH  15  16
ATOM     16  N   UNL     1       7.169  -3.312  22.077  0.00  0.00    -0.314 N 
ATOM     17  H   UNL     1       7.245  -3.524  21.089  0.00  0.00    +0.149 HD
ATOM     18  C   UNL     1       7.072  -4.352  22.978  0.00  0.00    +0.214 C 
ATOM     19  O   UNL     1       7.167  -4.204  24.191  0.00  0.00    -0.276 OA
BRANCH  18  20
ATOM     20  C   UNL     1       6.779  -5.695  22.346  0.00  0.00    +0.110 C 
BRANCH  20  21
ATOM     21  C   UNL     1       5.284  -5.979  22.400  0.00  0.00    +0.087 C 
BRANCH  21  22
ATOM     22  N   UNL     1       4.524  -4.746  22.589  0.00  0.00    -0.330 NA
ATOM     23  H   UNL     1       4.349  -4.601  23.582  0.00  0.00    +0.118 HD
ATOM     24  H   UNL     1       5.066  -3.944  22.273  0.00  0.00    +0.118 HD
ENDBRANCH  21  22
ENDBRANCH  20  21
ENDBRANCH  18  20
ENDBRANCH  15  16
ENDBRANCH  14  15
ENDBRANCH  13  14
ENDBRANCH   1  13
TORSDOF 13
ENDMDL
MODEL 3
REMARK VINA RESULT:      -5.1      1.301      9.641
REMARK  Name = 
REMARK  13 active torsions:
REMARK  status: ('A' for Active; 'I' for Inactive)
REMARK    1  A    between atoms: N_1  and  C_2
REMARK    2  A    between atoms: C_2  and  C_3
REMARK    3  A    between atoms: C_3  and  C_4
REMARK    4  A    between atoms: N_6  and  C_7
REMARK    5  A    between atoms: C_7  and  C_8
REMARK    6  A    between atoms: C_8  and  S_9
REMARK    7  A    between atoms: S_9  and  S_10
REMARK    8  A    between atoms: S_10  and  C_11
REMARK    9  A    between atoms: C_11  and  C_12
REMARK   10  A    between atoms: C_12  and  N_13
REMARK   11  A    between atoms: C_14  and  C_16
REMARK   12  A    between atoms: C_16  and  C_17
REMARK   13  A    between atoms: C_17  and  N_18
REMARK                            x       y       z     vdW  Elec       q    Type
REMARK                         _______ _______ _______ _____ _____    ______ ____
ROOT
ATOM      1  S   UNL     1       9.090  -0.070  24.901  0.00  0.00    -0.092 S 
ENDROOT
BRANCH   1   2
ATOM      2  C   UNL     1       9.883  -1.366  23.875  0.00  0.00    +0.099 C 
BRANCH   2   3
ATOM      3  C   UNL     1       8.915  -2.412  23.329  0.00  0.00    +0.115 C 
BRANCH   3   5
ATOM      4  C   UNL     1       7.962  -4.378  24.492  0.00  0.00    +0.214 C 
ATOM      5  N   UNL     1       8.106  -3.014  24.378  0.00  0.00    -0.314 N 
ATOM      6  H   UNL     1       7.717  -2.406  25.090  0.00  0.00    +0.149 HD
ATOM      7  O   UNL     1       8.508  -5.174  23.739  0.00  0.00    -0.276 OA
BRANCH   4   8
ATOM      8  C   UNL     1       7.052  -4.815  25.619  0.00  0.00    +0.110 C 
BRANCH   8   9
ATOM      9  C   UNL     1       7.888  -5.270  26.804  0.00  0.00    +0.087 C 
BRANCH   9  10
ATOM     10  N   UNL     1       9.307  -4.991  26.578  0.00  0.00    -0.330 NA
ATOM     11  H   UNL     1       9.418  -4.015  26.304  0.00  0.00    +0.118 HD
ATOM     12  H   UNL     1       9.808  -5.086  27.462  0.00  0.00    +0.118 HD
ENDBRANCH   9  10
ENDBRANCH   8   9
ENDBRANCH   4   8
ENDBRANCH   3   5
ENDBRANCH   2   3
ENDBRANCH   1   2
BRANCH   1  13
ATOM     13  S   UNL     1       9.884   1.692  24.184  0.00  0.00    -0.092 S 
BRANCH  13  14
ATOM     14  C   UNL     1       8.392   2.720  24.017  0.00  0.00    +0.099 C 
BRANCH  14  15
ATOM     15  C   UNL     1       8.732   4.070  23.382  0.00  0.00    +0.115 C 
BRANCH  15  16
ATOM     16  N   UNL     1      10.122   4.449  23.602  0.00  0.00    -0.314 N 
ATOM     17  H   UNL     1      10.840   3.764  23.399  0.00  0.00    +0.149 HD
ATOM     18  C   UNL     1      10.486   5.770  23.764  0.00  0.00    +0.214 C 
ATOM     19  O   UNL     1       9.678   6.691  23.821  0.00  0.00    -0.276 OA
BRANCH  18  20
ATOM     20  C   UNL     1      11.974   5.987  23.924  0.00  0.00    +0.110 C 
BRANCH  20  21
ATOM     21  C   UNL     1      12.739   4.829  23.300  0.00  0.00    +0.087 C 
BRANCH  21  22
ATOM     22  N   UNL     1      14.133   5.190  23.062  0.00  0.00    -0.330 NA
ATOM     23  H   UNL     1      14.185   5.876  22.311  0.00  0.00    +0.118 HD
ATOM     24  H   UNL     1      14.529   5.637  23.887  0.00  0.00    +0.118 HD
ENDBRANCH  21  22
ENDBRANCH  20  21
ENDBRANCH  18  20
ENDBRANCH  15  16
ENDBRANCH  14  15
ENDBRANCH  13  14
ENDBRANCH   1  13
TORSDOF 13
ENDMDL
MODEL 4
REMARK VINA RESULT:      -5.1      2.998      3.539
REMARK  Name = 
REMARK  13 active torsions:
REMARK  status: ('A' for Active; 'I' for Inactive)
REMARK    1  A    between atoms: N_1  and  C_2
REMARK    2  A    between atoms: C_2  and  C_3
REMARK    3  A    between atoms: C_3  and  C_4
REMARK    4  A    between atoms: N_6  and  C_7
REMARK    5  A    between atoms: C_7  and  C_8
REMARK    6  A    between atoms: C_8  and  S_9
REMARK    7  A    between atoms: S_9  and  S_10
REMARK    8  A    between atoms: S_10  and  C_11
REMARK    9  A    between atoms: C_11  and  C_12
REMARK   10  A    between atoms: C_12  and  N_13
REMARK   11  A    between atoms: C_14  and  C_16
REMARK   12  A    between atoms: C_16  and  C_17
REMARK   13  A    between atoms: C_17  and  N_18
REMARK                            x       y       z     vdW  Elec       q    Type
REMARK                         _______ _______ _______ _____ _____    ______ ____
ROOT
ATOM      1  S   UNL     1       9.375  -0.880  24.908  0.00  0.00    -0.092 S 
ENDROOT
BRANCH   1   2
ATOM      2  C   UNL     1      10.684   0.403  24.888  0.00  0.00    +0.099 C 
BRANCH   2   3
ATOM      3  C   UNL     1      10.367   1.607  24.005  0.00  0.00    +0.115 C 
BRANCH   3   5
ATOM      4  C   UNL     1       8.487   1.617  22.396  0.00  0.00    +0.214 C 
ATOM      5  N   UNL     1       8.951   1.700  23.689  0.00  0.00    -0.314 N 
ATOM      6  H   UNL     1       8.290   1.738  24.457  0.00  0.00    +0.149 HD
ATOM      7  O   UNL     1       9.222   1.445  21.431  0.00  0.00    -0.276 OA
BRANCH   4   8
ATOM      8  C   UNL     1       6.989   1.774  22.259  0.00  0.00    +0.110 C 
BRANCH   8   9
ATOM      9  C   UNL     1       6.625   3.250  22.294  0.00  0.00    +0.087 C 
BRANCH   9  10
ATOM     10  N   UNL     1       7.816   4.084  22.125  0.00  0.00    -0.330 NA
ATOM     11  H   UNL     1       8.604   3.643  22.598  0.00  0.00    +0.118 HD
ATOM     12  H   UNL     1       8.067   4.104  21.136  0.00  0.00    +0.118 HD
ENDBRANCH   9  10
ENDBRANCH   8   9
ENDBRANCH   4   8
ENDBRANCH   3   5
ENDBRANCH   2   3
ENDBRANCH   1   2
BRANCH   1  13
ATOM     13  S   UNL     1       9.691  -1.944  23.171  0.00  0.00    -0.092 S 
BRANCH  13  14
ATOM     14  C   UNL     1       7.996  -2.104  22.530  0.00  0.00    +0.099 C 
BRANCH  14  15
ATOM     15  C   UNL     1       7.571  -3.572  22.479  0.00  0.00    +0.115 C 
BRANCH  15  16
ATOM     16  N   UNL     1       8.027  -4.320  23.643  0.00  0.00    -0.314 N 
ATOM     17  H   UNL     1       9.017  -4.521  23.722  0.00  0.00    +0.149 HD
ATOM     18  C   UNL     1       7.224  -4.476  24.753  0.00  0.00    +0.214 C 
ATOM     19  O   UNL     1       6.064  -4.081  24.808  0.00  0.00    -0.276 OA
BRANCH  18  20
ATOM     20  C   UNL     1       7.876  -5.231  25.890  0.00  0.00    +0.110 C 
BRANCH  20  21
ATOM     21  C   UNL     1       9.286  -4.706  26.120  0.00  0.00    +0.087 C 
BRANCH  21  22
ATOM     22  N   UNL     1      10.268  -5.510  25.399  0.00  0.00    -0.330 NA
ATOM     23  H   UNL     1      10.659  -4.966  24.632  0.00  0.00    +0.118 HD
ATOM     24  H   UNL     1      11.049  -5.748  26.009  0.00  0.00    +0.118 HD
ENDBRANCH  21  22
ENDBRANCH  20  21
ENDBRANCH  18  20
ENDBRANCH  15  16
ENDBRANCH  14  15
ENDBRANCH  13  14
ENDBRANCH   1  13
TORSDOF 13
ENDMDL
MODEL 5
REMARK VINA RESULT:      -5.1      3.728      4.133
REMARK  Name = 
REMARK  13 active torsions:
REMARK  status: ('A' for Active; 'I' for Inactive)
REMARK    1  A    between atoms: N_1  and  C_2
REMARK    2  A    between atoms: C_2  and  C_3
REMARK    3  A    between atoms: C_3  and  C_4
REMARK    4  A    between atoms: N_6  and  C_7
REMARK    5  A    between atoms: C_7  and  C_8
REMARK    6  A    between atoms: C_8  and  S_9
REMARK    7  A    between atoms: S_9  and  S_10
REMARK    8  A    between atoms: S_10  and  C_11
REMARK    9  A    between atoms: C_11  and  C_12
REMARK   10  A    between atoms: C_12  and  N_13
REMARK   11  A    between atoms: C_14  and  C_16
REMARK   12  A    between atoms: C_16  and  C_17
REMARK   13  A    between atoms: C_17  and  N_18
REMARK                            x       y       z     vdW  Elec       q    Type
REMARK                         _______ _______ _______ _____ _____    ______ ____
ROOT
ATOM      1  S   UNL     1       7.234   0.063  25.287  0.00  0.00    -0.092 S 
ENDROOT
BRANCH   1   2
ATOM      2  C   UNL     1       8.825  -0.489  26.012  0.00  0.00    +0.099 C 
BRANCH   2   3
ATOM      3  C   UNL     1      10.035  -0.270  25.106  0.00  0.00    +0.115 C 
BRANCH   3   5
ATOM      4  C   UNL     1       9.910  -0.744  22.681  0.00  0.00    +0.214 C 
ATOM      5  N   UNL     1       9.650   0.084  23.749  0.00  0.00    -0.314 N 
ATOM      6  H   UNL     1       9.096   0.922  23.611  0.00  0.00    +0.149 HD
ATOM      7  O   UNL     1      10.464  -1.831  22.795  0.00  0.00    -0.276 OA
BRANCH   4   8
ATOM      8  C   UNL     1       9.471  -0.191  21.343  0.00  0.00    +0.110 C 
BRANCH   8   9
ATOM      9  C   UNL     1       8.875   1.195  21.533  0.00  0.00    +0.087 C 
BRANCH   9  10
ATOM     10  N   UNL     1       9.927   2.211  21.583  0.00  0.00    -0.330 NA
ATOM     11  H   UNL     1      10.823   1.779  21.358  0.00  0.00    +0.118 HD
ATOM     12  H   UNL     1       9.761   2.896  20.844  0.00  0.00    +0.118 HD
ENDBRANCH   9  10
ENDBRANCH   8   9
ENDBRANCH   4   8
ENDBRANCH   3   5
ENDBRANCH   2   3
ENDBRANCH   1   2
BRANCH   1  13
ATOM     13  S   UNL     1       6.185  -1.686  24.992  0.00  0.00    -0.092 S 
BRANCH  13  14
ATOM     14  C   UNL     1       6.368  -1.921  23.197  0.00  0.00    +0.099 C 
BRANCH  14  15
ATOM     15  C   UNL     1       7.213  -3.160  22.895  0.00  0.00    +0.115 C 
BRANCH  15  16
ATOM     16  N   UNL     1       8.044  -3.552  24.025  0.00  0.00    -0.314 N 
ATOM     17  H   UNL     1       8.096  -2.923  24.818  0.00  0.00    +0.149 HD
ATOM     18  C   UNL     1       8.486  -4.850  24.174  0.00  0.00    +0.214 C 
ATOM     19  O   UNL     1       8.291  -5.728  23.340  0.00  0.00    -0.276 OA
BRANCH  18  20
ATOM     20  C   UNL     1       9.290  -5.092  25.432  0.00  0.00    +0.110 C 
BRANCH  20  21
ATOM     21  C   UNL     1       8.807  -4.168  26.542  0.00  0.00    +0.087 C 
BRANCH  21  22
ATOM     22  N   UNL     1       7.570  -4.666  27.135  0.00  0.00    -0.330 NA
ATOM     23  H   UNL     1       7.770  -5.087  28.040  0.00  0.00    +0.118 HD
ATOM     24  H   UNL     1       6.927  -3.897  27.312  0.00  0.00    +0.118 HD
ENDBRANCH  21  22
ENDBRANCH  20  21
ENDBRANCH  18  20
ENDBRANCH  15  16
ENDBRANCH  14  15
ENDBRANCH  13  14
ENDBRANCH   1  13
TORSDOF 13
ENDMDL
MODEL 6
REMARK VINA RESULT:      -5.0      3.011      8.857
REMARK  Name = 
REMARK  13 active torsions:
REMARK  status: ('A' for Active; 'I' for Inactive)
REMARK    1  A    between atoms: N_1  and  C_2
REMARK    2  A    between atoms: C_2  and  C_3
REMARK    3  A    between atoms: C_3  and  C_4
REMARK    4  A    between atoms: N_6  and  C_7
REMARK    5  A    between atoms: C_7  and  C_8
REMARK    6  A    between atoms: C_8  and  S_9
REMARK    7  A    between atoms: S_9  and  S_10
REMARK    8  A    between atoms: S_10  and  C_11
REMARK    9  A    between atoms: C_11  and  C_12
REMARK   10  A    between atoms: C_12  and  N_13
REMARK   11  A    between atoms: C_14  and  C_16
REMARK   12  A    between atoms: C_16  and  C_17
REMARK   13  A    between atoms: C_17  and  N_18
REMARK                            x       y       z     vdW  Elec       q    Type
REMARK                         _______ _______ _______ _____ _____    ______ ____
ROOT
ATOM      1  S   UNL     1       7.580  -1.388  23.372  0.00  0.00    -0.092 S 
ENDROOT
BRANCH   1   2
ATOM      2  C   UNL     1       6.946  -2.916  22.583  0.00  0.00    +0.099 C 
BRANCH   2   3
ATOM      3  C   UNL     1       7.693  -4.185  22.985  0.00  0.00    +0.115 C 
BRANCH   3   5
ATOM      4  C   UNL     1       8.926  -4.484  25.110  0.00  0.00    +0.214 C 
ATOM      5  N   UNL     1       7.736  -4.365  24.427  0.00  0.00    -0.314 N 
ATOM      6  H   UNL     1       6.865  -4.310  24.943  0.00  0.00    +0.149 HD
ATOM      7  O   UNL     1      10.020  -4.434  24.562  0.00  0.00    -0.276 OA
BRANCH   4   8
ATOM      8  C   UNL     1       8.771  -4.705  26.598  0.00  0.00    +0.110 C 
BRANCH   8   9
ATOM      9  C   UNL     1       7.296  -4.675  26.968  0.00  0.00    +0.087 C 
BRANCH   9  10
ATOM     10  N   UNL     1       6.686  -5.992  26.781  0.00  0.00    -0.330 NA
ATOM     11  H   UNL     1       7.218  -6.513  26.083  0.00  0.00    +0.118 HD
ATOM     12  H   UNL     1       6.777  -6.525  27.647  0.00  0.00    +0.118 HD
ENDBRANCH   9  10
ENDBRANCH   8   9
ENDBRANCH   4   8
ENDBRANCH   3   5
ENDBRANCH   2   3
ENDBRANCH   1   2
BRANCH   1  13
ATOM     13  S   UNL     1       9.560  -1.317  22.803  0.00  0.00    -0.092 S 
BRANCH  13  14
ATOM     14  C   UNL     1       9.501  -0.122  21.432  0.00  0.00    +0.099 C 
BRANCH  14  15
ATOM     15  C   UNL     1       9.962   1.260  21.896  0.00  0.00    +0.115 C 
BRANCH  15  16
ATOM     16  N   UNL     1       8.972   2.294  21.622  0.00  0.00    -0.314 N 
ATOM     17  H   UNL     1       8.824   2.566  20.658  0.00  0.00    +0.149 HD
ATOM     18  C   UNL     1       8.043   2.665  22.571  0.00  0.00    +0.214 C 
ATOM     19  O   UNL     1       8.036   2.226  23.717  0.00  0.00    -0.276 OA
BRANCH  18  20
ATOM     20  C   UNL     1       7.058   3.711  22.099  0.00  0.00    +0.110 C 
BRANCH  20  21
ATOM     21  C   UNL     1       7.463   5.080  22.625  0.00  0.00    +0.087 C 
BRANCH  21  22
ATOM     22  N   UNL     1       8.863   5.089  23.038  0.00  0.00    -0.330 NA
ATOM     23  H   UNL     1       9.257   6.017  22.893  0.00  0.00    +0.118 HD
ATOM     24  H   UNL     1       8.940   4.897  24.035  0.00  0.00    +0.118 HD
ENDBRANCH  21  22
ENDBRANCH  20  21
ENDBRANCH  18  20
ENDBRANCH  15  16
ENDBRANCH  14  15
ENDBRANCH  13  14
ENDBRANCH   1  13
TORSDOF 13
ENDMDL
MODEL 7
REMARK VINA RESULT:      -5.0      1.985      9.666
REMARK  Name = 
REMARK  13 active torsions:
REMARK  status: ('A' for Active; 'I' for Inactive)
REMARK    1  A    between atoms: N_1  and  C_2
REMARK    2  A    between atoms: C_2  and  C_3
REMARK    3  A    between atoms: C_3  and  C_4
REMARK    4  A    between atoms: N_6  and  C_7
REMARK    5  A    between atoms: C_7  and  C_8
REMARK    6  A    between atoms: C_8  and  S_9
REMARK    7  A    between atoms: S_9  and  S_10
REMARK    8  A    between atoms: S_10  and  C_11
REMARK    9  A    between atoms: C_11  and  C_12
REMARK   10  A    between atoms: C_12  and  N_13
REMARK   11  A    between atoms: C_14  and  C_16
REMARK   12  A    between atoms: C_16  and  C_17
REMARK   13  A    between atoms: C_17  and  N_18
REMARK                            x       y       z     vdW  Elec       q    Type
REMARK                         _______ _______ _______ _____ _____    ______ ____
ROOT
ATOM      1  S   UNL     1       8.882  -0.347  25.995  0.00  0.00    -0.092 S 
ENDROOT
BRANCH   1   2
ATOM      2  C   UNL     1       7.999  -1.637  25.038  0.00  0.00    +0.099 C 
BRANCH   2   3
ATOM      3  C   UNL     1       8.827  -2.263  23.918  0.00  0.00    +0.115 C 
BRANCH   3   5
ATOM      4  C   UNL     1       7.579  -4.094  22.815  0.00  0.00    +0.214 C 
ATOM      5  N   UNL     1       8.519  -3.671  23.728  0.00  0.00    -0.314 N 
ATOM      6  H   UNL     1       9.082  -4.356  24.221  0.00  0.00    +0.149 HD
ATOM      7  O   UNL     1       6.951  -3.325  22.096  0.00  0.00    -0.276 OA
BRANCH   4   8
ATOM      8  C   UNL     1       7.368  -5.591  22.786  0.00  0.00    +0.110 C 
BRANCH   8   9
ATOM      9  C   UNL     1       5.894  -5.896  22.565  0.00  0.00    +0.087 C 
BRANCH   9  10
ATOM     10  N   UNL     1       5.603  -6.045  21.138  0.00  0.00    -0.330 NA
ATOM     11  H   UNL     1       5.642  -7.033  20.888  0.00  0.00    +0.118 HD
ATOM     12  H   UNL     1       4.639  -5.757  20.966  0.00  0.00    +0.118 HD
ENDBRANCH   9  10
ENDBRANCH   8   9
ENDBRANCH   4   8
ENDBRANCH   3   5
ENDBRANCH   2   3
ENDBRANCH   1   2
BRANCH   1  13
ATOM     13  S   UNL     1       8.683   1.352  24.846  0.00  0.00    -0.092 S 
BRANCH  13  14
ATOM     14  C   UNL     1      10.356   1.516  24.149  0.00  0.00    +0.099 C 
BRANCH  14  15
ATOM     15  C   UNL     1      10.347   2.438  22.928  0.00  0.00    +0.115 C 
BRANCH  15  16
ATOM     16  N   UNL     1      11.249   3.571  23.083  0.00  0.00    -0.314 N 
ATOM     17  H   UNL     1      12.102   3.577  22.538  0.00  0.00    +0.149 HD
ATOM     18  C   UNL     1      10.834   4.739  23.687  0.00  0.00    +0.214 C 
ATOM     19  O   UNL     1       9.730   4.877  24.203  0.00  0.00    -0.276 OA
BRANCH  18  20
ATOM     20  C   UNL     1      11.881   5.830  23.714  0.00  0.00    +0.110 C 
BRANCH  20  21
ATOM     21  C   UNL     1      12.894   5.605  22.599  0.00  0.00    +0.087 C 
BRANCH  21  22
ATOM     22  N   UNL     1      14.148   5.080  23.131  0.00  0.00    -0.330 NA
ATOM     23  H   UNL     1      14.088   5.014  24.146  0.00  0.00    +0.118 HD
ATOM     24  H   UNL     1      14.309   4.134  22.791  0.00  0.00    +0.118 HD
ENDBRANCH  21  22
ENDBRANCH  20  21
ENDBRANCH  18  20
ENDBRANCH  15  16
ENDBRANCH  14  15
ENDBRANCH  13  14
ENDBRANCH   1  13
TORSDOF 13
ENDMDL
MODEL 8
REMARK VINA RESULT:      -4.9      2.897      8.403
REMARK  Name = 
REMARK  13 active torsions:
REMARK  status: ('A' for Active; 'I' for Inactive)
REMARK    1  A    between atoms: N_1  and  C_2
REMARK    2  A    between atoms: C_2  and  C_3
REMARK    3  A    between atoms: C_3  and  C_4
REMARK    4  A    between atoms: N_6  and  C_7
REMARK    5  A    between atoms: C_7  and  C_8
REMARK    6  A    between atoms: C_8  and  S_9
REMARK    7  A    between atoms: S_9  and  S_10
REMARK    8  A    between atoms: S_10  and  C_11
REMARK    9  A    between atoms: C_11  and  C_12
REMARK   10  A    between atoms: C_12  and  N_13
REMARK   11  A    between atoms: C_14  and  C_16
REMARK   12  A    between atoms: C_16  and  C_17
REMARK   13  A    between atoms: C_17  and  N_18
REMARK                            x       y       z     vdW  Elec       q    Type
REMARK                         _______ _______ _______ _____ _____    ______ ____
ROOT
ATOM      1  S   UNL     1       6.429  -2.267  23.055  0.00  0.00    -0.092 S 
ENDROOT
BRANCH   1   2
ATOM      2  C   UNL     1       7.114  -3.734  22.196  0.00  0.00    +0.099 C 
BRANCH   2   3
ATOM      3  C   UNL     1       6.857  -5.057  22.913  0.00  0.00    +0.115 C 
BRANCH   3   5
ATOM      4  C   UNL     1       7.041  -5.230  25.375  0.00  0.00    +0.214 C 
ATOM      5  N   UNL     1       7.636  -5.181  24.135  0.00  0.00    -0.314 N 
ATOM      6  H   UNL     1       8.636  -5.323  24.052  0.00  0.00    +0.149 HD
ATOM      7  O   UNL     1       5.827  -5.190  25.537  0.00  0.00    -0.276 OA
BRANCH   4   8
ATOM      8  C   UNL     1       8.014  -5.320  26.529  0.00  0.00    +0.110 C 
BRANCH   8   9
ATOM      9  C   UNL     1       9.324  -4.651  26.147  0.00  0.00    +0.087 C 
BRANCH   9  10
ATOM     10  N   UNL     1      10.202  -5.588  25.444  0.00  0.00    -0.330 NA
ATOM     11  H   UNL     1      11.024  -5.774  26.019  0.00  0.00    +0.118 HD
ATOM     12  H   UNL     1       9.722  -6.484  25.353  0.00  0.00    +0.118 HD
ENDBRANCH   9  10
ENDBRANCH   8   9
ENDBRANCH   4   8
ENDBRANCH   3   5
ENDBRANCH   2   3
ENDBRANCH   1   2
BRANCH   1  13
ATOM     13  S   UNL     1       8.023  -1.528  24.132  0.00  0.00    -0.092 S 
BRANCH  13  14
ATOM     14  C   UNL     1       9.433  -2.241  23.229  0.00  0.00    +0.099 C 
BRANCH  14  15
ATOM     15  C   UNL     1      10.017  -1.225  22.246  0.00  0.00    +0.115 C 
BRANCH  15  16
ATOM     16  N   UNL     1      10.357   0.036  22.891  0.00  0.00    -0.314 N 
ATOM     17  H   UNL     1      11.098   0.032  23.582  0.00  0.00    +0.149 HD
ATOM     18  C   UNL     1       9.932   1.242  22.375  0.00  0.00    +0.214 C 
ATOM     19  O   UNL     1       9.183   1.335  21.408  0.00  0.00    -0.276 OA
BRANCH  18  20
ATOM     20  C   UNL     1      10.422   2.451  23.139  0.00  0.00    +0.110 C 
BRANCH  20  21
ATOM     21  C   UNL     1       9.345   2.927  24.104  0.00  0.00    +0.087 C 
BRANCH  21  22
ATOM     22  N   UNL     1       9.033   1.896  25.089  0.00  0.00    -0.330 NA
ATOM     23  H   UNL     1       9.644   1.998  25.897  0.00  0.00    +0.118 HD
ATOM     24  H   UNL     1       8.081   2.011  25.433  0.00  0.00    +0.118 HD
ENDBRANCH  21  22
ENDBRANCH  20  21
ENDBRANCH  18  20
ENDBRANCH  15  16
ENDBRANCH  14  15
ENDBRANCH  13  14
ENDBRANCH   1  13
TORSDOF 13
ENDMDL
MODEL 9
REMARK VINA RESULT:      -4.9      3.804      8.467
REMARK  Name = 
REMARK  13 active torsions:
REMARK  status: ('A' for Active; 'I' for Inactive)
REMARK    1  A    between atoms: N_1  and  C_2
REMARK    2  A    between atoms: C_2  and  C_3
REMARK    3  A    between atoms: C_3  and  C_4
REMARK    4  A    between atoms: N_6  and  C_7
REMARK    5  A    between atoms: C_7  and  C_8
REMARK    6  A    between atoms: C_8  and  S_9
REMARK    7  A    between atoms: S_9  and  S_10
REMARK    8  A    between atoms: S_10  and  C_11
REMARK    9  A    between atoms: C_11  and  C_12
REMARK   10  A    between atoms: C_12  and  N_13
REMARK   11  A    between atoms: C_14  and  C_16
REMARK   12  A    between atoms: C_16  and  C_17
REMARK   13  A    between atoms: C_17  and  N_18
REMARK                            x       y       z     vdW  Elec       q    Type
REMARK                         _______ _______ _______ _____ _____    ______ ____
ROOT
ATOM      1  S   UNL     1       5.370  -1.993  26.217  0.00  0.00    -0.092 S 
ENDROOT
BRANCH   1   2
ATOM      2  C   UNL     1       5.082  -3.671  25.536  0.00  0.00    +0.099 C 
BRANCH   2   3
ATOM      3  C   UNL     1       6.324  -4.559  25.513  0.00  0.00    +0.115 C 
BRANCH   3   5
ATOM      4  C   UNL     1       7.324  -5.044  23.303  0.00  0.00    +0.214 C 
ATOM      5  N   UNL     1       6.417  -5.344  24.293  0.00  0.00    -0.314 N 
ATOM      6  H   UNL     1       5.855  -6.185  24.220  0.00  0.00    +0.149 HD
ATOM      7  O   UNL     1       8.120  -4.116  23.382  0.00  0.00    -0.276 OA
BRANCH   4   8
ATOM      8  C   UNL     1       7.246  -5.947  22.092  0.00  0.00    +0.110 C 
BRANCH   8   9
ATOM      9  C   UNL     1       6.151  -5.456  21.157  0.00  0.00    +0.087 C 
BRANCH   9  10
ATOM     10  N   UNL     1       5.727  -4.103  21.518  0.00  0.00    -0.330 NA
ATOM     11  H   UNL     1       4.873  -3.871  21.011  0.00  0.00    +0.118 HD
ATOM     12  H   UNL     1       5.471  -4.089  22.506  0.00  0.00    +0.118 HD
ENDBRANCH   9  10
ENDBRANCH   8   9
ENDBRANCH   4   8
ENDBRANCH   3   5
ENDBRANCH   2   3
ENDBRANCH   1   2
BRANCH   1  13
ATOM     13  S   UNL     1       6.690  -1.134  24.887  0.00  0.00    -0.092 S 
BRANCH  13  14
ATOM     14  C   UNL     1       8.201  -1.024  25.896  0.00  0.00    +0.099 C 
BRANCH  14  15
ATOM     15  C   UNL     1       9.446  -1.011  25.008  0.00  0.00    +0.115 C 
BRANCH  15  16
ATOM     16  N   UNL     1       9.187  -0.421  23.701  0.00  0.00    -0.314 N 
ATOM     17  H   UNL     1       8.757   0.496  23.670  0.00  0.00    +0.149 HD
ATOM     18  C   UNL     1       9.781  -0.919  22.560  0.00  0.00    +0.214 C 
ATOM     19  O   UNL     1      10.485  -1.923  22.549  0.00  0.00    -0.276 OA
BRANCH  18  20
ATOM     20  C   UNL     1       9.445  -0.152  21.301  0.00  0.00    +0.110 C 
BRANCH  20  21
ATOM     21  C   UNL     1       8.942   1.240  21.658  0.00  0.00    +0.087 C 
BRANCH  21  22
ATOM     22  N   UNL     1      10.045   2.193  21.725  0.00  0.00    -0.330 NA
ATOM     23  H   UNL     1      10.303   2.350  22.698  0.00  0.00    +0.118 HD
ATOM     24  H   UNL     1      10.871   1.813  21.267  0.00  0.00    +0.118 HD
ENDBRANCH  21  22
ENDBRANCH  20  21
ENDBRANCH  18  20
ENDBRANCH  15  16
ENDBRANCH  14  15
ENDBRANCH  13  14
ENDBRANCH   1  13
TORSDOF 13
ENDMDL
