MODEL 1
REMARK VINA RESULT:      -8.1      0.000      0.000
REMARK  Name = 
REMARK  10 active torsions:
REMARK  status: ('A' for Active; 'I' for Inactive)
REMARK    1  A    between atoms: C_1  and  C_2
REMARK    2  A    between atoms: C_2  and  C_3
REMARK    3  A    between atoms: C_5  and  C_6
REMARK    4  A    between atoms: C_9  and  C_36
REMARK    5  A    between atoms: N_10  and  C_11
REMARK    6  A    between atoms: C_11  and  C_12
REMARK    7  A    between atoms: C_17  and  C_20
REMARK    8  A    between atoms: C_25  and  N_26
REMARK    9  A    between atoms: N_26  and  S_27
REMARK   10  A    between atoms: S_27  and  C_30
REMARK                            x       y       z     vdW  Elec       q    Type
REMARK                         _______ _______ _______ _____ _____    ______ ____
ROOT
ATOM      1  C   UNL     1       6.809  -3.808  23.812  0.00  0.00    -0.027 A 
ATOM      2  C   UNL     1       7.549  -3.650  22.624  0.00  0.00    +0.009 A 
ATOM      3  C   UNL     1       7.857  -2.378  22.108  0.00  0.00    +0.047 A 
ATOM      4  C   UNL     1       7.368  -1.276  22.812  0.00  0.00    +0.137 A 
ATOM      5  O   UNL     1       7.474   0.032  22.439  0.00  0.00    -0.454 OA
ATOM      6  C   UNL     1       6.770   0.796  23.350  0.00  0.00    +0.152 A 
ATOM      7  C   UNL     1       6.291  -0.049  24.333  0.00  0.00    +0.071 A 
ATOM      8 BR   UNL     1       5.138   0.326  25.770  0.00  0.00    -0.046 Br
ATOM      9  C   UNL     1       6.654  -1.379  23.996  0.00  0.00    +0.035 A 
ATOM     10  C   UNL     1       6.404  -2.662  24.523  0.00  0.00    +0.018 A 
ENDROOT
BRANCH   6  11
ATOM     11  C   UNL     1       6.594   2.209  22.978  0.00  0.00    +0.041 A 
ATOM     12  C   UNL     1       7.631   3.097  22.613  0.00  0.00    +0.059 A 
ATOM     13  C   UNL     1       7.358   4.452  22.369  0.00  0.00    +0.025 A 
ATOM     14  C   UNL     1       6.063   4.952  22.481  0.00  0.00    +0.002 A 
ATOM     15  C   UNL     1       5.027   4.096  22.827  0.00  0.00    +0.001 A 
ATOM     16  C   UNL     1       5.291   2.746  23.072  0.00  0.00    +0.013 A 
BRANCH  12  17
ATOM     17  N   UNL     1       8.990   2.701  22.410  0.00  0.00    -0.212 N 
ATOM     18  H   UNL     1       9.467   3.121  21.610  0.00  0.00    +0.174 HD
BRANCH  17  19
ATOM     19  S   UNL     1      10.030   2.713  23.762  0.00  0.00    +0.141 S 
ATOM     20  O   UNL     1       9.278   3.197  24.905  0.00  0.00    -0.147 OA
ATOM     21  O   UNL     1      11.173   3.479  23.288  0.00  0.00    -0.147 OA
BRANCH  19  22
ATOM     22  C   UNL     1      10.532   0.921  23.991  0.00  0.00    +0.538 C 
ATOM     23  F   UNL     1      11.775   0.799  24.539  0.00  0.00    -0.149 F 
ATOM     24  F   UNL     1      10.556   0.237  22.812  0.00  0.00    -0.149 F 
ATOM     25  F   UNL     1       9.679   0.241  24.813  0.00  0.00    -0.149 F 
ENDBRANCH  19  22
ENDBRANCH  17  19
ENDBRANCH  12  17
ENDBRANCH   6  11
BRANCH   1  26
ATOM     26  C   UNL     1       6.534  -5.176  24.392  0.00  0.00    +0.158 C 
BRANCH  26  28
ATOM     27  C   UNL     1       7.684  -5.160  26.736  0.00  0.00    +0.111 A 
ATOM     28  N   UNL     1       6.660  -5.412  25.839  0.00  0.00    -0.319 N 
ATOM     29  C   UNL     1       5.568  -5.884  26.595  0.00  0.00    +0.127 A 
ATOM     30  C   UNL     1       6.088  -6.068  27.859  0.00  0.00    +0.075 A 
ATOM     31  N   UNL     1       7.362  -5.597  27.940  0.00  0.00    -0.236 NA
BRANCH  29  32
ATOM     32  C   UNL     1       4.232  -6.089  26.093  0.00  0.00    +0.260 C 
ATOM     33  O   UNL     1       3.386  -5.211  25.962  0.00  0.00    -0.269 OA
ATOM     34  N   UNL     1       3.885  -7.384  25.833  0.00  0.00    -0.324 N 
ATOM     35  H   UNL     1       2.922  -7.560  25.586  0.00  0.00    +0.145 HD
ATOM     36  H   UNL     1       4.448  -8.158  26.159  0.00  0.00    +0.145 HD
ENDBRANCH  29  32
BRANCH  30  37
ATOM     37  C   UNL     1       5.378  -6.687  29.058  0.00  0.00    +0.040 C 
ATOM     38  C   UNL     1       4.479  -5.784  29.879  0.00  0.00    +0.010 C 
ATOM     39  C   UNL     1       5.771  -6.252  30.455  0.00  0.00    +0.010 C 
ENDBRANCH  30  37
BRANCH  27  41
ATOM     40  C   UNL     1       9.869  -5.168  25.504  0.00  0.00    +0.012 C 
ATOM     41  C   UNL     1       8.980  -4.456  26.511  0.00  0.00    +0.071 C 
ENDBRANCH  27  41
ENDBRANCH  26  28
ENDBRANCH   1  26
TORSDOF 9
ENDMDL
MODEL 2
REMARK VINA RESULT:      -7.9      1.804      2.740
REMARK  Name = 
REMARK  10 active torsions:
REMARK  status: ('A' for Active; 'I' for Inactive)
REMARK    1  A    between atoms: C_1  and  C_2
REMARK    2  A    between atoms: C_2  and  C_3
REMARK    3  A    between atoms: C_5  and  C_6
REMARK    4  A    between atoms: C_9  and  C_36
REMARK    5  A    between atoms: N_10  and  C_11
REMARK    6  A    between atoms: C_11  and  C_12
REMARK    7  A    between atoms: C_17  and  C_20
REMARK    8  A    between atoms: C_25  and  N_26
REMARK    9  A    between atoms: N_26  and  S_27
REMARK   10  A    between atoms: S_27  and  C_30
REMARK                            x       y       z     vdW  Elec       q    Type
REMARK                         _______ _______ _______ _____ _____    ______ ____
ROOT
ATOM      1  C   UNL     1       8.115  -2.730  23.480  0.00  0.00    -0.027 A 
ATOM      2  C   UNL     1       8.768  -2.267  22.321  0.00  0.00    +0.009 A 
ATOM      3  C   UNL     1       8.689  -0.922  21.914  0.00  0.00    +0.047 A 
ATOM      4  C   UNL     1       7.906  -0.071  22.697  0.00  0.00    +0.137 A 
ATOM      5  O   UNL     1       7.626   1.237  22.432  0.00  0.00    -0.454 OA
ATOM      6  C   UNL     1       6.736   1.687  23.390  0.00  0.00    +0.152 A 
ATOM      7  C   UNL     1       6.531   0.662  24.293  0.00  0.00    +0.071 A 
ATOM      8 BR   UNL     1       5.330   0.568  25.738  0.00  0.00    -0.046 Br
ATOM      9  C   UNL     1       7.263  -0.473  23.856  0.00  0.00    +0.035 A 
ATOM     10  C   UNL     1       7.400  -1.813  24.275  0.00  0.00    +0.018 A 
ENDROOT
BRANCH   6  11
ATOM     11  C   UNL     1       6.155   3.014  23.130  0.00  0.00    +0.041 A 
ATOM     12  C   UNL     1       6.882   4.174  22.782  0.00  0.00    +0.059 A 
ATOM     13  C   UNL     1       6.231   5.411  22.650  0.00  0.00    +0.025 A 
ATOM     14  C   UNL     1       4.859   5.524  22.859  0.00  0.00    +0.002 A 
ATOM     15  C   UNL     1       4.123   4.395  23.191  0.00  0.00    +0.001 A 
ATOM     16  C   UNL     1       4.763   3.160  23.324  0.00  0.00    +0.013 A 
BRANCH  12  17
ATOM     17  N   UNL     1       8.281   4.185  22.487  0.00  0.00    -0.212 N 
ATOM     18  H   UNL     1       8.582   4.831  21.755  0.00  0.00    +0.174 HD
BRANCH  17  19
ATOM     19  S   UNL     1       9.368   4.266  23.798  0.00  0.00    +0.141 S 
ATOM     20  O   UNL     1       8.613   4.066  25.022  0.00  0.00    -0.147 OA
ATOM     21  O   UNL     1      10.047   5.535  23.583  0.00  0.00    -0.147 OA
BRANCH  19  22
ATOM     22  C   UNL     1      10.571   2.858  23.507  0.00  0.00    +0.538 C 
ATOM     23  F   UNL     1      10.481   2.354  22.243  0.00  0.00    -0.149 F 
ATOM     24  F   UNL     1      10.359   1.814  24.358  0.00  0.00    -0.149 F 
ATOM     25  F   UNL     1      11.871   3.237  23.681  0.00  0.00    -0.149 F 
ENDBRANCH  19  22
ENDBRANCH  17  19
ENDBRANCH  12  17
ENDBRANCH   6  11
BRANCH   1  26
ATOM     26  C   UNL     1       8.253  -4.162  23.944  0.00  0.00    +0.158 C 
BRANCH  26  28
ATOM     27  C   UNL     1       6.323  -5.742  23.171  0.00  0.00    +0.111 A 
ATOM     28  N   UNL     1       7.065  -5.017  24.089  0.00  0.00    -0.319 N 
ATOM     29  C   UNL     1       6.543  -5.324  25.362  0.00  0.00    +0.127 A 
ATOM     30  C   UNL     1       5.402  -6.050  25.092  0.00  0.00    +0.075 A 
ATOM     31  N   UNL     1       5.296  -6.323  23.764  0.00  0.00    -0.236 NA
BRANCH  29  32
ATOM     32  C   UNL     1       7.134  -4.941  26.620  0.00  0.00    +0.260 C 
ATOM     33  O   UNL     1       7.022  -3.838  27.144  0.00  0.00    -0.269 OA
ATOM     34  N   UNL     1       7.945  -5.871  27.206  0.00  0.00    -0.324 N 
ATOM     35  H   UNL     1       8.453  -5.582  28.030  0.00  0.00    +0.145 HD
ATOM     36  H   UNL     1       8.268  -6.684  26.701  0.00  0.00    +0.145 HD
ENDBRANCH  29  32
BRANCH  30  37
ATOM     37  C   UNL     1       4.368  -6.536  26.102  0.00  0.00    +0.040 C 
ATOM     38  C   UNL     1       2.927  -6.119  25.879  0.00  0.00    +0.010 C 
ATOM     39  C   UNL     1       3.694  -5.529  27.012  0.00  0.00    +0.010 C 
ENDBRANCH  30  37
BRANCH  27  41
ATOM     40  C   UNL     1       6.156  -4.770  20.864  0.00  0.00    +0.012 C 
ATOM     41  C   UNL     1       6.577  -5.958  21.717  0.00  0.00    +0.071 C 
ENDBRANCH  27  41
ENDBRANCH  26  28
ENDBRANCH   1  26
TORSDOF 9
ENDMDL
MODEL 3
REMARK VINA RESULT:      -7.8      2.855      4.231
REMARK  Name = 
REMARK  10 active torsions:
REMARK  status: ('A' for Active; 'I' for Inactive)
REMARK    1  A    between atoms: C_1  and  C_2
REMARK    2  A    between atoms: C_2  and  C_3
REMARK    3  A    between atoms: C_5  and  C_6
REMARK    4  A    between atoms: C_9  and  C_36
REMARK    5  A    between atoms: N_10  and  C_11
REMARK    6  A    between atoms: C_11  and  C_12
REMARK    7  A    between atoms: C_17  and  C_20
REMARK    8  A    between atoms: C_25  and  N_26
REMARK    9  A    between atoms: N_26  and  S_27
REMARK   10  A    between atoms: S_27  and  C_30
REMARK                            x       y       z     vdW  Elec       q    Type
REMARK                         _______ _______ _______ _____ _____    ______ ____
ROOT
ATOM      1  C   UNL     1       8.700  -2.921  25.052  0.00  0.00    -0.027 A 
ATOM      2  C   UNL     1       8.652  -2.387  26.354  0.00  0.00    +0.009 A 
ATOM      3  C   UNL     1       8.740  -1.003  26.589  0.00  0.00    +0.047 A 
ATOM      4  C   UNL     1       8.910  -0.182  25.472  0.00  0.00    +0.137 A 
ATOM      5  O   UNL     1       9.107   1.168  25.486  0.00  0.00    -0.454 OA
ATOM      6  C   UNL     1       9.336   1.580  24.186  0.00  0.00    +0.152 A 
ATOM      7  C   UNL     1       9.202   0.479  23.362  0.00  0.00    +0.071 A 
ATOM      8 BR   UNL     1       9.530   0.325  21.516  0.00  0.00    -0.046 Br
ATOM      9  C   UNL     1       8.942  -0.657  24.171  0.00  0.00    +0.035 A 
ATOM     10  C   UNL     1       8.797  -2.043  23.955  0.00  0.00    +0.018 A 
ENDROOT
BRANCH   6  11
ATOM     11  C   UNL     1       9.785   2.974  24.041  0.00  0.00    +0.041 A 
ATOM     12  C   UNL     1       8.998   4.120  24.292  0.00  0.00    +0.059 A 
ATOM     13  C   UNL     1       9.502   5.404  24.030  0.00  0.00    +0.025 A 
ATOM     14  C   UNL     1      10.784   5.578  23.517  0.00  0.00    +0.002 A 
ATOM     15  C   UNL     1      11.580   4.466  23.274  0.00  0.00    +0.001 A 
ATOM     16  C   UNL     1      11.086   3.185  23.532  0.00  0.00    +0.013 A 
BRANCH  12  17
ATOM     17  N   UNL     1       7.689   4.084  24.868  0.00  0.00    -0.212 N 
ATOM     18  H   UNL     1       7.449   4.856  25.492  0.00  0.00    +0.174 HD
BRANCH  17  19
ATOM     19  S   UNL     1       6.375   3.763  23.830  0.00  0.00    +0.141 S 
ATOM     20  O   UNL     1       6.885   3.660  22.475  0.00  0.00    -0.147 OA
ATOM     21  O   UNL     1       5.434   4.823  24.156  0.00  0.00    -0.147 OA
BRANCH  19  22
ATOM     22  C   UNL     1       5.691   2.120  24.422  0.00  0.00    +0.538 C 
ATOM     23  F   UNL     1       6.190   1.760  25.640  0.00  0.00    -0.149 F 
ATOM     24  F   UNL     1       5.984   1.100  23.565  0.00  0.00    -0.149 F 
ATOM     25  F   UNL     1       4.332   2.136  24.550  0.00  0.00    -0.149 F 
ENDBRANCH  19  22
ENDBRANCH  17  19
ENDBRANCH  12  17
ENDBRANCH   6  11
BRANCH   1  26
ATOM     26  C   UNL     1       8.544  -4.404  24.802  0.00  0.00    +0.158 C 
BRANCH  26  28
ATOM     27  C   UNL     1       6.640  -5.410  23.325  0.00  0.00    +0.111 A 
ATOM     28  N   UNL     1       7.221  -4.975  24.505  0.00  0.00    -0.319 N 
ATOM     29  C   UNL     1       6.317  -5.288  25.540  0.00  0.00    +0.127 A 
ATOM     30  C   UNL     1       5.179  -5.701  24.879  0.00  0.00    +0.075 A 
ATOM     31  N   UNL     1       5.397  -5.800  23.540  0.00  0.00    -0.236 NA
BRANCH  29  32
ATOM     32  C   UNL     1       6.596  -5.185  26.951  0.00  0.00    +0.260 C 
ATOM     33  O   UNL     1       6.118  -4.344  27.704  0.00  0.00    -0.269 OA
ATOM     34  N   UNL     1       7.533  -6.052  27.438  0.00  0.00    -0.324 N 
ATOM     35  H   UNL     1       7.821  -5.924  28.397  0.00  0.00    +0.145 HD
ATOM     36  H   UNL     1       8.131  -6.585  26.822  0.00  0.00    +0.145 HD
ENDBRANCH  29  32
BRANCH  30  37
ATOM     37  C   UNL     1       3.831  -6.041  25.506  0.00  0.00    +0.040 C 
ATOM     38  C   UNL     1       3.444  -7.506  25.574  0.00  0.00    +0.010 C 
ATOM     39  C   UNL     1       2.729  -6.602  24.629  0.00  0.00    +0.010 C 
ENDBRANCH  30  37
BRANCH  27  41
ATOM     40  C   UNL     1       6.198  -5.687  20.872  0.00  0.00    +0.012 C 
ATOM     41  C   UNL     1       7.242  -5.523  21.966  0.00  0.00    +0.071 C 
ENDBRANCH  27  41
ENDBRANCH  26  28
ENDBRANCH   1  26
TORSDOF 9
ENDMDL
MODEL 4
REMARK VINA RESULT:      -7.7      1.864      2.944
REMARK  Name = 
REMARK  10 active torsions:
REMARK  status: ('A' for Active; 'I' for Inactive)
REMARK    1  A    between atoms: C_1  and  C_2
REMARK    2  A    between atoms: C_2  and  C_3
REMARK    3  A    between atoms: C_5  and  C_6
REMARK    4  A    between atoms: C_9  and  C_36
REMARK    5  A    between atoms: N_10  and  C_11
REMARK    6  A    between atoms: C_11  and  C_12
REMARK    7  A    between atoms: C_17  and  C_20
REMARK    8  A    between atoms: C_25  and  N_26
REMARK    9  A    between atoms: N_26  and  S_27
REMARK   10  A    between atoms: S_27  and  C_30
REMARK                            x       y       z     vdW  Elec       q    Type
REMARK                         _______ _______ _______ _____ _____    ______ ____
ROOT
ATOM      1  C   UNL     1       8.152  -2.574  23.377  0.00  0.00    -0.027 A 
ATOM      2  C   UNL     1       8.842  -2.078  22.254  0.00  0.00    +0.009 A 
ATOM      3  C   UNL     1       8.779  -0.721  21.887  0.00  0.00    +0.047 A 
ATOM      4  C   UNL     1       7.975   0.108  22.672  0.00  0.00    +0.137 A 
ATOM      5  O   UNL     1       7.706   1.425  22.439  0.00  0.00    -0.454 OA
ATOM      6  C   UNL     1       6.788   1.847  23.383  0.00  0.00    +0.152 A 
ATOM      7  C   UNL     1       6.552   0.795  24.247  0.00  0.00    +0.071 A 
ATOM      8 BR   UNL     1       5.307   0.660  25.650  0.00  0.00    -0.046 Br
ATOM      9  C   UNL     1       7.294  -0.328  23.798  0.00  0.00    +0.035 A 
ATOM     10  C   UNL     1       7.415  -1.680  24.177  0.00  0.00    +0.018 A 
ENDROOT
BRANCH   6  11
ATOM     11  C   UNL     1       6.218   3.184  23.148  0.00  0.00    +0.041 A 
ATOM     12  C   UNL     1       6.953   4.340  22.803  0.00  0.00    +0.059 A 
ATOM     13  C   UNL     1       6.315   5.586  22.694  0.00  0.00    +0.025 A 
ATOM     14  C   UNL     1       4.948   5.712  22.924  0.00  0.00    +0.002 A 
ATOM     15  C   UNL     1       4.203   4.587  23.253  0.00  0.00    +0.001 A 
ATOM     16  C   UNL     1       4.831   3.343  23.363  0.00  0.00    +0.013 A 
BRANCH  12  17
ATOM     17  N   UNL     1       8.349   4.339  22.488  0.00  0.00    -0.212 N 
ATOM     18  H   UNL     1       8.646   4.986  21.756  0.00  0.00    +0.174 HD
BRANCH  17  19
ATOM     19  S   UNL     1       9.454   4.401  23.785  0.00  0.00    +0.141 S 
ATOM     20  O   UNL     1       8.712   4.222  25.019  0.00  0.00    -0.147 OA
ATOM     21  O   UNL     1      10.158   5.653  23.555  0.00  0.00    -0.147 OA
BRANCH  19  22
ATOM     22  C   UNL     1      10.622   2.965  23.483  0.00  0.00    +0.538 C 
ATOM     23  F   UNL     1      11.928   3.315  23.658  0.00  0.00    -0.149 F 
ATOM     24  F   UNL     1      10.516   2.471  22.217  0.00  0.00    -0.149 F 
ATOM     25  F   UNL     1      10.386   1.915  24.325  0.00  0.00    -0.149 F 
ENDBRANCH  19  22
ENDBRANCH  17  19
ENDBRANCH  12  17
ENDBRANCH   6  11
BRANCH   1  26
ATOM     26  C   UNL     1       8.272  -4.021  23.800  0.00  0.00    +0.158 C 
BRANCH  26  28
ATOM     27  C   UNL     1       6.658  -5.129  25.528  0.00  0.00    +0.111 A 
ATOM     28  N   UNL     1       7.090  -4.763  24.264  0.00  0.00    -0.319 N 
ATOM     29  C   UNL     1       6.072  -5.142  23.365  0.00  0.00    +0.127 A 
ATOM     30  C   UNL     1       5.202  -5.885  24.135  0.00  0.00    +0.075 A 
ATOM     31  N   UNL     1       5.551  -5.844  25.449  0.00  0.00    -0.236 NA
BRANCH  29  32
ATOM     32  C   UNL     1       6.015  -4.784  21.970  0.00  0.00    +0.260 C 
ATOM     33  O   UNL     1       5.474  -3.778  21.522  0.00  0.00    -0.269 OA
ATOM     34  N   UNL     1       6.537  -5.696  21.098  0.00  0.00    -0.324 N 
ATOM     35  H   UNL     1       6.410  -5.515  20.112  0.00  0.00    +0.145 HD
ATOM     36  H   UNL     1       6.762  -6.638  21.389  0.00  0.00    +0.145 HD
ENDBRANCH  29  32
BRANCH  30  37
ATOM     37  C   UNL     1       3.979  -6.655  23.648  0.00  0.00    +0.040 C 
ATOM     38  C   UNL     1       2.688  -5.878  23.479  0.00  0.00    +0.010 C 
ATOM     39  C   UNL     1       2.812  -6.861  24.592  0.00  0.00    +0.010 C 
ENDBRANCH  30  37
BRANCH  27  41
ATOM     40  C   UNL     1       6.700  -5.650  27.982  0.00  0.00    +0.012 C 
ATOM     41  C   UNL     1       7.238  -4.779  26.857  0.00  0.00    +0.071 C 
ENDBRANCH  27  41
ENDBRANCH  26  28
ENDBRANCH   1  26
TORSDOF 9
ENDMDL
MODEL 5
REMARK VINA RESULT:      -7.6      2.952      4.426
REMARK  Name = 
REMARK  10 active torsions:
REMARK  status: ('A' for Active; 'I' for Inactive)
REMARK    1  A    between atoms: C_1  and  C_2
REMARK    2  A    between atoms: C_2  and  C_3
REMARK    3  A    between atoms: C_5  and  C_6
REMARK    4  A    between atoms: C_9  and  C_36
REMARK    5  A    between atoms: N_10  and  C_11
REMARK    6  A    between atoms: C_11  and  C_12
REMARK    7  A    between atoms: C_17  and  C_20
REMARK    8  A    between atoms: C_25  and  N_26
REMARK    9  A    between atoms: N_26  and  S_27
REMARK   10  A    between atoms: S_27  and  C_30
REMARK                            x       y       z     vdW  Elec       q    Type
REMARK                         _______ _______ _______ _____ _____    ______ ____
ROOT
ATOM      1  C   UNL     1       8.438  -3.113  24.922  0.00  0.00    -0.027 A 
ATOM      2  C   UNL     1       8.423  -2.618  26.240  0.00  0.00    +0.009 A 
ATOM      3  C   UNL     1       8.574  -1.247  26.517  0.00  0.00    +0.047 A 
ATOM      4  C   UNL     1       8.771  -0.400  25.425  0.00  0.00    +0.137 A 
ATOM      5  O   UNL     1       9.027   0.939  25.479  0.00  0.00    -0.454 OA
ATOM      6  C   UNL     1       9.263   1.382  24.191  0.00  0.00    +0.152 A 
ATOM      7  C   UNL     1       9.075   0.314  23.333  0.00  0.00    +0.071 A 
ATOM      8 BR   UNL     1       9.382   0.204  21.481  0.00  0.00    -0.046 Br
ATOM      9  C   UNL     1       8.772  -0.835  24.109  0.00  0.00    +0.035 A 
ATOM     10  C   UNL     1       8.565  -2.205  23.852  0.00  0.00    +0.018 A 
ENDROOT
BRANCH   6  11
ATOM     11  C   UNL     1       9.772   2.759  24.085  0.00  0.00    +0.041 A 
ATOM     12  C   UNL     1       9.047   3.928  24.405  0.00  0.00    +0.059 A 
ATOM     13  C   UNL     1       9.601   5.198  24.176  0.00  0.00    +0.025 A 
ATOM     14  C   UNL     1      10.874   5.334  23.629  0.00  0.00    +0.002 A 
ATOM     15  C   UNL     1      11.610   4.198  23.318  0.00  0.00    +0.001 A 
ATOM     16  C   UNL     1      11.065   2.931  23.543  0.00  0.00    +0.013 A 
BRANCH  12  17
ATOM     17  N   UNL     1       7.755   3.928  25.021  0.00  0.00    -0.212 N 
ATOM     18  H   UNL     1       7.589   4.655  25.719  0.00  0.00    +0.174 HD
BRANCH  17  19
ATOM     19  S   UNL     1       6.393   3.791  24.006  0.00  0.00    +0.141 S 
ATOM     20  O   UNL     1       6.853   3.805  22.629  0.00  0.00    -0.147 OA
ATOM     21  O   UNL     1       5.526   4.862  24.475  0.00  0.00    -0.147 OA
BRANCH  19  22
ATOM     22  C   UNL     1       5.633   2.135  24.449  0.00  0.00    +0.538 C 
ATOM     23  F   UNL     1       4.270   2.185  24.487  0.00  0.00    -0.149 F 
ATOM     24  F   UNL     1       6.042   1.691  25.671  0.00  0.00    -0.149 F 
ATOM     25  F   UNL     1       5.959   1.156  23.555  0.00  0.00    -0.149 F 
ENDBRANCH  19  22
ENDBRANCH  17  19
ENDBRANCH  12  17
ENDBRANCH   6  11
BRANCH   1  26
ATOM     26  C   UNL     1       8.216  -4.578  24.627  0.00  0.00    +0.158 C 
BRANCH  26  28
ATOM     27  C   UNL     1       6.162  -5.623  25.856  0.00  0.00    +0.111 A 
ATOM     28  N   UNL     1       6.875  -5.171  24.758  0.00  0.00    -0.319 N 
ATOM     29  C   UNL     1       6.008  -5.255  23.651  0.00  0.00    +0.127 A 
ATOM     30  C   UNL     1       4.911  -5.940  24.132  0.00  0.00    +0.075 A 
ATOM     31  N   UNL     1       5.003  -6.129  25.476  0.00  0.00    -0.236 NA
BRANCH  29  32
ATOM     32  C   UNL     1       6.271  -4.712  22.342  0.00  0.00    +0.260 C 
ATOM     33  O   UNL     1       5.829  -3.650  21.917  0.00  0.00    -0.269 OA
ATOM     34  N   UNL     1       7.002  -5.505  21.503  0.00  0.00    -0.324 N 
ATOM     35  H   UNL     1       7.104  -5.191  20.548  0.00  0.00    +0.145 HD
ATOM     36  H   UNL     1       7.172  -6.479  21.710  0.00  0.00    +0.145 HD
ENDBRANCH  29  32
BRANCH  30  37
ATOM     37  C   UNL     1       3.712  -6.426  23.327  0.00  0.00    +0.040 C 
ATOM     38  C   UNL     1       2.488  -5.532  23.291  0.00  0.00    +0.010 C 
ATOM     39  C   UNL     1       2.440  -6.810  24.056  0.00  0.00    +0.010 C 
ENDBRANCH  30  37
BRANCH  27  41
ATOM     40  C   UNL     1       5.659  -4.557  28.070  0.00  0.00    +0.012 C 
ATOM     41  C   UNL     1       6.517  -5.552  27.303  0.00  0.00    +0.071 C 
ENDBRANCH  27  41
ENDBRANCH  26  28
ENDBRANCH   1  26
TORSDOF 9
ENDMDL
MODEL 6
REMARK VINA RESULT:      -7.4      3.364      4.513
REMARK  Name = 
REMARK  10 active torsions:
REMARK  status: ('A' for Active; 'I' for Inactive)
REMARK    1  A    between atoms: C_1  and  C_2
REMARK    2  A    between atoms: C_2  and  C_3
REMARK    3  A    between atoms: C_5  and  C_6
REMARK    4  A    between atoms: C_9  and  C_36
REMARK    5  A    between atoms: N_10  and  C_11
REMARK    6  A    between atoms: C_11  and  C_12
REMARK    7  A    between atoms: C_17  and  C_20
REMARK    8  A    between atoms: C_25  and  N_26
REMARK    9  A    between atoms: N_26  and  S_27
REMARK   10  A    between atoms: S_27  and  C_30
REMARK                            x       y       z     vdW  Elec       q    Type
REMARK                         _______ _______ _______ _____ _____    ______ ____
ROOT
ATOM      1  C   UNL     1       8.747  -2.090  23.308  0.00  0.00    -0.027 A 
ATOM      2  C   UNL     1       9.256  -1.776  22.033  0.00  0.00    +0.009 A 
ATOM      3  C   UNL     1       9.443  -0.443  21.619  0.00  0.00    +0.047 A 
ATOM      4  C   UNL     1       9.071   0.555  22.521  0.00  0.00    +0.137 A 
ATOM      5  O   UNL     1       9.085   1.899  22.287  0.00  0.00    -0.454 OA
ATOM      6  C   UNL     1       8.544   2.532  23.391  0.00  0.00    +0.152 A 
ATOM      7  C   UNL     1       8.267   1.567  24.340  0.00  0.00    +0.071 A 
ATOM      8 BR   UNL     1       7.388   1.739  25.994  0.00  0.00    -0.046 Br
ATOM      9  C   UNL     1       8.586   0.297  23.794  0.00  0.00    +0.035 A 
ATOM     10  C   UNL     1       8.458  -1.045  24.206  0.00  0.00    +0.018 A 
ENDROOT
BRANCH   6  11
ATOM     11  C   UNL     1       8.279   3.970  23.221  0.00  0.00    +0.041 A 
ATOM     12  C   UNL     1       7.140   4.526  22.596  0.00  0.00    +0.059 A 
ATOM     13  C   UNL     1       7.036   5.913  22.406  0.00  0.00    +0.025 A 
ATOM     14  C   UNL     1       8.049   6.770  22.826  0.00  0.00    +0.002 A 
ATOM     15  C   UNL     1       9.171   6.247  23.454  0.00  0.00    +0.001 A 
ATOM     16  C   UNL     1       9.282   4.868  23.647  0.00  0.00    +0.013 A 
BRANCH  12  17
ATOM     17  N   UNL     1       6.008   3.764  22.167  0.00  0.00    -0.212 N 
ATOM     18  H   UNL     1       6.211   2.913  21.640  0.00  0.00    +0.174 HD
BRANCH  17  19
ATOM     19  S   UNL     1       4.788   3.444  23.314  0.00  0.00    +0.141 S 
ATOM     20  O   UNL     1       5.013   4.301  24.464  0.00  0.00    -0.147 OA
ATOM     21  O   UNL     1       4.865   2.000  23.480  0.00  0.00    -0.147 OA
BRANCH  19  22
ATOM     22  C   UNL     1       3.188   3.887  22.443  0.00  0.00    +0.538 C 
ATOM     23  F   UNL     1       2.115   3.855  23.284  0.00  0.00    -0.149 F 
ATOM     24  F   UNL     1       2.905   3.034  21.418  0.00  0.00    -0.149 F 
ATOM     25  F   UNL     1       3.218   5.141  21.902  0.00  0.00    -0.149 F 
ENDBRANCH  19  22
ENDBRANCH  17  19
ENDBRANCH  12  17
ENDBRANCH   6  11
BRANCH   1  26
ATOM     26  C   UNL     1       8.606  -3.523  23.767  0.00  0.00    +0.158 C 
BRANCH  26  28
ATOM     27  C   UNL     1       6.204  -4.400  23.233  0.00  0.00    +0.111 A 
ATOM     28  N   UNL     1       7.277  -4.088  24.052  0.00  0.00    -0.319 N 
ATOM     29  C   UNL     1       6.941  -4.536  25.345  0.00  0.00    +0.127 A 
ATOM     30  C   UNL     1       5.614  -4.899  25.242  0.00  0.00    +0.075 A 
ATOM     31  N   UNL     1       5.189  -4.841  23.952  0.00  0.00    -0.236 NA
BRANCH  29  32
ATOM     32  C   UNL     1       7.841  -4.588  26.470  0.00  0.00    +0.260 C 
ATOM     33  O   UNL     1       8.237  -3.613  27.101  0.00  0.00    -0.269 OA
ATOM     34  N   UNL     1       8.341  -5.821  26.779  0.00  0.00    -0.324 N 
ATOM     35  H   UNL     1       9.055  -5.861  27.492  0.00  0.00    +0.145 HD
ATOM     36  H   UNL     1       8.248  -6.603  26.145  0.00  0.00    +0.145 HD
ENDBRANCH  29  32
BRANCH  30  37
ATOM     37  C   UNL     1       4.696  -5.339  26.377  0.00  0.00    +0.040 C 
ATOM     38  C   UNL     1       4.813  -6.775  26.852  0.00  0.00    +0.010 C 
ATOM     39  C   UNL     1       3.603  -6.349  26.093  0.00  0.00    +0.010 C 
ENDBRANCH  30  37
BRANCH  27  41
ATOM     40  C   UNL     1       6.367  -5.692  21.089  0.00  0.00    +0.012 C 
ATOM     41  C   UNL     1       6.109  -4.344  21.746  0.00  0.00    +0.071 C 
ENDBRANCH  27  41
ENDBRANCH  26  28
ENDBRANCH   1  26
TORSDOF 9
ENDMDL
MODEL 7
REMARK VINA RESULT:      -7.2      3.037      9.169
REMARK  Name = 
REMARK  10 active torsions:
REMARK  status: ('A' for Active; 'I' for Inactive)
REMARK    1  A    between atoms: C_1  and  C_2
REMARK    2  A    between atoms: C_2  and  C_3
REMARK    3  A    between atoms: C_5  and  C_6
REMARK    4  A    between atoms: C_9  and  C_36
REMARK    5  A    between atoms: N_10  and  C_11
REMARK    6  A    between atoms: C_11  and  C_12
REMARK    7  A    between atoms: C_17  and  C_20
REMARK    8  A    between atoms: C_25  and  N_26
REMARK    9  A    between atoms: N_26  and  S_27
REMARK   10  A    between atoms: S_27  and  C_30
REMARK                            x       y       z     vdW  Elec       q    Type
REMARK                         _______ _______ _______ _____ _____    ______ ____
ROOT
ATOM      1  C   UNL     1       9.179   0.973  24.657  0.00  0.00    -0.027 A 
ATOM      2  C   UNL     1      10.083  -0.018  24.229  0.00  0.00    +0.009 A 
ATOM      3  C   UNL     1       9.770  -1.388  24.308  0.00  0.00    +0.047 A 
ATOM      4  C   UNL     1       8.531  -1.721  24.860  0.00  0.00    +0.137 A 
ATOM      5  O   UNL     1       8.073  -2.982  25.110  0.00  0.00    -0.454 OA
ATOM      6  C   UNL     1       6.854  -2.874  25.754  0.00  0.00    +0.152 A 
ATOM      7  C   UNL     1       6.531  -1.532  25.831  0.00  0.00    +0.071 A 
ATOM      8 BR   UNL     1       5.094  -0.701  26.713  0.00  0.00    -0.046 Br
ATOM      9  C   UNL     1       7.600  -0.783  25.275  0.00  0.00    +0.035 A 
ATOM     10  C   UNL     1       7.913   0.585  25.136  0.00  0.00    +0.018 A 
ENDROOT
BRANCH   6  11
ATOM     11  C   UNL     1       6.319  -4.134  26.295  0.00  0.00    +0.041 A 
ATOM     12  C   UNL     1       5.950  -5.263  25.531  0.00  0.00    +0.059 A 
ATOM     13  C   UNL     1       5.360  -6.380  26.146  0.00  0.00    +0.025 A 
ATOM     14  C   UNL     1       5.125  -6.399  27.518  0.00  0.00    +0.002 A 
ATOM     15  C   UNL     1       5.490  -5.305  28.290  0.00  0.00    +0.001 A 
ATOM     16  C   UNL     1       6.077  -4.190  27.685  0.00  0.00    +0.013 A 
BRANCH  12  17
ATOM     17  N   UNL     1       6.186  -5.393  24.126  0.00  0.00    -0.212 N 
ATOM     18  H   UNL     1       6.407  -6.333  23.791  0.00  0.00    +0.174 HD
BRANCH  17  19
ATOM     19  S   UNL     1       5.073  -4.659  23.064  0.00  0.00    +0.141 S 
ATOM     20  O   UNL     1       4.036  -4.029  23.861  0.00  0.00    -0.147 OA
ATOM     21  O   UNL     1       4.715  -5.744  22.163  0.00  0.00    -0.147 OA
BRANCH  19  22
ATOM     22  C   UNL     1       6.078  -3.380  22.131  0.00  0.00    +0.538 C 
ATOM     23  F   UNL     1       5.745  -3.323  20.810  0.00  0.00    -0.149 F 
ATOM     24  F   UNL     1       7.417  -3.637  22.184  0.00  0.00    -0.149 F 
ATOM     25  F   UNL     1       5.909  -2.119  22.627  0.00  0.00    -0.149 F 
ENDBRANCH  19  22
ENDBRANCH  17  19
ENDBRANCH  12  17
ENDBRANCH   6  11
BRANCH   1  26
ATOM     26  C   UNL     1       9.498   2.444  24.513  0.00  0.00    +0.158 C 
BRANCH  26  28
ATOM     27  C   UNL     1       7.886   3.067  22.555  0.00  0.00    +0.111 A 
ATOM     28  N   UNL     1       8.648   3.314  23.685  0.00  0.00    -0.319 N 
ATOM     29  C   UNL     1       8.394   4.649  24.059  0.00  0.00    +0.127 A 
ATOM     30  C   UNL     1       7.656   5.159  23.011  0.00  0.00    +0.075 A 
ATOM     31  N   UNL     1       7.328   4.183  22.122  0.00  0.00    -0.236 NA
BRANCH  29  32
ATOM     32  C   UNL     1       8.829   5.268  25.286  0.00  0.00    +0.260 C 
ATOM     33  O   UNL     1       8.276   5.143  26.374  0.00  0.00    -0.269 OA
ATOM     34  N   UNL     1       9.889   6.122  25.180  0.00  0.00    -0.324 N 
ATOM     35  H   UNL     1      10.140   6.649  26.005  0.00  0.00    +0.145 HD
ATOM     36  H   UNL     1      10.215   6.451  24.282  0.00  0.00    +0.145 HD
ENDBRANCH  29  32
BRANCH  30  37
ATOM     37  C   UNL     1       7.211   6.605  22.824  0.00  0.00    +0.040 C 
ATOM     38  C   UNL     1       6.044   7.089  23.663  0.00  0.00    +0.010 C 
ATOM     39  C   UNL     1       5.861   6.887  22.198  0.00  0.00    +0.010 C 
ENDBRANCH  30  37
BRANCH  27  41
ATOM     40  C   UNL     1       8.814   1.242  21.107  0.00  0.00    +0.012 C 
ATOM     41  C   UNL     1       7.610   1.770  21.872  0.00  0.00    +0.071 C 
ENDBRANCH  27  41
ENDBRANCH  26  28
ENDBRANCH   1  26
TORSDOF 9
ENDMDL
MODEL 8
REMARK VINA RESULT:      -7.1      2.765      3.746
REMARK  Name = 
REMARK  10 active torsions:
REMARK  status: ('A' for Active; 'I' for Inactive)
REMARK    1  A    between atoms: C_1  and  C_2
REMARK    2  A    between atoms: C_2  and  C_3
REMARK    3  A    between atoms: C_5  and  C_6
REMARK    4  A    between atoms: C_9  and  C_36
REMARK    5  A    between atoms: N_10  and  C_11
REMARK    6  A    between atoms: C_11  and  C_12
REMARK    7  A    between atoms: C_17  and  C_20
REMARK    8  A    between atoms: C_25  and  N_26
REMARK    9  A    between atoms: N_26  and  S_27
REMARK   10  A    between atoms: S_27  and  C_30
REMARK                            x       y       z     vdW  Elec       q    Type
REMARK                         _______ _______ _______ _____ _____    ______ ____
ROOT
ATOM      1  C   UNL     1       8.504  -2.828  24.180  0.00  0.00    -0.027 A 
ATOM      2  C   UNL     1       9.728  -2.194  23.890  0.00  0.00    +0.009 A 
ATOM      3  C   UNL     1       9.991  -0.874  24.300  0.00  0.00    +0.047 A 
ATOM      4  C   UNL     1       8.971  -0.209  24.983  0.00  0.00    +0.137 A 
ATOM      5  O   UNL     1       8.986   1.094  25.386  0.00  0.00    -0.454 OA
ATOM      6  C   UNL     1       7.749   1.389  25.928  0.00  0.00    +0.152 A 
ATOM      7  C   UNL     1       6.996   0.230  25.924  0.00  0.00    +0.071 A 
ATOM      8 BR   UNL     1       5.189  -0.019  26.380  0.00  0.00    -0.046 Br
ATOM      9  C   UNL     1       7.760  -0.797  25.311  0.00  0.00    +0.035 A 
ATOM     10  C   UNL     1       7.538  -2.138  24.937  0.00  0.00    +0.018 A 
ENDROOT
BRANCH   6  11
ATOM     11  C   UNL     1       7.515   2.814  26.215  0.00  0.00    +0.041 A 
ATOM     12  C   UNL     1       7.885   3.890  25.378  0.00  0.00    +0.059 A 
ATOM     13  C   UNL     1       7.695   5.217  25.796  0.00  0.00    +0.025 A 
ATOM     14  C   UNL     1       7.142   5.503  27.041  0.00  0.00    +0.002 A 
ATOM     15  C   UNL     1       6.760   4.461  27.875  0.00  0.00    +0.001 A 
ATOM     16  C   UNL     1       6.945   3.137  27.466  0.00  0.00    +0.013 A 
BRANCH  12  17
ATOM     17  N   UNL     1       8.412   3.735  24.057  0.00  0.00    -0.212 N 
ATOM     18  H   UNL     1       9.213   3.109  23.962  0.00  0.00    +0.174 HD
BRANCH  17  19
ATOM     19  S   UNL     1       7.307   3.440  22.792  0.00  0.00    +0.141 S 
ATOM     20  O   UNL     1       7.375   4.555  21.865  0.00  0.00    -0.147 OA
ATOM     21  O   UNL     1       6.063   3.180  23.499  0.00  0.00    -0.147 OA
BRANCH  19  22
ATOM     22  C   UNL     1       7.913   1.857  21.991  0.00  0.00    +0.538 C 
ATOM     23  F   UNL     1       7.225   0.762  22.425  0.00  0.00    -0.149 F 
ATOM     24  F   UNL     1       9.230   1.618  22.251  0.00  0.00    -0.149 F 
ATOM     25  F   UNL     1       7.787   1.879  20.631  0.00  0.00    -0.149 F 
ENDBRANCH  19  22
ENDBRANCH  17  19
ENDBRANCH  12  17
ENDBRANCH   6  11
BRANCH   1  26
ATOM     26  C   UNL     1       8.251  -4.266  23.789  0.00  0.00    +0.158 C 
BRANCH  26  28
ATOM     27  C   UNL     1       6.704  -5.432  25.541  0.00  0.00    +0.111 A 
ATOM     28  N   UNL     1       7.059  -4.975  24.282  0.00  0.00    -0.319 N 
ATOM     29  C   UNL     1       5.951  -5.202  23.443  0.00  0.00    +0.127 A 
ATOM     30  C   UNL     1       5.093  -5.960  24.213  0.00  0.00    +0.075 A 
ATOM     31  N   UNL     1       5.547  -6.066  25.491  0.00  0.00    -0.236 NA
BRANCH  29  32
ATOM     32  C   UNL     1       5.810  -4.709  22.095  0.00  0.00    +0.260 C 
ATOM     33  O   UNL     1       5.359  -3.610  21.790  0.00  0.00    -0.269 OA
ATOM     34  N   UNL     1       6.132  -5.589  21.101  0.00  0.00    -0.324 N 
ATOM     35  H   UNL     1       5.937  -5.301  20.152  0.00  0.00    +0.145 HD
ATOM     36  H   UNL     1       6.263  -6.573  21.288  0.00  0.00    +0.145 HD
ENDBRANCH  29  32
BRANCH  30  37
ATOM     37  C   UNL     1       3.786  -6.601  23.763  0.00  0.00    +0.040 C 
ATOM     38  C   UNL     1       2.497  -5.907  24.157  0.00  0.00    +0.010 C 
ATOM     39  C   UNL     1       2.860  -7.199  24.803  0.00  0.00    +0.010 C 
ENDBRANCH  30  37
BRANCH  27  41
ATOM     40  C   UNL     1       6.600  -5.756  28.026  0.00  0.00    +0.012 C 
ATOM     41  C   UNL     1       7.409  -5.248  26.842  0.00  0.00    +0.071 C 
ENDBRANCH  27  41
ENDBRANCH  26  28
ENDBRANCH   1  26
TORSDOF 9
ENDMDL
MODEL 9
REMARK VINA RESULT:      -7.1      3.323      8.910
REMARK  Name = 
REMARK  10 active torsions:
REMARK  status: ('A' for Active; 'I' for Inactive)
REMARK    1  A    between atoms: C_1  and  C_2
REMARK    2  A    between atoms: C_2  and  C_3
REMARK    3  A    between atoms: C_5  and  C_6
REMARK    4  A    between atoms: C_9  and  C_36
REMARK    5  A    between atoms: N_10  and  C_11
REMARK    6  A    between atoms: C_11  and  C_12
REMARK    7  A    between atoms: C_17  and  C_20
REMARK    8  A    between atoms: C_25  and  N_26
REMARK    9  A    between atoms: N_26  and  S_27
REMARK   10  A    between atoms: S_27  and  C_30
REMARK                            x       y       z     vdW  Elec       q    Type
REMARK                         _______ _______ _______ _____ _____    ______ ____
ROOT
ATOM      1  C   UNL     1       7.802  -1.021  23.940  0.00  0.00    -0.027 A 
ATOM      2  C   UNL     1       8.214  -1.918  22.935  0.00  0.00    +0.009 A 
ATOM      3  C   UNL     1       7.422  -3.019  22.558  0.00  0.00    +0.047 A 
ATOM      4  C   UNL     1       6.222  -3.199  23.247  0.00  0.00    +0.137 A 
ATOM      5  O   UNL     1       5.358  -4.245  23.101  0.00  0.00    -0.454 OA
ATOM      6  C   UNL     1       4.352  -4.102  24.038  0.00  0.00    +0.152 A 
ATOM      7  C   UNL     1       4.565  -2.915  24.713  0.00  0.00    +0.071 A 
ATOM      8 BR   UNL     1       3.654  -2.209  26.200  0.00  0.00    -0.046 Br
ATOM      9  C   UNL     1       5.764  -2.333  24.227  0.00  0.00    +0.035 A 
ATOM     10  C   UNL     1       6.548  -1.207  24.552  0.00  0.00    +0.018 A 
ENDROOT
BRANCH   6  11
ATOM     11  C   UNL     1       3.450  -5.258  24.171  0.00  0.00    +0.041 A 
ATOM     12  C   UNL     1       3.798  -6.510  24.727  0.00  0.00    +0.059 A 
ATOM     13  C   UNL     1       2.882  -7.575  24.716  0.00  0.00    +0.025 A 
ATOM     14  C   UNL     1       1.616  -7.424  24.158  0.00  0.00    +0.002 A 
ATOM     15  C   UNL     1       1.249  -6.199  23.616  0.00  0.00    +0.001 A 
ATOM     16  C   UNL     1       2.154  -5.135  23.623  0.00  0.00    +0.013 A 
BRANCH  12  17
ATOM     17  N   UNL     1       5.042  -6.780  25.379  0.00  0.00    -0.212 N 
ATOM     18  H   UNL     1       5.886  -6.567  24.845  0.00  0.00    +0.174 HD
BRANCH  17  19
ATOM     19  S   UNL     1       5.232  -6.236  26.983  0.00  0.00    +0.141 S 
ATOM     20  O   UNL     1       5.483  -7.392  27.825  0.00  0.00    -0.147 OA
ATOM     21  O   UNL     1       4.031  -5.445  27.204  0.00  0.00    -0.147 OA
BRANCH  19  22
ATOM     22  C   UNL     1       6.724  -5.102  26.927  0.00  0.00    +0.538 C 
ATOM     23  F   UNL     1       7.193  -4.926  25.659  0.00  0.00    -0.149 F 
ATOM     24  F   UNL     1       7.766  -5.584  27.664  0.00  0.00    -0.149 F 
ATOM     25  F   UNL     1       6.452  -3.856  27.416  0.00  0.00    -0.149 F 
ENDBRANCH  19  22
ENDBRANCH  17  19
ENDBRANCH  12  17
ENDBRANCH   6  11
BRANCH   1  26
ATOM     26  C   UNL     1       8.629   0.193  24.298  0.00  0.00    +0.158 C 
BRANCH  26  28
ATOM     27  C   UNL     1       7.433   2.370  25.104  0.00  0.00    +0.111 A 
ATOM     28  N   UNL     1       8.058   1.544  24.184  0.00  0.00    -0.319 N 
ATOM     29  C   UNL     1       8.199   2.294  22.999  0.00  0.00    +0.127 A 
ATOM     30  C   UNL     1       7.468   3.439  23.235  0.00  0.00    +0.075 A 
ATOM     31  N   UNL     1       7.035   3.487  24.524  0.00  0.00    -0.236 NA
BRANCH  29  32
ATOM     32  C   UNL     1       8.964   1.893  21.845  0.00  0.00    +0.260 C 
ATOM     33  O   UNL     1       8.583   1.107  20.984  0.00  0.00    -0.269 OA
ATOM     34  N   UNL     1      10.240   2.376  21.778  0.00  0.00    -0.324 N 
ATOM     35  H   UNL     1      10.827   2.021  21.036  0.00  0.00    +0.145 HD
ATOM     36  H   UNL     1      10.682   2.814  22.574  0.00  0.00    +0.145 HD
ENDBRANCH  29  32
BRANCH  30  37
ATOM     37  C   UNL     1       7.167   4.554  22.239  0.00  0.00    +0.040 C 
ATOM     38  C   UNL     1       7.856   5.887  22.457  0.00  0.00    +0.010 C 
ATOM     39  C   UNL     1       6.391   5.770  22.704  0.00  0.00    +0.010 C 
ENDBRANCH  30  37
BRANCH  27  41
ATOM     40  C   UNL     1       5.906   1.491  26.889  0.00  0.00    +0.012 C 
ATOM     41  C   UNL     1       7.230   2.165  26.567  0.00  0.00    +0.071 C 
ENDBRANCH  27  41
ENDBRANCH  26  28
ENDBRANCH   1  26
TORSDOF 9
ENDMDL
