MODEL 1
REMARK VINA RESULT:      -6.0      0.000      0.000
REMARK  Name = 
REMARK  7 active torsions:
REMARK  status: ('A' for Active; 'I' for Inactive)
REMARK    1  A    between atoms: O_1  and  C_2
REMARK    2  A    between atoms: C_4  and  C_16
REMARK    3  A    between atoms: C_9  and  O_10
REMARK    4  A    between atoms: O_10  and  C_11
REMARK    5  A    between atoms: C_11  and  C_13
REMARK    6  A    between atoms: C_13  and  O_14
REMARK    7  A    between atoms: C_16  and  O_17
REMARK                            x       y       z     vdW  Elec       q    Type
REMARK                         _______ _______ _______ _____ _____    ______ ____
ROOT
ATOM      1  C   UNL     1       9.136  -4.392  25.203  0.00  0.00    +0.198 C 
ATOM      2  C   UNL     1       8.970  -3.412  24.054  0.00  0.00    +0.135 C 
ATOM      3  C   UNL     1       7.900  -3.450  23.240  0.00  0.00    +0.044 C 
ATOM      4  C   UNL     1       6.824  -4.392  23.423  0.00  0.00    -0.000 C 
ATOM      5  C   UNL     1       6.806  -5.248  24.451  0.00  0.00    -0.009 C 
ATOM      6  C   UNL     1       7.904  -5.300  25.492  0.00  0.00    +0.156 C 
ENDROOT
BRANCH   1   7
ATOM      7  O   UNL     1      10.269  -5.219  24.885  0.00  0.00    -0.383 OA
ATOM      8  H   UNL     1      11.063  -4.666  25.003  0.00  0.00    +0.210 HD
ENDBRANCH   1   7
BRANCH   6   9
ATOM      9  C   UNL     1       7.447  -5.008  26.919  0.00  0.00    +0.315 C 
ATOM     10  O   UNL     1       6.919  -3.946  27.226  0.00  0.00    -0.250 OA
BRANCH   9  11
ATOM     11  O   UNL     1       7.633  -5.982  27.835  0.00  0.00    -0.480 OA
ATOM     12  H   UNL     1       8.555  -6.277  27.959  0.00  0.00    +0.295 HD
ENDBRANCH   9  11
ENDBRANCH   6   9
BRANCH   2  13
ATOM     13  O   UNL     1      10.060  -2.562  23.883  0.00  0.00    -0.451 OA
BRANCH  13  14
ATOM     14  C   UNL     1       9.955  -1.180  23.793  0.00  0.00    +0.204 C 
ATOM     15  C   UNL     1       9.820  -0.342  24.835  0.00  0.00    +0.066 C 
BRANCH  14  16
ATOM     16  C   UNL     1      10.127  -0.573  22.435  0.00  0.00    +0.372 C 
ATOM     17  O   UNL     1      10.142   0.624  22.199  0.00  0.00    -0.242 OA
BRANCH  16  18
ATOM     18  O   UNL     1      10.273  -1.518  21.478  0.00  0.00    -0.475 OA
ATOM     19  H   UNL     1      11.159  -1.482  21.062  0.00  0.00    +0.296 HD
ENDBRANCH  16  18
ENDBRANCH  14  16
ENDBRANCH  13  14
ENDBRANCH   2  13
TORSDOF 7
ENDMDL
MODEL 2
REMARK VINA RESULT:      -5.9      1.660      5.839
REMARK  Name = 
REMARK  7 active torsions:
REMARK  status: ('A' for Active; 'I' for Inactive)
REMARK    1  A    between atoms: O_1  and  C_2
REMARK    2  A    between atoms: C_4  and  C_16
REMARK    3  A    between atoms: C_9  and  O_10
REMARK    4  A    between atoms: O_10  and  C_11
REMARK    5  A    between atoms: C_11  and  C_13
REMARK    6  A    between atoms: C_13  and  O_14
REMARK    7  A    between atoms: C_16  and  O_17
REMARK                            x       y       z     vdW  Elec       q    Type
REMARK                         _______ _______ _______ _____ _____    ______ ____
ROOT
ATOM      1  C   UNL     1       9.628  -1.381  23.073  0.00  0.00    +0.198 C 
ATOM      2  C   UNL     1       8.861  -1.629  24.361  0.00  0.00    +0.135 C 
ATOM      3  C   UNL     1       8.985  -0.818  25.427  0.00  0.00    +0.044 C 
ATOM      4  C   UNL     1       9.819   0.358  25.408  0.00  0.00    -0.000 C 
ATOM      5  C   UNL     1      10.476   0.737  24.306  0.00  0.00    -0.009 C 
ATOM      6  C   UNL     1      10.400  -0.031  23.004  0.00  0.00    +0.156 C 
ENDROOT
BRANCH   1   7
ATOM      7  O   UNL     1      10.558  -2.467  22.926  0.00  0.00    -0.383 OA
ATOM      8  H   UNL     1      10.034  -3.261  22.711  0.00  0.00    +0.210 HD
ENDBRANCH   1   7
BRANCH   6   9
ATOM      9  C   UNL     1       9.834   0.759  21.826  0.00  0.00    +0.315 C 
ATOM     10  O   UNL     1       9.059   0.256  21.021  0.00  0.00    -0.250 OA
BRANCH   9  11
ATOM     11  O   UNL     1      10.210   2.051  21.715  0.00  0.00    -0.480 OA
ATOM     12  H   UNL     1      10.173   2.575  22.537  0.00  0.00    +0.295 HD
ENDBRANCH   9  11
ENDBRANCH   6   9
BRANCH   2  13
ATOM     13  O   UNL     1       8.115  -2.806  24.349  0.00  0.00    -0.451 OA
BRANCH  13  14
ATOM     14  C   UNL     1       8.072  -3.704  25.407  0.00  0.00    +0.204 C 
ATOM     15  C   UNL     1       6.986  -3.975  26.151  0.00  0.00    +0.066 C 
BRANCH  14  16
ATOM     16  C   UNL     1       9.304  -4.517  25.658  0.00  0.00    +0.372 C 
ATOM     17  O   UNL     1      10.107  -4.855  24.803  0.00  0.00    -0.242 OA
BRANCH  16  18
ATOM     18  O   UNL     1       9.435  -4.840  26.965  0.00  0.00    -0.475 OA
ATOM     19  H   UNL     1      10.372  -4.980  27.214  0.00  0.00    +0.296 HD
ENDBRANCH  16  18
ENDBRANCH  14  16
ENDBRANCH  13  14
ENDBRANCH   2  13
TORSDOF 7
ENDMDL
MODEL 3
REMARK VINA RESULT:      -5.9      1.807      2.889
REMARK  Name = 
REMARK  7 active torsions:
REMARK  status: ('A' for Active; 'I' for Inactive)
REMARK    1  A    between atoms: O_1  and  C_2
REMARK    2  A    between atoms: C_4  and  C_16
REMARK    3  A    between atoms: C_9  and  O_10
REMARK    4  A    between atoms: O_10  and  C_11
REMARK    5  A    between atoms: C_11  and  C_13
REMARK    6  A    between atoms: C_13  and  O_14
REMARK    7  A    between atoms: C_16  and  O_17
REMARK                            x       y       z     vdW  Elec       q    Type
REMARK                         _______ _______ _______ _____ _____    ______ ____
ROOT
ATOM      1  C   UNL     1       9.337  -2.650  24.121  0.00  0.00    +0.198 C 
ATOM      2  C   UNL     1       9.667  -1.248  24.607  0.00  0.00    +0.135 C 
ATOM      3  C   UNL     1       9.092  -0.727  25.707  0.00  0.00    +0.044 C 
ATOM      4  C   UNL     1       8.160  -1.471  26.516  0.00  0.00    -0.000 C 
ATOM      5  C   UNL     1       7.855  -2.746  26.247  0.00  0.00    -0.009 C 
ATOM      6  C   UNL     1       8.455  -3.501  25.080  0.00  0.00    +0.156 C 
ENDROOT
BRANCH   1   7
ATOM      7  O   UNL     1       8.661  -2.505  22.860  0.00  0.00    -0.383 OA
ATOM      8  H   UNL     1       7.710  -2.625  23.035  0.00  0.00    +0.210 HD
ENDBRANCH   1   7
BRANCH   6   9
ATOM      9  C   UNL     1       9.264  -4.738  25.466  0.00  0.00    +0.315 C 
ATOM     10  O   UNL     1       9.559  -5.601  24.647  0.00  0.00    -0.250 OA
BRANCH   9  11
ATOM     11  O   UNL     1       9.661  -4.835  26.753  0.00  0.00    -0.480 OA
ATOM     12  H   UNL     1      10.407  -4.262  27.011  0.00  0.00    +0.295 HD
ENDBRANCH   9  11
ENDBRANCH   6   9
BRANCH   2  13
ATOM     13  O   UNL     1      10.526  -0.551  23.762  0.00  0.00    -0.451 OA
BRANCH  13  14
ATOM     14  C   UNL     1      10.254   0.713  23.254  0.00  0.00    +0.204 C 
ATOM     15  C   UNL     1      10.523   1.873  23.876  0.00  0.00    +0.066 C 
BRANCH  14  16
ATOM     16  C   UNL     1       9.729   0.783  21.854  0.00  0.00    +0.372 C 
ATOM     17  O   UNL     1       9.363  -0.176  21.193  0.00  0.00    -0.242 OA
BRANCH  16  18
ATOM     18  O   UNL     1       9.699   2.054  21.392  0.00  0.00    -0.475 OA
ATOM     19  H   UNL     1       8.823   2.470  21.526  0.00  0.00    +0.296 HD
ENDBRANCH  16  18
ENDBRANCH  14  16
ENDBRANCH  13  14
ENDBRANCH   2  13
TORSDOF 7
ENDMDL
MODEL 4
REMARK VINA RESULT:      -5.8      1.629      2.621
REMARK  Name = 
REMARK  7 active torsions:
REMARK  status: ('A' for Active; 'I' for Inactive)
REMARK    1  A    between atoms: O_1  and  C_2
REMARK    2  A    between atoms: C_4  and  C_16
REMARK    3  A    between atoms: C_9  and  O_10
REMARK    4  A    between atoms: O_10  and  C_11
REMARK    5  A    between atoms: C_11  and  C_13
REMARK    6  A    between atoms: C_13  and  O_14
REMARK    7  A    between atoms: C_16  and  O_17
REMARK                            x       y       z     vdW  Elec       q    Type
REMARK                         _______ _______ _______ _____ _____    ______ ____
ROOT
ATOM      1  C   UNL     1       9.801  -2.496  24.118  0.00  0.00    +0.198 C 
ATOM      2  C   UNL     1       9.170  -1.136  24.367  0.00  0.00    +0.135 C 
ATOM      3  C   UNL     1       7.844  -0.993  24.542  0.00  0.00    +0.044 C 
ATOM      4  C   UNL     1       6.940  -2.116  24.545  0.00  0.00    -0.000 C 
ATOM      5  C   UNL     1       7.381  -3.374  24.426  0.00  0.00    -0.009 C 
ATOM      6  C   UNL     1       8.848  -3.716  24.278  0.00  0.00    +0.156 C 
ENDROOT
BRANCH   1   7
ATOM      7  O   UNL     1      10.322  -2.474  22.778  0.00  0.00    -0.383 OA
ATOM      8  H   UNL     1      11.102  -1.889  22.788  0.00  0.00    +0.210 HD
ENDBRANCH   1   7
BRANCH   6   9
ATOM      9  C   UNL     1       9.416  -4.597  25.389  0.00  0.00    +0.315 C 
ATOM     10  O   UNL     1       9.086  -4.455  26.561  0.00  0.00    -0.250 OA
BRANCH   9  11
ATOM     11  O   UNL     1      10.289  -5.559  25.024  0.00  0.00    -0.480 OA
ATOM     12  H   UNL     1      11.233  -5.323  25.091  0.00  0.00    +0.295 HD
ENDBRANCH   9  11
ENDBRANCH   6   9
BRANCH   2  13
ATOM     13  O   UNL     1      10.074  -0.080  24.299  0.00  0.00    -0.451 OA
BRANCH  13  14
ATOM     14  C   UNL     1       9.821   1.113  23.633  0.00  0.00    +0.204 C 
ATOM     15  C   UNL     1       9.586   2.297  24.224  0.00  0.00    +0.066 C 
BRANCH  14  16
ATOM     16  C   UNL     1       9.937   1.095  22.140  0.00  0.00    +0.372 C 
ATOM     17  O   UNL     1       9.746   0.118  21.434  0.00  0.00    -0.242 OA
BRANCH  16  18
ATOM     18  O   UNL     1      10.279   2.307  21.648  0.00  0.00    -0.475 OA
ATOM     19  H   UNL     1      10.548   2.257  20.708  0.00  0.00    +0.296 HD
ENDBRANCH  16  18
ENDBRANCH  14  16
ENDBRANCH  13  14
ENDBRANCH   2  13
TORSDOF 7
ENDMDL
MODEL 5
REMARK VINA RESULT:      -5.6      2.656      3.672
REMARK  Name = 
REMARK  7 active torsions:
REMARK  status: ('A' for Active; 'I' for Inactive)
REMARK    1  A    between atoms: O_1  and  C_2
REMARK    2  A    between atoms: C_4  and  C_16
REMARK    3  A    between atoms: C_9  and  O_10
REMARK    4  A    between atoms: O_10  and  C_11
REMARK    5  A    between atoms: C_11  and  C_13
REMARK    6  A    between atoms: C_13  and  O_14
REMARK    7  A    between atoms: C_16  and  O_17
REMARK                            x       y       z     vdW  Elec       q    Type
REMARK                         _______ _______ _______ _____ _____    ______ ____
ROOT
ATOM      1  C   UNL     1       7.865  -2.320  22.430  0.00  0.00    +0.198 C 
ATOM      2  C   UNL     1       9.291  -2.070  22.892  0.00  0.00    +0.135 C 
ATOM      3  C   UNL     1       9.833  -2.752  23.918  0.00  0.00    +0.044 C 
ATOM      4  C   UNL     1       9.116  -3.787  24.620  0.00  0.00    -0.000 C 
ATOM      5  C   UNL     1       7.886  -4.165  24.253  0.00  0.00    -0.009 C 
ATOM      6  C   UNL     1       7.154  -3.540  23.085  0.00  0.00    +0.156 C 
ENDROOT
BRANCH   1   7
ATOM      7  O   UNL     1       7.118  -1.126  22.719  0.00  0.00    -0.383 OA
ATOM      8  H   UNL     1       7.120  -1.020  23.689  0.00  0.00    +0.210 HD
ENDBRANCH   1   7
BRANCH   6   9
ATOM      9  C   UNL     1       6.789  -4.512  21.965  0.00  0.00    +0.315 C 
ATOM     10  O   UNL     1       7.366  -5.584  21.824  0.00  0.00    -0.250 OA
BRANCH   9  11
ATOM     11  O   UNL     1       5.785  -4.149  21.139  0.00  0.00    -0.480 OA
ATOM     12  H   UNL     1       5.752  -3.203  20.903  0.00  0.00    +0.295 HD
ENDBRANCH   9  11
ENDBRANCH   6   9
BRANCH   2  13
ATOM     13  O   UNL     1       9.920  -1.025  22.221  0.00  0.00    -0.451 OA
BRANCH  13  14
ATOM     14  C   UNL     1      10.010   0.269  22.718  0.00  0.00    +0.204 C 
ATOM     15  C   UNL     1      10.667   0.628  23.834  0.00  0.00    +0.066 C 
BRANCH  14  16
ATOM     16  C   UNL     1       9.427   1.362  21.876  0.00  0.00    +0.372 C 
ATOM     17  O   UNL     1       8.275   1.400  21.476  0.00  0.00    -0.242 OA
BRANCH  16  18
ATOM     18  O   UNL     1      10.336   2.327  21.607  0.00  0.00    -0.475 OA
ATOM     19  H   UNL     1      10.329   3.034  22.285  0.00  0.00    +0.296 HD
ENDBRANCH  16  18
ENDBRANCH  14  16
ENDBRANCH  13  14
ENDBRANCH   2  13
TORSDOF 7
ENDMDL
MODEL 6
REMARK VINA RESULT:      -5.6      2.483      5.895
REMARK  Name = 
REMARK  7 active torsions:
REMARK  status: ('A' for Active; 'I' for Inactive)
REMARK    1  A    between atoms: O_1  and  C_2
REMARK    2  A    between atoms: C_4  and  C_16
REMARK    3  A    between atoms: C_9  and  O_10
REMARK    4  A    between atoms: O_10  and  C_11
REMARK    5  A    between atoms: C_11  and  C_13
REMARK    6  A    between atoms: C_13  and  O_14
REMARK    7  A    between atoms: C_16  and  O_17
REMARK                            x       y       z     vdW  Elec       q    Type
REMARK                         _______ _______ _______ _____ _____    ______ ____
ROOT
ATOM      1  C   UNL     1       9.603  -0.580  22.289  0.00  0.00    +0.198 C 
ATOM      2  C   UNL     1       8.547  -1.411  22.999  0.00  0.00    +0.135 C 
ATOM      3  C   UNL     1       8.437  -1.420  24.340  0.00  0.00    +0.044 C 
ATOM      4  C   UNL     1       9.282  -0.618  25.189  0.00  0.00    -0.000 C 
ATOM      5  C   UNL     1      10.191   0.224  24.683  0.00  0.00    -0.009 C 
ATOM      6  C   UNL     1      10.405   0.399  23.195  0.00  0.00    +0.156 C 
ENDROOT
BRANCH   1   7
ATOM      7  O   UNL     1      10.513  -1.505  21.670  0.00  0.00    -0.383 OA
ATOM      8  H   UNL     1      10.009  -2.319  21.489  0.00  0.00    +0.210 HD
ENDBRANCH   1   7
BRANCH   6   9
ATOM      9  C   UNL     1      10.155   1.813  22.674  0.00  0.00    +0.315 C 
ATOM     10  O   UNL     1      10.309   2.801  23.382  0.00  0.00    -0.250 OA
BRANCH   9  11
ATOM     11  O   UNL     1       9.772   1.933  21.385  0.00  0.00    -0.480 OA
ATOM     12  H   UNL     1       8.810   1.901  21.224  0.00  0.00    +0.295 HD
ENDBRANCH   9  11
ENDBRANCH   6   9
BRANCH   2  13
ATOM     13  O   UNL     1       7.796  -2.209  22.141  0.00  0.00    -0.451 OA
BRANCH  13  14
ATOM     14  C   UNL     1       6.958  -3.230  22.571  0.00  0.00    +0.204 C 
ATOM     15  C   UNL     1       5.632  -3.118  22.762  0.00  0.00    +0.066 C 
BRANCH  14  16
ATOM     16  C   UNL     1       7.566  -4.591  22.718  0.00  0.00    +0.372 C 
ATOM     17  O   UNL     1       8.314  -4.930  23.620  0.00  0.00    -0.242 OA
BRANCH  16  18
ATOM     18  O   UNL     1       7.182  -5.422  21.723  0.00  0.00    -0.475 OA
ATOM     19  H   UNL     1       6.545  -6.097  22.037  0.00  0.00    +0.296 HD
ENDBRANCH  16  18
ENDBRANCH  14  16
ENDBRANCH  13  14
ENDBRANCH   2  13
TORSDOF 7
ENDMDL
MODEL 7
REMARK VINA RESULT:      -5.4      1.597      5.634
REMARK  Name = 
REMARK  7 active torsions:
REMARK  status: ('A' for Active; 'I' for Inactive)
REMARK    1  A    between atoms: O_1  and  C_2
REMARK    2  A    between atoms: C_4  and  C_16
REMARK    3  A    between atoms: C_9  and  O_10
REMARK    4  A    between atoms: O_10  and  C_11
REMARK    5  A    between atoms: C_11  and  C_13
REMARK    6  A    between atoms: C_13  and  O_14
REMARK    7  A    between atoms: C_16  and  O_17
REMARK                            x       y       z     vdW  Elec       q    Type
REMARK                         _______ _______ _______ _____ _____    ______ ____
ROOT
ATOM      1  C   UNL     1       9.264  -1.314  22.706  0.00  0.00    +0.198 C 
ATOM      2  C   UNL     1       9.355  -2.132  23.983  0.00  0.00    +0.135 C 
ATOM      3  C   UNL     1       9.538  -1.553  25.184  0.00  0.00    +0.044 C 
ATOM      4  C   UNL     1       9.621  -0.123  25.345  0.00  0.00    -0.000 C 
ATOM      5  C   UNL     1       9.467   0.712  24.312  0.00  0.00    -0.009 C 
ATOM      6  C   UNL     1       9.197   0.229  22.903  0.00  0.00    +0.156 C 
ENDROOT
BRANCH   1   7
ATOM      7  O   UNL     1      10.423  -1.641  21.919  0.00  0.00    -0.383 OA
ATOM      8  H   UNL     1      11.200  -1.500  22.490  0.00  0.00    +0.210 HD
ENDBRANCH   1   7
BRANCH   6   9
ATOM      9  C   UNL     1       7.878   0.708  22.302  0.00  0.00    +0.315 C 
ATOM     10  O   UNL     1       7.836   1.583  21.444  0.00  0.00    -0.250 OA
BRANCH   9  11
ATOM     11  O   UNL     1       6.750   0.113  22.744  0.00  0.00    -0.480 OA
ATOM     12  H   UNL     1       6.258  -0.407  22.081  0.00  0.00    +0.295 HD
ENDBRANCH   9  11
ENDBRANCH   6   9
BRANCH   2  13
ATOM     13  O   UNL     1       9.327  -3.508  23.768  0.00  0.00    -0.451 OA
BRANCH  13  14
ATOM     14  C   UNL     1       8.389  -4.360  24.337  0.00  0.00    +0.204 C 
ATOM     15  C   UNL     1       7.114  -4.491  23.933  0.00  0.00    +0.066 C 
BRANCH  14  16
ATOM     16  C   UNL     1       8.875  -5.289  25.405  0.00  0.00    +0.372 C 
ATOM     17  O   UNL     1       8.181  -5.770  26.286  0.00  0.00    -0.242 OA
BRANCH  16  18
ATOM     18  O   UNL     1      10.197  -5.548  25.282  0.00  0.00    -0.475 OA
ATOM     19  H   UNL     1      10.390  -6.505  25.357  0.00  0.00    +0.296 HD
ENDBRANCH  16  18
ENDBRANCH  14  16
ENDBRANCH  13  14
ENDBRANCH   2  13
TORSDOF 7
ENDMDL
MODEL 8
REMARK VINA RESULT:      -5.4      2.182      5.901
REMARK  Name = 
REMARK  7 active torsions:
REMARK  status: ('A' for Active; 'I' for Inactive)
REMARK    1  A    between atoms: O_1  and  C_2
REMARK    2  A    between atoms: C_4  and  C_16
REMARK    3  A    between atoms: C_9  and  O_10
REMARK    4  A    between atoms: O_10  and  C_11
REMARK    5  A    between atoms: C_11  and  C_13
REMARK    6  A    between atoms: C_13  and  O_14
REMARK    7  A    between atoms: C_16  and  O_17
REMARK                            x       y       z     vdW  Elec       q    Type
REMARK                         _______ _______ _______ _____ _____    ______ ____
ROOT
ATOM      1  C   UNL     1       9.762   0.285  24.333  0.00  0.00    +0.198 C 
ATOM      2  C   UNL     1       9.086  -1.008  23.909  0.00  0.00    +0.135 C 
ATOM      3  C   UNL     1       7.916  -1.011  23.245  0.00  0.00    +0.044 C 
ATOM      4  C   UNL     1       7.245   0.205  22.859  0.00  0.00    -0.000 C 
ATOM      5  C   UNL     1       7.780   1.409  23.094  0.00  0.00    -0.009 C 
ATOM      6  C   UNL     1       9.118   1.589  23.780  0.00  0.00    +0.156 C 
ENDROOT
BRANCH   1   7
ATOM      7  O   UNL     1       9.735   0.316  25.771  0.00  0.00    -0.383 OA
ATOM      8  H   UNL     1       8.895   0.741  26.028  0.00  0.00    +0.210 HD
ENDBRANCH   1   7
BRANCH   6   9
ATOM      9  C   UNL     1      10.177   2.301  22.940  0.00  0.00    +0.315 C 
ATOM     10  O   UNL     1      11.045   3.000  23.450  0.00  0.00    -0.250 OA
BRANCH   9  11
ATOM     11  O   UNL     1      10.131   2.112  21.605  0.00  0.00    -0.480 OA
ATOM     12  H   UNL     1      10.745   1.442  21.250  0.00  0.00    +0.295 HD
ENDBRANCH   9  11
ENDBRANCH   6   9
BRANCH   2  13
ATOM     13  O   UNL     1       9.742  -2.153  24.354  0.00  0.00    -0.451 OA
BRANCH  13  14
ATOM     14  C   UNL     1       9.136  -3.145  25.115  0.00  0.00    +0.204 C 
ATOM     15  C   UNL     1       8.387  -2.934  26.210  0.00  0.00    +0.066 C 
BRANCH  14  16
ATOM     16  C   UNL     1       9.230  -4.548  24.599  0.00  0.00    +0.372 C 
ATOM     17  O   UNL     1       8.454  -5.057  23.806  0.00  0.00    -0.242 OA
BRANCH  16  18
ATOM     18  O   UNL     1      10.295  -5.202  25.115  0.00  0.00    -0.475 OA
ATOM     19  H   UNL     1      10.516  -6.004  24.598  0.00  0.00    +0.296 HD
ENDBRANCH  16  18
ENDBRANCH  14  16
ENDBRANCH  13  14
ENDBRANCH   2  13
TORSDOF 7
ENDMDL
MODEL 9
REMARK VINA RESULT:      -5.2      2.677      4.990
REMARK  Name = 
REMARK  7 active torsions:
REMARK  status: ('A' for Active; 'I' for Inactive)
REMARK    1  A    between atoms: O_1  and  C_2
REMARK    2  A    between atoms: C_4  and  C_16
REMARK    3  A    between atoms: C_9  and  O_10
REMARK    4  A    between atoms: O_10  and  C_11
REMARK    5  A    between atoms: C_11  and  C_13
REMARK    6  A    between atoms: C_13  and  O_14
REMARK    7  A    between atoms: C_16  and  O_17
REMARK                            x       y       z     vdW  Elec       q    Type
REMARK                         _______ _______ _______ _____ _____    ______ ____
ROOT
ATOM      1  C   UNL     1       7.338  -3.750  24.408  0.00  0.00    +0.198 C 
ATOM      2  C   UNL     1       7.216  -3.343  22.949  0.00  0.00    +0.135 C 
ATOM      3  C   UNL     1       8.116  -2.531  22.364  0.00  0.00    +0.044 C 
ATOM      4  C   UNL     1       9.269  -2.026  23.064  0.00  0.00    -0.000 C 
ATOM      5  C   UNL     1       9.539  -2.382  24.326  0.00  0.00    -0.009 C 
ATOM      6  C   UNL     1       8.661  -3.332  25.112  0.00  0.00    +0.156 C 
ENDROOT
BRANCH   1   7
ATOM      7  O   UNL     1       6.225  -3.156  25.100  0.00  0.00    -0.383 OA
ATOM      8  H   UNL     1       6.093  -3.672  25.916  0.00  0.00    +0.210 HD
ENDBRANCH   1   7
BRANCH   6   9
ATOM      9  C   UNL     1       9.356  -4.611  25.575  0.00  0.00    +0.315 C 
ATOM     10  O   UNL     1      10.317  -5.079  24.975  0.00  0.00    -0.250 OA
BRANCH   9  11
ATOM     11  O   UNL     1       8.878  -5.200  26.691  0.00  0.00    -0.480 OA
ATOM     12  H   UNL     1       9.025  -4.714  27.523  0.00  0.00    +0.295 HD
ENDBRANCH   9  11
ENDBRANCH   6   9
BRANCH   2  13
ATOM     13  O   UNL     1       6.058  -3.809  22.334  0.00  0.00    -0.451 OA
BRANCH  13  14
ATOM     14  C   UNL     1       5.775  -5.154  22.136  0.00  0.00    +0.204 C 
ATOM     15  C   UNL     1       6.555  -6.021  21.468  0.00  0.00    +0.066 C 
BRANCH  14  16
ATOM     16  C   UNL     1       4.564  -5.702  22.824  0.00  0.00    +0.372 C 
ATOM     17  O   UNL     1       3.466  -5.170  22.840  0.00  0.00    -0.242 OA
BRANCH  16  18
ATOM     18  O   UNL     1       4.823  -6.880  23.436  0.00  0.00    -0.475 OA
ATOM     19  H   UNL     1       4.297  -7.613  23.054  0.00  0.00    +0.296 HD
ENDBRANCH  16  18
ENDBRANCH  14  16
ENDBRANCH  13  14
ENDBRANCH   2  13
TORSDOF 7
ENDMDL
