MODEL 1
REMARK VINA RESULT:      -6.7      0.000      0.000
REMARK  Name = 
REMARK  26 active torsions:
REMARK  status: ('A' for Active; 'I' for Inactive)
REMARK    1  A    between atoms: C_1  and  O_2
REMARK    2  A    between atoms: O_2  and  C_3
REMARK    3  A    between atoms: C_6  and  C_7
REMARK    4  A    between atoms: C_7  and  C_8
REMARK    5  A    between atoms: C_8  and  N_10
REMARK    6  A    between atoms: C_8  and  C_18
REMARK    7  A    between atoms: C_11  and  C_13
REMARK    8  A    between atoms: C_13  and  C_14
REMARK    9  A    between atoms: C_14  and  C_15
REMARK   10  A    between atoms: C_14  and  C_16
REMARK   11  A    between atoms: C_14  and  N_17
REMARK   12  A    between atoms: N_20  and  C_21
REMARK   13  A    between atoms: C_21  and  C_23
REMARK   14  A    between atoms: C_21  and  C_29
REMARK   15  A    between atoms: C_23  and  C_24
REMARK   16  A    between atoms: N_31  and  C_32
REMARK   17  A    between atoms: C_32  and  C_34
REMARK   18  A    between atoms: C_32  and  C_41
REMARK   19  A    between atoms: C_34  and  C_35
REMARK   20  A    between atoms: C_41  and  O_43
REMARK   21  A    between atoms: C_41  and  C_44
REMARK   22  A    between atoms: C_44  and  O_46
REMARK   23  A    between atoms: C_44  and  C_47
REMARK   24  A    between atoms: C_47  and  C_48
REMARK   25  A    between atoms: C_48  and  C_49
REMARK   26  A    between atoms: C_48  and  C_50
REMARK                            x       y       z     vdW  Elec       q    Type
REMARK                         _______ _______ _______ _____ _____    ______ ____
ROOT
ATOM      1  C   UNL     1       8.211  -1.980  22.763  0.00  0.00    +0.165 C 
ENDROOT
BRANCH   1   3
ATOM      2  C   UNL     1       8.987  -3.189  24.871  0.00  0.00    +0.234 C 
ATOM      3  N   UNL     1       8.106  -2.364  24.197  0.00  0.00    -0.302 N 
ATOM      4  H   UNL     1       7.401  -1.862  24.738  0.00  0.00    +0.150 HD
ATOM      5  O   UNL     1       9.902  -3.784  24.306  0.00  0.00    -0.274 OA
BRANCH   2   6
ATOM      6  C   UNL     1       8.659  -3.397  26.377  0.00  0.00    +0.163 C 
BRANCH   6   7
ATOM      7  N   UNL     1       7.429  -2.679  26.734  0.00  0.00    -0.304 N 
ATOM      8  H   UNL     1       6.540  -3.138  26.571  0.00  0.00    +0.149 HD
ATOM      9  C   UNL     1       7.453  -1.331  26.983  0.00  0.00    +0.215 C 
ATOM     10  O   UNL     1       8.470  -0.664  26.807  0.00  0.00    -0.276 OA
BRANCH   9  11
ATOM     11  C   UNL     1       6.145  -0.708  27.469  0.00  0.00    +0.117 C 
BRANCH  11  12
ATOM     12  C   UNL     1       5.125  -0.526  26.322  0.00  0.00    +0.019 C 
ATOM     13  C   UNL     1       4.518   0.883  26.314  0.00  0.00    +0.027 C 
ATOM     14  C   UNL     1       3.974  -1.519  26.525  0.00  0.00    +0.027 C 
BRANCH  12  15
ATOM     15  N   UNL     1       5.759  -0.707  25.004  0.00  0.00    -0.325 NA
ATOM     16  H   UNL     1       5.775   0.188  24.510  0.00  0.00    +0.119 HD
ATOM     17  H   UNL     1       6.757  -0.914  25.127  0.00  0.00    +0.119 HD
ENDBRANCH  12  15
ENDBRANCH  11  12
ENDBRANCH   9  11
ENDBRANCH   6   7
BRANCH   6  18
ATOM     18  C   UNL     1       8.534  -4.897  26.708  0.00  0.00    +0.067 C 
BRANCH  18  22
ATOM     19  C   UNL     1       4.415  -6.253  27.048  0.00  0.00    +0.120 A 
ATOM     20  C   UNL     1       4.984  -6.016  25.796  0.00  0.00    +0.046 A 
ATOM     21  C   UNL     1       6.311  -5.592  25.679  0.00  0.00    +0.007 A 
ATOM     22  C   UNL     1       7.107  -5.407  26.817  0.00  0.00    -0.045 A 
ATOM     23  C   UNL     1       6.530  -5.650  28.073  0.00  0.00    +0.007 A 
ATOM     24  C   UNL     1       5.197  -6.072  28.188  0.00  0.00    +0.046 A 
BRANCH  19  26
ATOM     25  C   UNL     1       2.205  -5.951  27.879  0.00  0.00    +0.277 C 
ATOM     26  O   UNL     1       3.103  -6.638  27.018  0.00  0.00    -0.495 OA
ENDBRANCH  19  26
ENDBRANCH  18  22
ENDBRANCH   6  18
ENDBRANCH   2   6
ENDBRANCH   1   3
BRANCH   1  27
ATOM     27  C   UNL     1       8.454  -0.433  22.719  0.00  0.00    +0.234 C 
ATOM     28  N   UNL     1       8.391   0.258  23.919  0.00  0.00    -0.308 N 
ATOM     29  H   UNL     1       7.902  -0.153  24.704  0.00  0.00    +0.149 HD
ATOM     30  O   UNL     1       8.765   0.113  21.657  0.00  0.00    -0.274 OA
BRANCH  28  31
ATOM     31  C   UNL     1       8.803   1.682  24.036  0.00  0.00    +0.104 C 
BRANCH  31  32
ATOM     32  C   UNL     1      10.359   1.825  24.155  0.00  0.00    +0.163 C 
BRANCH  32  33
ATOM     33  O   UNL     1      10.979   0.539  24.005  0.00  0.00    -0.387 OA
ATOM     34  H   UNL     1      10.782   0.006  24.795  0.00  0.00    +0.210 HD
ENDBRANCH  32  33
BRANCH  32  35
ATOM     35  C   UNL     1      10.983   2.749  23.079  0.00  0.00    +0.145 C 
BRANCH  35  36
ATOM     36  O   UNL     1      10.381   2.546  21.809  0.00  0.00    -0.389 OA
ATOM     37  H   UNL     1       9.454   2.834  21.873  0.00  0.00    +0.210 HD
ENDBRANCH  35  36
BRANCH  35  38
ATOM     38  C   UNL     1      10.859   4.253  23.396  0.00  0.00    +0.037 C 
BRANCH  38  39
ATOM     39  C   UNL     1      12.230   4.955  23.555  0.00  0.00    -0.015 C 
ATOM     40  C   UNL     1      12.128   6.234  24.389  0.00  0.00    +0.007 C 
ATOM     41  C   UNL     1      12.843   5.276  22.190  0.00  0.00    +0.007 C 
ENDBRANCH  38  39
ENDBRANCH  35  38
ENDBRANCH  32  35
ENDBRANCH  31  32
BRANCH  31  42
ATOM     42  C   UNL     1       7.919   2.416  25.076  0.00  0.00    +0.028 C 
BRANCH  42  43
ATOM     43  C   UNL     1       6.778   3.339  24.574  0.00  0.00    -0.009 C 
ATOM     44  C   UNL     1       6.461   3.008  23.098  0.00  0.00    +0.003 C 
ATOM     45  C   UNL     1       7.282   3.808  22.093  0.00  0.00    +0.000 C 
ATOM     46  C   UNL     1       7.045   5.295  22.300  0.00  0.00    +0.000 C 
ATOM     47  C   UNL     1       7.532   5.700  23.677  0.00  0.00    +0.000 C 
ATOM     48  C   UNL     1       6.902   4.864  24.792  0.00  0.00    +0.003 C 
ENDBRANCH  42  43
ENDBRANCH  31  42
ENDBRANCH  28  31
ENDBRANCH   1  27
BRANCH   1  49
ATOM     49  C   UNL     1       6.945  -2.351  21.959  0.00  0.00    +0.086 C 
BRANCH  49  50
ATOM     50  C   UNL     1       6.565  -3.790  22.085  0.00  0.00    +0.038 A 
ATOM     51  N   UNL     1       5.296  -4.222  22.378  0.00  0.00    -0.348 N 
ATOM     52  H   UNL     1       4.498  -3.642  22.628  0.00  0.00    +0.166 HD
ATOM     53  C   UNL     1       5.261  -5.571  22.221  0.00  0.00    +0.196 A 
ATOM     54  N   UNL     1       6.457  -6.038  21.955  0.00  0.00    -0.244 NA
ATOM     55  C   UNL     1       7.283  -4.951  21.889  0.00  0.00    +0.133 A 
ENDBRANCH  49  50
ENDBRANCH   1  49
TORSDOF 21
ENDMDL
MODEL 2
REMARK VINA RESULT:      -6.2      1.759      2.439
REMARK  Name = 
REMARK  26 active torsions:
REMARK  status: ('A' for Active; 'I' for Inactive)
REMARK    1  A    between atoms: C_1  and  O_2
REMARK    2  A    between atoms: O_2  and  C_3
REMARK    3  A    between atoms: C_6  and  C_7
REMARK    4  A    between atoms: C_7  and  C_8
REMARK    5  A    between atoms: C_8  and  N_10
REMARK    6  A    between atoms: C_8  and  C_18
REMARK    7  A    between atoms: C_11  and  C_13
REMARK    8  A    between atoms: C_13  and  C_14
REMARK    9  A    between atoms: C_14  and  C_15
REMARK   10  A    between atoms: C_14  and  C_16
REMARK   11  A    between atoms: C_14  and  N_17
REMARK   12  A    between atoms: N_20  and  C_21
REMARK   13  A    between atoms: C_21  and  C_23
REMARK   14  A    between atoms: C_21  and  C_29
REMARK   15  A    between atoms: C_23  and  C_24
REMARK   16  A    between atoms: N_31  and  C_32
REMARK   17  A    between atoms: C_32  and  C_34
REMARK   18  A    between atoms: C_32  and  C_41
REMARK   19  A    between atoms: C_34  and  C_35
REMARK   20  A    between atoms: C_41  and  O_43
REMARK   21  A    between atoms: C_41  and  C_44
REMARK   22  A    between atoms: C_44  and  O_46
REMARK   23  A    between atoms: C_44  and  C_47
REMARK   24  A    between atoms: C_47  and  C_48
REMARK   25  A    between atoms: C_48  and  C_49
REMARK   26  A    between atoms: C_48  and  C_50
REMARK                            x       y       z     vdW  Elec       q    Type
REMARK                         _______ _______ _______ _____ _____    ______ ____
ROOT
ATOM      1  C   UNL     1       8.383  -1.924  23.281  0.00  0.00    +0.165 C 
ENDROOT
BRANCH   1   3
ATOM      2  C   UNL     1       7.244  -2.418  25.509  0.00  0.00    +0.234 C 
ATOM      3  N   UNL     1       7.204  -2.025  24.185  0.00  0.00    -0.302 N 
ATOM      4  H   UNL     1       6.333  -1.640  23.819  0.00  0.00    +0.150 HD
ATOM      5  O   UNL     1       8.267  -2.836  26.047  0.00  0.00    -0.274 OA
BRANCH   2   6
ATOM      6  C   UNL     1       5.868  -2.401  26.233  0.00  0.00    +0.163 C 
BRANCH   6   7
ATOM      7  N   UNL     1       5.680  -1.126  26.938  0.00  0.00    -0.304 N 
ATOM      8  H   UNL     1       5.489  -1.151  27.933  0.00  0.00    +0.149 HD
ATOM      9  C   UNL     1       5.457   0.033  26.240  0.00  0.00    +0.215 C 
ATOM     10  O   UNL     1       5.295   0.027  25.022  0.00  0.00    -0.276 OA
BRANCH   9  11
ATOM     11  C   UNL     1       5.400   1.319  27.063  0.00  0.00    +0.117 C 
BRANCH  11  12
ATOM     12  C   UNL     1       6.784   1.711  27.628  0.00  0.00    +0.019 C 
ATOM     13  C   UNL     1       6.912   1.365  29.118  0.00  0.00    +0.027 C 
ATOM     14  C   UNL     1       6.959   3.229  27.494  0.00  0.00    +0.027 C 
BRANCH  12  15
ATOM     15  N   UNL     1       7.870   0.986  26.944  0.00  0.00    -0.325 NA
ATOM     16  H   UNL     1       8.540   0.647  27.638  0.00  0.00    +0.119 HD
ATOM     17  H   UNL     1       7.502   0.116  26.541  0.00  0.00    +0.119 HD
ENDBRANCH  12  15
ENDBRANCH  11  12
ENDBRANCH   9  11
ENDBRANCH   6   7
BRANCH   6  18
ATOM     18  C   UNL     1       4.720  -2.649  25.235  0.00  0.00    +0.067 C 
BRANCH  18  22
ATOM     19  C   UNL     1       3.370  -6.774  24.946  0.00  0.00    +0.120 A 
ATOM     20  C   UNL     1       4.520  -6.452  25.667  0.00  0.00    +0.046 A 
ATOM     21  C   UNL     1       4.952  -5.126  25.775  0.00  0.00    +0.007 A 
ATOM     22  C   UNL     1       4.233  -4.087  25.170  0.00  0.00    -0.045 A 
ATOM     23  C   UNL     1       3.076  -4.417  24.448  0.00  0.00    +0.007 A 
ATOM     24  C   UNL     1       2.646  -5.748  24.340  0.00  0.00    +0.046 A 
BRANCH  19  26
ATOM     25  C   UNL     1       1.909  -8.493  24.186  0.00  0.00    +0.277 C 
ATOM     26  O   UNL     1       3.077  -8.109  24.901  0.00  0.00    -0.495 OA
ENDBRANCH  19  26
ENDBRANCH  18  22
ENDBRANCH   6  18
ENDBRANCH   2   6
ENDBRANCH   1   3
BRANCH   1  27
ATOM     27  C   UNL     1       8.474  -0.432  22.810  0.00  0.00    +0.234 C 
ATOM     28  N   UNL     1       8.029   0.543  23.688  0.00  0.00    -0.308 N 
ATOM     29  H   UNL     1       7.392   0.288  24.433  0.00  0.00    +0.149 HD
ATOM     30  O   UNL     1       8.999  -0.158  21.728  0.00  0.00    -0.274 OA
BRANCH  28  31
ATOM     31  C   UNL     1       8.252   1.992  23.442  0.00  0.00    +0.104 C 
BRANCH  31  32
ATOM     32  C   UNL     1       9.493   2.528  24.236  0.00  0.00    +0.163 C 
BRANCH  32  33
ATOM     33  O   UNL     1      10.053   1.474  25.033  0.00  0.00    -0.387 OA
ATOM     34  H   UNL     1       9.436   1.273  25.760  0.00  0.00    +0.210 HD
ENDBRANCH  32  33
BRANCH  32  35
ATOM     35  C   UNL     1      10.632   3.054  23.328  0.00  0.00    +0.145 C 
BRANCH  35  36
ATOM     36  O   UNL     1      10.434   2.675  21.975  0.00  0.00    -0.389 OA
ATOM     37  H   UNL     1      10.068   1.774  21.972  0.00  0.00    +0.210 HD
ENDBRANCH  35  36
BRANCH  35  38
ATOM     38  C   UNL     1      10.788   4.588  23.343  0.00  0.00    +0.037 C 
BRANCH  38  39
ATOM     39  C   UNL     1      12.249   5.048  23.577  0.00  0.00    -0.015 C 
ATOM     40  C   UNL     1      12.326   6.268  24.499  0.00  0.00    +0.007 C 
ATOM     41  C   UNL     1      12.945   5.358  22.251  0.00  0.00    +0.007 C 
ENDBRANCH  38  39
ENDBRANCH  35  38
ENDBRANCH  32  35
ENDBRANCH  31  32
BRANCH  31  42
ATOM     42  C   UNL     1       6.917   2.772  23.558  0.00  0.00    +0.028 C 
BRANCH  42  43
ATOM     43  C   UNL     1       6.954   4.263  23.985  0.00  0.00    -0.009 C 
ATOM     44  C   UNL     1       5.548   4.698  24.457  0.00  0.00    +0.003 C 
ATOM     45  C   UNL     1       4.663   5.245  23.343  0.00  0.00    +0.000 C 
ATOM     46  C   UNL     1       5.331   6.446  22.694  0.00  0.00    +0.000 C 
ATOM     47  C   UNL     1       6.630   6.015  22.042  0.00  0.00    +0.000 C 
ATOM     48  C   UNL     1       7.567   5.300  23.018  0.00  0.00    +0.003 C 
ENDBRANCH  42  43
ENDBRANCH  31  42
ENDBRANCH  28  31
ENDBRANCH   1  27
BRANCH   1  49
ATOM     49  C   UNL     1       8.273  -2.869  22.063  0.00  0.00    +0.086 C 
BRANCH  49  50
ATOM     50  C   UNL     1       7.336  -4.011  22.284  0.00  0.00    +0.038 A 
ATOM     51  N   UNL     1       6.078  -4.081  21.738  0.00  0.00    -0.348 N 
ATOM     52  H   UNL     1       5.602  -3.354  21.210  0.00  0.00    +0.166 HD
ATOM     53  C   UNL     1       5.585  -5.325  21.975  0.00  0.00    +0.196 A 
ATOM     54  N   UNL     1       6.403  -6.014  22.732  0.00  0.00    -0.244 NA
ATOM     55  C   UNL     1       7.485  -5.207  22.952  0.00  0.00    +0.133 A 
ENDBRANCH  49  50
ENDBRANCH   1  49
TORSDOF 21
ENDMDL
MODEL 3
REMARK VINA RESULT:      -6.1      2.593      8.905
REMARK  Name = 
REMARK  26 active torsions:
REMARK  status: ('A' for Active; 'I' for Inactive)
REMARK    1  A    between atoms: C_1  and  O_2
REMARK    2  A    between atoms: O_2  and  C_3
REMARK    3  A    between atoms: C_6  and  C_7
REMARK    4  A    between atoms: C_7  and  C_8
REMARK    5  A    between atoms: C_8  and  N_10
REMARK    6  A    between atoms: C_8  and  C_18
REMARK    7  A    between atoms: C_11  and  C_13
REMARK    8  A    between atoms: C_13  and  C_14
REMARK    9  A    between atoms: C_14  and  C_15
REMARK   10  A    between atoms: C_14  and  C_16
REMARK   11  A    between atoms: C_14  and  N_17
REMARK   12  A    between atoms: N_20  and  C_21
REMARK   13  A    between atoms: C_21  and  C_23
REMARK   14  A    between atoms: C_21  and  C_29
REMARK   15  A    between atoms: C_23  and  C_24
REMARK   16  A    between atoms: N_31  and  C_32
REMARK   17  A    between atoms: C_32  and  C_34
REMARK   18  A    between atoms: C_32  and  C_41
REMARK   19  A    between atoms: C_34  and  C_35
REMARK   20  A    between atoms: C_41  and  O_43
REMARK   21  A    between atoms: C_41  and  C_44
REMARK   22  A    between atoms: C_44  and  O_46
REMARK   23  A    between atoms: C_44  and  C_47
REMARK   24  A    between atoms: C_47  and  C_48
REMARK   25  A    between atoms: C_48  and  C_49
REMARK   26  A    between atoms: C_48  and  C_50
REMARK                            x       y       z     vdW  Elec       q    Type
REMARK                         _______ _______ _______ _____ _____    ______ ____
ROOT
ATOM      1  C   UNL     1       6.200  -0.895  27.440  0.00  0.00    +0.165 C 
ENDROOT
BRANCH   1   3
ATOM      2  C   UNL     1       8.319  -0.530  26.067  0.00  0.00    +0.234 C 
ATOM      3  N   UNL     1       6.943  -0.588  26.187  0.00  0.00    -0.302 N 
ATOM      4  H   UNL     1       6.380  -0.556  25.337  0.00  0.00    +0.150 HD
ATOM      5  O   UNL     1       9.073  -0.622  27.034  0.00  0.00    -0.274 OA
BRANCH   2   6
ATOM      6  C   UNL     1       8.833  -0.223  24.633  0.00  0.00    +0.163 C 
BRANCH   6   7
ATOM      7  N   UNL     1       9.562   1.052  24.615  0.00  0.00    -0.304 N 
ATOM      8  H   UNL     1      10.111   1.303  25.430  0.00  0.00    +0.149 HD
ATOM      9  C   UNL     1       9.271   2.012  23.680  0.00  0.00    +0.215 C 
ATOM     10  O   UNL     1       8.326   1.886  22.905  0.00  0.00    -0.276 OA
BRANCH   9  11
ATOM     11  C   UNL     1      10.173   3.245  23.672  0.00  0.00    +0.117 C 
BRANCH  11  12
ATOM     12  C   UNL     1       9.366   4.558  23.797  0.00  0.00    +0.019 C 
ATOM     13  C   UNL     1      10.278   5.793  23.787  0.00  0.00    +0.027 C 
ATOM     14  C   UNL     1       8.619   4.551  25.136  0.00  0.00    +0.027 C 
BRANCH  12  15
ATOM     15  N   UNL     1       8.434   4.727  22.667  0.00  0.00    -0.325 NA
ATOM     16  H   UNL     1       8.639   4.025  21.952  0.00  0.00    +0.119 HD
ATOM     17  H   UNL     1       7.484   4.475  22.964  0.00  0.00    +0.119 HD
ENDBRANCH  12  15
ENDBRANCH  11  12
ENDBRANCH   9  11
ENDBRANCH   6   7
BRANCH   6  18
ATOM     18  C   UNL     1       9.723  -1.370  24.113  0.00  0.00    +0.067 C 
BRANCH  18  22
ATOM     19  C   UNL     1       7.489  -4.944  23.040  0.00  0.00    +0.120 A 
ATOM     20  C   UNL     1       7.393  -3.788  22.266  0.00  0.00    +0.046 A 
ATOM     21  C   UNL     1       8.118  -2.639  22.598  0.00  0.00    +0.007 A 
ATOM     22  C   UNL     1       8.969  -2.626  23.710  0.00  0.00    -0.045 A 
ATOM     23  C   UNL     1       9.063  -3.793  24.484  0.00  0.00    +0.007 A 
ATOM     24  C   UNL     1       8.333  -4.944  24.150  0.00  0.00    +0.046 A 
BRANCH  19  26
ATOM     25  C   UNL     1       6.033  -5.826  21.375  0.00  0.00    +0.277 C 
ATOM     26  O   UNL     1       6.707  -5.983  22.617  0.00  0.00    -0.495 OA
ENDBRANCH  19  26
ENDBRANCH  18  22
ENDBRANCH   6  18
ENDBRANCH   2   6
ENDBRANCH   1   3
BRANCH   1  27
ATOM     27  C   UNL     1       5.330  -2.168  27.158  0.00  0.00    +0.234 C 
ATOM     28  N   UNL     1       5.991  -3.313  26.740  0.00  0.00    -0.308 N 
ATOM     29  H   UNL     1       6.915  -3.233  26.333  0.00  0.00    +0.149 HD
ATOM     30  O   UNL     1       4.117  -2.149  27.383  0.00  0.00    -0.274 OA
BRANCH  28  31
ATOM     31  C   UNL     1       5.308  -4.630  26.640  0.00  0.00    +0.104 C 
BRANCH  31  32
ATOM     32  C   UNL     1       6.194  -5.785  27.221  0.00  0.00    +0.163 C 
BRANCH  32  33
ATOM     33  O   UNL     1       7.467  -5.263  27.631  0.00  0.00    -0.387 OA
ATOM     34  H   UNL     1       8.113  -5.991  27.639  0.00  0.00    +0.210 HD
ENDBRANCH  32  33
BRANCH  32  35
ATOM     35  C   UNL     1       5.576  -6.480  28.460  0.00  0.00    +0.145 C 
BRANCH  35  36
ATOM     36  O   UNL     1       6.529  -7.297  29.125  0.00  0.00    -0.389 OA
ATOM     37  H   UNL     1       6.511  -7.061  30.068  0.00  0.00    +0.210 HD
ENDBRANCH  35  36
BRANCH  35  38
ATOM     38  C   UNL     1       5.015  -5.502  29.512  0.00  0.00    +0.037 C 
BRANCH  38  39
ATOM     39  C   UNL     1       3.546  -5.805  29.899  0.00  0.00    -0.015 C 
ATOM     40  C   UNL     1       3.130  -7.225  29.508  0.00  0.00    +0.007 C 
ATOM     41  C   UNL     1       2.592  -4.793  29.260  0.00  0.00    +0.007 C 
ENDBRANCH  38  39
ENDBRANCH  35  38
ENDBRANCH  32  35
ENDBRANCH  31  32
BRANCH  31  42
ATOM     42  C   UNL     1       4.697  -4.816  25.227  0.00  0.00    +0.028 C 
BRANCH  42  43
ATOM     43  C   UNL     1       3.180  -5.114  25.100  0.00  0.00    -0.009 C 
ATOM     44  C   UNL     1       2.839  -6.394  25.896  0.00  0.00    +0.003 C 
ATOM     45  C   UNL     1       2.958  -7.679  25.084  0.00  0.00    +0.000 C 
ATOM     46  C   UNL     1       2.033  -7.617  23.880  0.00  0.00    +0.000 C 
ATOM     47  C   UNL     1       2.463  -6.486  22.966  0.00  0.00    +0.000 C 
ATOM     48  C   UNL     1       2.542  -5.143  23.693  0.00  0.00    +0.003 C 
ENDBRANCH  42  43
ENDBRANCH  31  42
ENDBRANCH  28  31
ENDBRANCH   1  27
BRANCH   1  49
ATOM     49  C   UNL     1       5.306   0.279  27.897  0.00  0.00    +0.086 C 
BRANCH  49  50
ATOM     50  C   UNL     1       5.956   1.155  28.917  0.00  0.00    +0.038 A 
ATOM     51  N   UNL     1       7.315   1.254  29.082  0.00  0.00    -0.348 N 
ATOM     52  H   UNL     1       8.028   0.699  28.615  0.00  0.00    +0.166 HD
ATOM     53  C   UNL     1       7.562   2.273  29.946  0.00  0.00    +0.196 A 
ATOM     54  N   UNL     1       6.443   2.756  30.427  0.00  0.00    -0.244 NA
ATOM     55  C   UNL     1       5.436   2.060  29.817  0.00  0.00    +0.133 A 
ENDBRANCH  49  50
ENDBRANCH   1  49
TORSDOF 21
ENDMDL
MODEL 4
REMARK VINA RESULT:      -6.0      2.769      6.080
REMARK  Name = 
REMARK  26 active torsions:
REMARK  status: ('A' for Active; 'I' for Inactive)
REMARK    1  A    between atoms: C_1  and  O_2
REMARK    2  A    between atoms: O_2  and  C_3
REMARK    3  A    between atoms: C_6  and  C_7
REMARK    4  A    between atoms: C_7  and  C_8
REMARK    5  A    between atoms: C_8  and  N_10
REMARK    6  A    between atoms: C_8  and  C_18
REMARK    7  A    between atoms: C_11  and  C_13
REMARK    8  A    between atoms: C_13  and  C_14
REMARK    9  A    between atoms: C_14  and  C_15
REMARK   10  A    between atoms: C_14  and  C_16
REMARK   11  A    between atoms: C_14  and  N_17
REMARK   12  A    between atoms: N_20  and  C_21
REMARK   13  A    between atoms: C_21  and  C_23
REMARK   14  A    between atoms: C_21  and  C_29
REMARK   15  A    between atoms: C_23  and  C_24
REMARK   16  A    between atoms: N_31  and  C_32
REMARK   17  A    between atoms: C_32  and  C_34
REMARK   18  A    between atoms: C_32  and  C_41
REMARK   19  A    between atoms: C_34  and  C_35
REMARK   20  A    between atoms: C_41  and  O_43
REMARK   21  A    between atoms: C_41  and  C_44
REMARK   22  A    between atoms: C_44  and  O_46
REMARK   23  A    between atoms: C_44  and  C_47
REMARK   24  A    between atoms: C_47  and  C_48
REMARK   25  A    between atoms: C_48  and  C_49
REMARK   26  A    between atoms: C_48  and  C_50
REMARK                            x       y       z     vdW  Elec       q    Type
REMARK                         _______ _______ _______ _____ _____    ______ ____
ROOT
ATOM      1  C   UNL     1       5.689   2.090  26.011  0.00  0.00    +0.165 C 
ENDROOT
BRANCH   1   3
ATOM      2  C   UNL     1       4.945  -0.308  26.463  0.00  0.00    +0.234 C 
ATOM      3  N   UNL     1       5.928   0.651  26.306  0.00  0.00    -0.302 N 
ATOM      4  H   UNL     1       6.900   0.345  26.248  0.00  0.00    +0.150 HD
ATOM      5  O   UNL     1       3.747  -0.032  26.482  0.00  0.00    -0.274 OA
BRANCH   2   6
ATOM      6  C   UNL     1       5.476  -1.744  26.730  0.00  0.00    +0.163 C 
BRANCH   6   7
ATOM      7  N   UNL     1       4.540  -2.741  26.192  0.00  0.00    -0.304 N 
ATOM      8  H   UNL     1       4.126  -2.569  25.283  0.00  0.00    +0.149 HD
ATOM      9  C   UNL     1       4.001  -3.704  27.005  0.00  0.00    +0.215 C 
ATOM     10  O   UNL     1       4.190  -3.699  28.219  0.00  0.00    -0.276 OA
BRANCH   9  11
ATOM     11  C   UNL     1       3.140  -4.765  26.320  0.00  0.00    +0.117 C 
BRANCH  11  12
ATOM     12  C   UNL     1       3.986  -5.935  25.768  0.00  0.00    +0.019 C 
ATOM     13  C   UNL     1       4.241  -5.795  24.261  0.00  0.00    +0.027 C 
ATOM     14  C   UNL     1       3.216  -7.243  25.984  0.00  0.00    +0.027 C 
BRANCH  12  15
ATOM     15  N   UNL     1       5.314  -5.986  26.406  0.00  0.00    -0.325 NA
ATOM     16  H   UNL     1       5.874  -5.193  26.086  0.00  0.00    +0.119 HD
ATOM     17  H   UNL     1       5.220  -5.805  27.413  0.00  0.00    +0.119 HD
ENDBRANCH  12  15
ENDBRANCH  11  12
ENDBRANCH   9  11
ENDBRANCH   6   7
BRANCH   6  18
ATOM     18  C   UNL     1       6.881  -1.930  26.125  0.00  0.00    +0.067 C 
BRANCH  18  22
ATOM     19  C   UNL     1       7.087  -4.329  22.503  0.00  0.00    +0.120 A 
ATOM     20  C   UNL     1       7.777  -4.717  23.651  0.00  0.00    +0.046 A 
ATOM     21  C   UNL     1       7.705  -3.957  24.824  0.00  0.00    +0.007 A 
ATOM     22  C   UNL     1       6.927  -2.794  24.875  0.00  0.00    -0.045 A 
ATOM     23  C   UNL     1       6.234  -2.410  23.717  0.00  0.00    +0.007 A 
ATOM     24  C   UNL     1       6.310  -3.173  22.542  0.00  0.00    +0.046 A 
BRANCH  19  26
ATOM     25  C   UNL     1       6.139  -5.892  20.978  0.00  0.00    +0.277 C 
ATOM     26  O   UNL     1       7.266  -5.149  21.423  0.00  0.00    -0.495 OA
ENDBRANCH  19  26
ENDBRANCH  18  22
ENDBRANCH   6  18
ENDBRANCH   2   6
ENDBRANCH   1   3
BRANCH   1  27
ATOM     27  C   UNL     1       6.912   2.598  25.173  0.00  0.00    +0.234 C 
ATOM     28  N   UNL     1       6.774   2.626  23.794  0.00  0.00    -0.308 N 
ATOM     29  H   UNL     1       6.065   2.053  23.354  0.00  0.00    +0.149 HD
ATOM     30  O   UNL     1       7.918   3.025  25.746  0.00  0.00    -0.274 OA
BRANCH  28  31
ATOM     31  C   UNL     1       7.779   3.274  22.911  0.00  0.00    +0.104 C 
BRANCH  31  32
ATOM     32  C   UNL     1       7.249   4.631  22.332  0.00  0.00    +0.163 C 
BRANCH  32  33
ATOM     33  O   UNL     1       5.824   4.567  22.170  0.00  0.00    -0.387 OA
ATOM     34  H   UNL     1       5.456   4.006  22.875  0.00  0.00    +0.210 HD
ENDBRANCH  32  33
BRANCH  32  35
ATOM     35  C   UNL     1       7.540   5.851  23.240  0.00  0.00    +0.145 C 
BRANCH  35  36
ATOM     36  O   UNL     1       7.305   5.547  24.608  0.00  0.00    -0.389 OA
ATOM     37  H   UNL     1       6.347   5.614  24.764  0.00  0.00    +0.210 HD
ENDBRANCH  35  36
BRANCH  35  38
ATOM     38  C   UNL     1       8.987   6.374  23.143  0.00  0.00    +0.037 C 
BRANCH  38  39
ATOM     39  C   UNL     1       9.914   5.806  24.247  0.00  0.00    -0.015 C 
ATOM     40  C   UNL     1      10.352   6.885  25.240  0.00  0.00    +0.007 C 
ATOM     41  C   UNL     1      11.146   5.135  23.636  0.00  0.00    +0.007 C 
ENDBRANCH  38  39
ENDBRANCH  35  38
ENDBRANCH  32  35
ENDBRANCH  31  32
BRANCH  31  42
ATOM     42  C   UNL     1       8.376   2.240  21.922  0.00  0.00    +0.028 C 
BRANCH  42  43
ATOM     43  C   UNL     1       9.742   1.585  22.256  0.00  0.00    -0.009 C 
ATOM     44  C   UNL     1       9.798   0.168  21.640  0.00  0.00    +0.003 C 
ATOM     45  C   UNL     1       9.272  -0.927  22.560  0.00  0.00    +0.000 C 
ATOM     46  C   UNL     1      10.072  -0.947  23.852  0.00  0.00    +0.000 C 
ATOM     47  C   UNL     1       9.881   0.364  24.588  0.00  0.00    +0.000 C 
ATOM     48  C   UNL     1      10.226   1.578  23.723  0.00  0.00    +0.003 C 
ENDBRANCH  42  43
ENDBRANCH  31  42
ENDBRANCH  28  31
ENDBRANCH   1  27
BRANCH   1  49
ATOM     49  C   UNL     1       5.526   2.935  27.295  0.00  0.00    +0.086 C 
BRANCH  49  50
ATOM     50  C   UNL     1       4.778   4.209  27.073  0.00  0.00    +0.038 A 
ATOM     51  N   UNL     1       5.380   5.438  26.966  0.00  0.00    -0.348 N 
ATOM     52  H   UNL     1       6.365   5.649  27.111  0.00  0.00    +0.166 HD
ATOM     53  C   UNL     1       4.439   6.336  26.574  0.00  0.00    +0.196 A 
ATOM     54  N   UNL     1       3.254   5.779  26.531  0.00  0.00    -0.244 NA
ATOM     55  C   UNL     1       3.441   4.464  26.859  0.00  0.00    +0.133 A 
ENDBRANCH  49  50
ENDBRANCH   1  49
TORSDOF 21
ENDMDL
MODEL 5
REMARK VINA RESULT:      -6.0      2.981      8.894
REMARK  Name = 
REMARK  26 active torsions:
REMARK  status: ('A' for Active; 'I' for Inactive)
REMARK    1  A    between atoms: C_1  and  O_2
REMARK    2  A    between atoms: O_2  and  C_3
REMARK    3  A    between atoms: C_6  and  C_7
REMARK    4  A    between atoms: C_7  and  C_8
REMARK    5  A    between atoms: C_8  and  N_10
REMARK    6  A    between atoms: C_8  and  C_18
REMARK    7  A    between atoms: C_11  and  C_13
REMARK    8  A    between atoms: C_13  and  C_14
REMARK    9  A    between atoms: C_14  and  C_15
REMARK   10  A    between atoms: C_14  and  C_16
REMARK   11  A    between atoms: C_14  and  N_17
REMARK   12  A    between atoms: N_20  and  C_21
REMARK   13  A    between atoms: C_21  and  C_23
REMARK   14  A    between atoms: C_21  and  C_29
REMARK   15  A    between atoms: C_23  and  C_24
REMARK   16  A    between atoms: N_31  and  C_32
REMARK   17  A    between atoms: C_32  and  C_34
REMARK   18  A    between atoms: C_32  and  C_41
REMARK   19  A    between atoms: C_34  and  C_35
REMARK   20  A    between atoms: C_41  and  O_43
REMARK   21  A    between atoms: C_41  and  C_44
REMARK   22  A    between atoms: C_44  and  O_46
REMARK   23  A    between atoms: C_44  and  C_47
REMARK   24  A    between atoms: C_47  and  C_48
REMARK   25  A    between atoms: C_48  and  C_49
REMARK   26  A    between atoms: C_48  and  C_50
REMARK                            x       y       z     vdW  Elec       q    Type
REMARK                         _______ _______ _______ _____ _____    ______ ____
ROOT
ATOM      1  C   UNL     1       7.096   1.315  27.219  0.00  0.00    +0.165 C 
ENDROOT
BRANCH   1   3
ATOM      2  C   UNL     1       7.320   3.690  26.315  0.00  0.00    +0.234 C 
ATOM      3  N   UNL     1       7.078   2.340  26.140  0.00  0.00    -0.302 N 
ATOM      4  H   UNL     1       7.015   1.978  25.188  0.00  0.00    +0.150 HD
ATOM      5  O   UNL     1       7.470   4.199  27.424  0.00  0.00    -0.274 OA
BRANCH   2   6
ATOM      6  C   UNL     1       7.273   4.533  25.009  0.00  0.00    +0.163 C 
BRANCH   6   7
ATOM      7  N   UNL     1       5.882   4.846  24.655  0.00  0.00    -0.304 N 
ATOM      8  H   UNL     1       5.206   4.939  25.404  0.00  0.00    +0.149 HD
ATOM      9  C   UNL     1       5.441   4.710  23.364  0.00  0.00    +0.215 C 
ATOM     10  O   UNL     1       6.153   4.218  22.492  0.00  0.00    -0.276 OA
BRANCH   9  11
ATOM     11  C   UNL     1       4.016   5.181  23.082  0.00  0.00    +0.117 C 
BRANCH  11  12
ATOM     12  C   UNL     1       3.029   4.001  22.933  0.00  0.00    +0.019 C 
ATOM     13  C   UNL     1       2.612   3.784  21.472  0.00  0.00    +0.027 C 
ATOM     14  C   UNL     1       1.759   4.318  23.731  0.00  0.00    +0.027 C 
BRANCH  12  15
ATOM     15  N   UNL     1       3.636   2.733  23.379  0.00  0.00    -0.325 NA
ATOM     16  H   UNL     1       4.389   2.475  22.737  0.00  0.00    +0.119 HD
ATOM     17  H   UNL     1       4.136   2.883  24.263  0.00  0.00    +0.119 HD
ENDBRANCH  12  15
ENDBRANCH  11  12
ENDBRANCH   9  11
ENDBRANCH   6   7
BRANCH   6  18
ATOM     18  C   UNL     1       8.104   5.822  25.159  0.00  0.00    +0.067 C 
BRANCH  18  22
ATOM     19  C   UNL     1      12.218   5.490  23.789  0.00  0.00    +0.120 A 
ATOM     20  C   UNL     1      11.251   4.582  23.358  0.00  0.00    +0.046 A 
ATOM     21  C   UNL     1       9.923   4.691  23.785  0.00  0.00    +0.007 A 
ATOM     22  C   UNL     1       9.531   5.723  24.646  0.00  0.00    -0.045 A 
ATOM     23  C   UNL     1      10.508   6.635  25.074  0.00  0.00    +0.007 A 
ATOM     24  C   UNL     1      11.840   6.522  24.646  0.00  0.00    +0.046 A 
BRANCH  19  26
ATOM     25  C   UNL     1      13.786   5.733  22.013  0.00  0.00    +0.277 C 
ATOM     26  O   UNL     1      13.479   5.251  23.315  0.00  0.00    -0.495 OA
ENDBRANCH  19  26
ENDBRANCH  18  22
ENDBRANCH   6  18
ENDBRANCH   2   6
ENDBRANCH   1   3
BRANCH   1  27
ATOM     27  C   UNL     1       7.048  -0.087  26.521  0.00  0.00    +0.234 C 
ATOM     28  N   UNL     1       6.975  -0.110  25.137  0.00  0.00    -0.308 N 
ATOM     29  H   UNL     1       6.645   0.710  24.644  0.00  0.00    +0.149 HD
ATOM     30  O   UNL     1       7.154  -1.116  27.195  0.00  0.00    -0.274 OA
BRANCH  28  31
ATOM     31  C   UNL     1       7.130  -1.365  24.356  0.00  0.00    +0.104 C 
BRANCH  31  32
ATOM     32  C   UNL     1       5.917  -2.333  24.572  0.00  0.00    +0.163 C 
BRANCH  32  33
ATOM     33  O   UNL     1       4.830  -1.622  25.183  0.00  0.00    -0.387 OA
ATOM     34  H   UNL     1       5.196  -0.976  25.812  0.00  0.00    +0.210 HD
ENDBRANCH  32  33
BRANCH  32  35
ATOM     35  C   UNL     1       5.368  -2.946  23.259  0.00  0.00    +0.145 C 
BRANCH  35  36
ATOM     36  O   UNL     1       5.934  -2.319  22.118  0.00  0.00    -0.389 OA
ATOM     37  H   UNL     1       5.297  -1.656  21.800  0.00  0.00    +0.210 HD
ENDBRANCH  35  36
BRANCH  35  38
ATOM     38  C   UNL     1       5.632  -4.458  23.115  0.00  0.00    +0.037 C 
BRANCH  38  39
ATOM     39  C   UNL     1       7.029  -4.776  22.524  0.00  0.00    -0.015 C 
ATOM     40  C   UNL     1       6.951  -5.785  21.376  0.00  0.00    +0.007 C 
ATOM     41  C   UNL     1       7.976  -5.297  23.607  0.00  0.00    +0.007 C 
ENDBRANCH  38  39
ENDBRANCH  35  38
ENDBRANCH  32  35
ENDBRANCH  31  32
BRANCH  31  42
ATOM     42  C   UNL     1       8.561  -1.935  24.528  0.00  0.00    +0.028 C 
BRANCH  42  43
ATOM     43  C   UNL     1       9.653  -1.544  23.498  0.00  0.00    -0.009 C 
ATOM     44  C   UNL     1      10.529  -0.411  24.081  0.00  0.00    +0.003 C 
ATOM     45  C   UNL     1      10.014   0.990  23.771  0.00  0.00    +0.000 C 
ATOM     46  C   UNL     1       9.933   1.191  22.267  0.00  0.00    +0.000 C 
ATOM     47  C   UNL     1       8.926   0.221  21.680  0.00  0.00    +0.000 C 
ATOM     48  C   UNL     1       9.230  -1.233  22.045  0.00  0.00    +0.003 C 
ENDBRANCH  42  43
ENDBRANCH  31  42
ENDBRANCH  28  31
ENDBRANCH   1  27
BRANCH   1  49
ATOM     49  C   UNL     1       5.912   1.471  28.199  0.00  0.00    +0.086 C 
BRANCH  49  50
ATOM     50  C   UNL     1       4.610   1.009  27.632  0.00  0.00    +0.038 A 
ATOM     51  N   UNL     1       4.038  -0.203  27.924  0.00  0.00    -0.348 N 
ATOM     52  H   UNL     1       4.450  -0.956  28.471  0.00  0.00    +0.166 HD
ATOM     53  C   UNL     1       2.783  -0.214  27.403  0.00  0.00    +0.196 A 
ATOM     54  N   UNL     1       2.561   0.871  26.702  0.00  0.00    -0.244 NA
ATOM     55  C   UNL     1       3.692   1.632  26.814  0.00  0.00    +0.133 A 
ENDBRANCH  49  50
ENDBRANCH   1  49
TORSDOF 21
ENDMDL
MODEL 6
REMARK VINA RESULT:      -6.0      2.648      5.809
REMARK  Name = 
REMARK  26 active torsions:
REMARK  status: ('A' for Active; 'I' for Inactive)
REMARK    1  A    between atoms: C_1  and  O_2
REMARK    2  A    between atoms: O_2  and  C_3
REMARK    3  A    between atoms: C_6  and  C_7
REMARK    4  A    between atoms: C_7  and  C_8
REMARK    5  A    between atoms: C_8  and  N_10
REMARK    6  A    between atoms: C_8  and  C_18
REMARK    7  A    between atoms: C_11  and  C_13
REMARK    8  A    between atoms: C_13  and  C_14
REMARK    9  A    between atoms: C_14  and  C_15
REMARK   10  A    between atoms: C_14  and  C_16
REMARK   11  A    between atoms: C_14  and  N_17
REMARK   12  A    between atoms: N_20  and  C_21
REMARK   13  A    between atoms: C_21  and  C_23
REMARK   14  A    between atoms: C_21  and  C_29
REMARK   15  A    between atoms: C_23  and  C_24
REMARK   16  A    between atoms: N_31  and  C_32
REMARK   17  A    between atoms: C_32  and  C_34
REMARK   18  A    between atoms: C_32  and  C_41
REMARK   19  A    between atoms: C_34  and  C_35
REMARK   20  A    between atoms: C_41  and  O_43
REMARK   21  A    between atoms: C_41  and  C_44
REMARK   22  A    between atoms: C_44  and  O_46
REMARK   23  A    between atoms: C_44  and  C_47
REMARK   24  A    between atoms: C_47  and  C_48
REMARK   25  A    between atoms: C_48  and  C_49
REMARK   26  A    between atoms: C_48  and  C_50
REMARK                            x       y       z     vdW  Elec       q    Type
REMARK                         _______ _______ _______ _____ _____    ______ ____
ROOT
ATOM      1  C   UNL     1       5.682   1.789  26.008  0.00  0.00    +0.165 C 
ENDROOT
BRANCH   1   3
ATOM      2  C   UNL     1       5.070  -0.649  26.440  0.00  0.00    +0.234 C 
ATOM      3  N   UNL     1       5.997   0.370  26.327  0.00  0.00    -0.302 N 
ATOM      4  H   UNL     1       6.988   0.126  26.324  0.00  0.00    +0.150 HD
ATOM      5  O   UNL     1       3.858  -0.451  26.392  0.00  0.00    -0.274 OA
BRANCH   2   6
ATOM      6  C   UNL     1       5.676  -2.047  26.747  0.00  0.00    +0.163 C 
BRANCH   6   7
ATOM      7  N   UNL     1       4.672  -3.097  26.530  0.00  0.00    -0.304 N 
ATOM      8  H   UNL     1       3.896  -2.898  25.908  0.00  0.00    +0.149 HD
ATOM      9  C   UNL     1       4.602  -4.182  27.365  0.00  0.00    +0.215 C 
ATOM     10  O   UNL     1       5.294  -4.258  28.377  0.00  0.00    -0.276 OA
BRANCH   9  11
ATOM     11  C   UNL     1       3.606  -5.274  26.976  0.00  0.00    +0.117 C 
BRANCH  11  12
ATOM     12  C   UNL     1       4.162  -6.204  25.874  0.00  0.00    +0.019 C 
ATOM     13  C   UNL     1       3.946  -5.622  24.471  0.00  0.00    +0.027 C 
ATOM     14  C   UNL     1       3.414  -7.541  25.935  0.00  0.00    +0.027 C 
BRANCH  12  15
ATOM     15  N   UNL     1       5.616  -6.400  26.018  0.00  0.00    -0.325 NA
ATOM     16  H   UNL     1       6.101  -5.537  25.759  0.00  0.00    +0.119 HD
ATOM     17  H   UNL     1       5.853  -6.502  27.012  0.00  0.00    +0.119 HD
ENDBRANCH  12  15
ENDBRANCH  11  12
ENDBRANCH   9  11
ENDBRANCH   6   7
BRANCH   6  18
ATOM     18  C   UNL     1       6.929  -2.302  25.886  0.00  0.00    +0.067 C 
BRANCH  18  22
ATOM     19  C   UNL     1       6.216  -3.987  21.941  0.00  0.00    +0.120 A 
ATOM     20  C   UNL     1       6.955  -4.692  22.890  0.00  0.00    +0.046 A 
ATOM     21  C   UNL     1       7.177  -4.162  24.165  0.00  0.00    +0.007 A 
ATOM     22  C   UNL     1       6.652  -2.914  24.523  0.00  0.00    -0.045 A 
ATOM     23  C   UNL     1       5.907  -2.211  23.564  0.00  0.00    +0.007 A 
ATOM     24  C   UNL     1       5.687  -2.744  22.285  0.00  0.00    +0.046 A 
BRANCH  19  26
ATOM     25  C   UNL     1       6.256  -6.023  20.707  0.00  0.00    +0.277 C 
ATOM     26  O   UNL     1       6.097  -4.610  20.729  0.00  0.00    -0.495 OA
ENDBRANCH  19  26
ENDBRANCH  18  22
ENDBRANCH   6  18
ENDBRANCH   2   6
ENDBRANCH   1   3
BRANCH   1  27
ATOM     27  C   UNL     1       6.817   2.310  25.062  0.00  0.00    +0.234 C 
ATOM     28  N   UNL     1       6.608   2.205  23.695  0.00  0.00    -0.308 N 
ATOM     29  H   UNL     1       5.925   1.544  23.347  0.00  0.00    +0.149 HD
ATOM     30  O   UNL     1       7.814   2.861  25.538  0.00  0.00    -0.274 OA
BRANCH  28  31
ATOM     31  C   UNL     1       7.512   2.845  22.704  0.00  0.00    +0.104 C 
BRANCH  31  32
ATOM     32  C   UNL     1       6.928   4.202  22.182  0.00  0.00    +0.163 C 
BRANCH  32  33
ATOM     33  O   UNL     1       5.714   4.511  22.883  0.00  0.00    -0.387 OA
ATOM     34  H   UNL     1       5.719   5.457  23.111  0.00  0.00    +0.210 HD
ENDBRANCH  32  33
BRANCH  32  35
ATOM     35  C   UNL     1       7.879   5.408  22.386  0.00  0.00    +0.145 C 
BRANCH  35  36
ATOM     36  O   UNL     1       7.609   6.445  21.454  0.00  0.00    -0.389 OA
ATOM     37  H   UNL     1       7.543   6.039  20.573  0.00  0.00    +0.210 HD
ENDBRANCH  35  36
BRANCH  35  38
ATOM     38  C   UNL     1       7.799   6.039  23.791  0.00  0.00    +0.037 C 
BRANCH  38  39
ATOM     39  C   UNL     1       9.183   6.454  24.349  0.00  0.00    -0.015 C 
ATOM     40  C   UNL     1      10.312   5.586  23.789  0.00  0.00    +0.007 C 
ATOM     41  C   UNL     1       9.197   6.395  25.878  0.00  0.00    +0.007 C 
ENDBRANCH  38  39
ENDBRANCH  35  38
ENDBRANCH  32  35
ENDBRANCH  31  32
BRANCH  31  42
ATOM     42  C   UNL     1       7.991   1.805  21.659  0.00  0.00    +0.028 C 
BRANCH  42  43
ATOM     43  C   UNL     1       9.432   1.242  21.767  0.00  0.00    -0.009 C 
ATOM     44  C   UNL     1       9.373  -0.270  22.084  0.00  0.00    +0.003 C 
ATOM     45  C   UNL     1       9.349  -0.589  23.574  0.00  0.00    +0.000 C 
ATOM     46  C   UNL     1      10.588  -0.020  24.246  0.00  0.00    +0.000 C 
ATOM     47  C   UNL     1      10.580   1.492  24.127  0.00  0.00    +0.000 C 
ATOM     48  C   UNL     1      10.449   1.966  22.679  0.00  0.00    +0.003 C 
ENDBRANCH  42  43
ENDBRANCH  31  42
ENDBRANCH  28  31
ENDBRANCH   1  27
BRANCH   1  49
ATOM     49  C   UNL     1       5.588   2.671  27.274  0.00  0.00    +0.086 C 
BRANCH  49  50
ATOM     50  C   UNL     1       6.214   2.046  28.477  0.00  0.00    +0.038 A 
ATOM     51  N   UNL     1       7.542   2.174  28.800  0.00  0.00    -0.348 N 
ATOM     52  H   UNL     1       8.266   2.615  28.237  0.00  0.00    +0.166 HD
ATOM     53  C   UNL     1       7.726   1.655  30.042  0.00  0.00    +0.196 A 
ATOM     54  N   UNL     1       6.622   1.105  30.485  0.00  0.00    -0.244 NA
ATOM     55  C   UNL     1       5.679   1.318  29.518  0.00  0.00    +0.133 A 
ENDBRANCH  49  50
ENDBRANCH   1  49
TORSDOF 21
ENDMDL
MODEL 7
REMARK VINA RESULT:      -5.9      2.543      5.112
REMARK  Name = 
REMARK  26 active torsions:
REMARK  status: ('A' for Active; 'I' for Inactive)
REMARK    1  A    between atoms: C_1  and  O_2
REMARK    2  A    between atoms: O_2  and  C_3
REMARK    3  A    between atoms: C_6  and  C_7
REMARK    4  A    between atoms: C_7  and  C_8
REMARK    5  A    between atoms: C_8  and  N_10
REMARK    6  A    between atoms: C_8  and  C_18
REMARK    7  A    between atoms: C_11  and  C_13
REMARK    8  A    between atoms: C_13  and  C_14
REMARK    9  A    between atoms: C_14  and  C_15
REMARK   10  A    between atoms: C_14  and  C_16
REMARK   11  A    between atoms: C_14  and  N_17
REMARK   12  A    between atoms: N_20  and  C_21
REMARK   13  A    between atoms: C_21  and  C_23
REMARK   14  A    between atoms: C_21  and  C_29
REMARK   15  A    between atoms: C_23  and  C_24
REMARK   16  A    between atoms: N_31  and  C_32
REMARK   17  A    between atoms: C_32  and  C_34
REMARK   18  A    between atoms: C_32  and  C_41
REMARK   19  A    between atoms: C_34  and  C_35
REMARK   20  A    between atoms: C_41  and  O_43
REMARK   21  A    between atoms: C_41  and  C_44
REMARK   22  A    between atoms: C_44  and  O_46
REMARK   23  A    between atoms: C_44  and  C_47
REMARK   24  A    between atoms: C_47  and  C_48
REMARK   25  A    between atoms: C_48  and  C_49
REMARK   26  A    between atoms: C_48  and  C_50
REMARK                            x       y       z     vdW  Elec       q    Type
REMARK                         _______ _______ _______ _____ _____    ______ ____
ROOT
ATOM      1  C   UNL     1       5.565   0.607  26.819  0.00  0.00    +0.165 C 
ENDROOT
BRANCH   1   3
ATOM      2  C   UNL     1       4.475  -1.698  26.748  0.00  0.00    +0.234 C 
ATOM      3  N   UNL     1       4.997  -0.581  26.124  0.00  0.00    -0.302 N 
ATOM      4  H   UNL     1       4.868  -0.483  25.116  0.00  0.00    +0.150 HD
ATOM      5  O   UNL     1       4.532  -1.866  27.964  0.00  0.00    -0.274 OA
BRANCH   2   6
ATOM      6  C   UNL     1       3.914  -2.779  25.781  0.00  0.00    +0.163 C 
BRANCH   6   7
ATOM      7  N   UNL     1       5.004  -3.619  25.269  0.00  0.00    -0.304 N 
ATOM      8  H   UNL     1       5.460  -4.258  25.909  0.00  0.00    +0.149 HD
ATOM      9  C   UNL     1       5.598  -3.336  24.065  0.00  0.00    +0.215 C 
ATOM     10  O   UNL     1       5.320  -2.318  23.436  0.00  0.00    -0.276 OA
BRANCH   9  11
ATOM     11  C   UNL     1       6.634  -4.344  23.567  0.00  0.00    +0.117 C 
BRANCH  11  12
ATOM     12  C   UNL     1       6.140  -5.123  22.328  0.00  0.00    +0.019 C 
ATOM     13  C   UNL     1       4.848  -5.900  22.618  0.00  0.00    +0.027 C 
ATOM     14  C   UNL     1       7.210  -6.146  21.930  0.00  0.00    +0.027 C 
BRANCH  12  15
ATOM     15  N   UNL     1       5.829  -4.214  21.209  0.00  0.00    -0.325 NA
ATOM     16  H   UNL     1       5.978  -3.247  21.508  0.00  0.00    +0.119 HD
ATOM     17  H   UNL     1       6.527  -4.331  20.466  0.00  0.00    +0.119 HD
ENDBRANCH  12  15
ENDBRANCH  11  12
ENDBRANCH   9  11
ENDBRANCH   6   7
BRANCH   6  18
ATOM     18  C   UNL     1       2.844  -3.639  26.483  0.00  0.00    +0.067 C 
BRANCH  18  22
ATOM     19  C   UNL     1       1.384  -6.915  24.023  0.00  0.00    +0.120 A 
ATOM     20  C   UNL     1       2.064  -7.170  25.213  0.00  0.00    +0.046 A 
ATOM     21  C   UNL     1       2.525  -6.121  26.016  0.00  0.00    +0.007 A 
ATOM     22  C   UNL     1       2.303  -4.788  25.648  0.00  0.00    -0.045 A 
ATOM     23  C   UNL     1       1.616  -4.538  24.451  0.00  0.00    +0.007 A 
ATOM     24  C   UNL     1       1.157  -5.592  23.646  0.00  0.00    +0.046 A 
BRANCH  19  26
ATOM     25  C   UNL     1       1.118  -7.976  21.908  0.00  0.00    +0.277 C 
ATOM     26  O   UNL     1       1.012  -8.031  23.325  0.00  0.00    -0.495 OA
ENDBRANCH  19  26
ENDBRANCH  18  22
ENDBRANCH   6  18
ENDBRANCH   2   6
ENDBRANCH   1   3
BRANCH   1  27
ATOM     27  C   UNL     1       5.212   1.861  25.948  0.00  0.00    +0.234 C 
ATOM     28  N   UNL     1       6.242   2.453  25.234  0.00  0.00    -0.308 N 
ATOM     29  H   UNL     1       7.201   2.289  25.516  0.00  0.00    +0.149 HD
ATOM     30  O   UNL     1       4.041   2.238  25.855  0.00  0.00    -0.274 OA
BRANCH  28  31
ATOM     31  C   UNL     1       5.997   3.513  24.220  0.00  0.00    +0.104 C 
BRANCH  31  32
ATOM     32  C   UNL     1       6.188   2.972  22.762  0.00  0.00    +0.163 C 
BRANCH  32  33
ATOM     33  O   UNL     1       6.750   4.000  21.931  0.00  0.00    -0.387 OA
ATOM     34  H   UNL     1       7.107   4.701  22.504  0.00  0.00    +0.210 HD
ENDBRANCH  32  33
BRANCH  32  35
ATOM     35  C   UNL     1       7.141   1.754  22.670  0.00  0.00    +0.145 C 
BRANCH  35  36
ATOM     36  O   UNL     1       6.427   0.530  22.744  0.00  0.00    -0.389 OA
ATOM     37  H   UNL     1       5.758   0.536  22.038  0.00  0.00    +0.210 HD
ENDBRANCH  35  36
BRANCH  35  38
ATOM     38  C   UNL     1       7.974   1.706  21.373  0.00  0.00    +0.037 C 
BRANCH  38  39
ATOM     39  C   UNL     1       9.427   1.218  21.602  0.00  0.00    -0.015 C 
ATOM     40  C   UNL     1       9.549  -0.302  21.473  0.00  0.00    +0.007 C 
ATOM     41  C   UNL     1       9.944   1.663  22.972  0.00  0.00    +0.007 C 
ENDBRANCH  38  39
ENDBRANCH  35  38
ENDBRANCH  32  35
ENDBRANCH  31  32
BRANCH  31  42
ATOM     42  C   UNL     1       6.727   4.821  24.618  0.00  0.00    +0.028 C 
BRANCH  42  43
ATOM     43  C   UNL     1       8.171   4.732  25.177  0.00  0.00    -0.009 C 
ATOM     44  C   UNL     1       8.324   5.709  26.366  0.00  0.00    +0.003 C 
ATOM     45  C   UNL     1       8.778   7.108  25.963  0.00  0.00    +0.000 C 
ATOM     46  C   UNL     1      10.116   7.031  25.247  0.00  0.00    +0.000 C 
ATOM     47  C   UNL     1       9.960   6.241  23.963  0.00  0.00    +0.000 C 
ATOM     48  C   UNL     1       9.360   4.853  24.197  0.00  0.00    +0.003 C 
ENDBRANCH  42  43
ENDBRANCH  31  42
ENDBRANCH  28  31
ENDBRANCH   1  27
BRANCH   1  49
ATOM     49  C   UNL     1       7.094   0.499  27.015  0.00  0.00    +0.086 C 
BRANCH  49  50
ATOM     50  C   UNL     1       7.705  -0.648  26.278  0.00  0.00    +0.038 A 
ATOM     51  N   UNL     1       8.143  -0.574  24.979  0.00  0.00    -0.348 N 
ATOM     52  H   UNL     1       8.031   0.211  24.342  0.00  0.00    +0.166 HD
ATOM     53  C   UNL     1       8.814  -1.721  24.694  0.00  0.00    +0.196 A 
ATOM     54  N   UNL     1       8.735  -2.566  25.693  0.00  0.00    -0.244 NA
ATOM     55  C   UNL     1       8.032  -1.927  26.676  0.00  0.00    +0.133 A 
ENDBRANCH  49  50
ENDBRANCH   1  49
TORSDOF 21
ENDMDL
MODEL 8
REMARK VINA RESULT:      -5.9      3.212      8.561
REMARK  Name = 
REMARK  26 active torsions:
REMARK  status: ('A' for Active; 'I' for Inactive)
REMARK    1  A    between atoms: C_1  and  O_2
REMARK    2  A    between atoms: O_2  and  C_3
REMARK    3  A    between atoms: C_6  and  C_7
REMARK    4  A    between atoms: C_7  and  C_8
REMARK    5  A    between atoms: C_8  and  N_10
REMARK    6  A    between atoms: C_8  and  C_18
REMARK    7  A    between atoms: C_11  and  C_13
REMARK    8  A    between atoms: C_13  and  C_14
REMARK    9  A    between atoms: C_14  and  C_15
REMARK   10  A    between atoms: C_14  and  C_16
REMARK   11  A    between atoms: C_14  and  N_17
REMARK   12  A    between atoms: N_20  and  C_21
REMARK   13  A    between atoms: C_21  and  C_23
REMARK   14  A    between atoms: C_21  and  C_29
REMARK   15  A    between atoms: C_23  and  C_24
REMARK   16  A    between atoms: N_31  and  C_32
REMARK   17  A    between atoms: C_32  and  C_34
REMARK   18  A    between atoms: C_32  and  C_41
REMARK   19  A    between atoms: C_34  and  C_35
REMARK   20  A    between atoms: C_41  and  O_43
REMARK   21  A    between atoms: C_41  and  C_44
REMARK   22  A    between atoms: C_44  and  O_46
REMARK   23  A    between atoms: C_44  and  C_47
REMARK   24  A    between atoms: C_47  and  C_48
REMARK   25  A    between atoms: C_48  and  C_49
REMARK   26  A    between atoms: C_48  and  C_50
REMARK                            x       y       z     vdW  Elec       q    Type
REMARK                         _______ _______ _______ _____ _____    ______ ____
ROOT
ATOM      1  C   UNL     1       6.769   2.498  28.298  0.00  0.00    +0.165 C 
ENDROOT
BRANCH   1   3
ATOM      2  C   UNL     1       6.893   4.555  26.793  0.00  0.00    +0.234 C 
ATOM      3  N   UNL     1       6.714   3.198  26.985  0.00  0.00    -0.302 N 
ATOM      4  H   UNL     1       6.674   2.593  26.164  0.00  0.00    +0.150 HD
ATOM      5  O   UNL     1       7.011   5.346  27.727  0.00  0.00    -0.274 OA
BRANCH   2   6
ATOM      6  C   UNL     1       6.818   5.017  25.311  0.00  0.00    +0.163 C 
BRANCH   6   7
ATOM      7  N   UNL     1       5.419   5.102  24.874  0.00  0.00    -0.304 N 
ATOM      8  H   UNL     1       4.695   5.124  25.583  0.00  0.00    +0.149 HD
ATOM      9  C   UNL     1       5.076   4.846  23.571  0.00  0.00    +0.215 C 
ATOM     10  O   UNL     1       5.901   4.432  22.760  0.00  0.00    -0.276 OA
BRANCH   9  11
ATOM     11  C   UNL     1       3.614   5.086  23.196  0.00  0.00    +0.117 C 
BRANCH  11  12
ATOM     12  C   UNL     1       2.803   3.771  23.145  0.00  0.00    +0.019 C 
ATOM     13  C   UNL     1       2.356   3.429  21.717  0.00  0.00    +0.027 C 
ATOM     14  C   UNL     1       1.537   3.942  23.993  0.00  0.00    +0.027 C 
BRANCH  12  15
ATOM     15  N   UNL     1       3.605   2.625  23.610  0.00  0.00    -0.325 NA
ATOM     16  H   UNL     1       3.030   1.780  23.589  0.00  0.00    +0.119 HD
ATOM     17  H   UNL     1       4.338   2.417  22.921  0.00  0.00    +0.119 HD
ENDBRANCH  12  15
ENDBRANCH  11  12
ENDBRANCH   9  11
ENDBRANCH   6   7
BRANCH   6  18
ATOM     18  C   UNL     1       7.534   6.369  25.122  0.00  0.00    +0.067 C 
BRANCH  18  22
ATOM     19  C   UNL     1      11.776   6.005  24.230  0.00  0.00    +0.120 A 
ATOM     20  C   UNL     1      10.836   5.241  23.538  0.00  0.00    +0.046 A 
ATOM     21  C   UNL     1       9.470   5.362  23.811  0.00  0.00    +0.007 A 
ATOM     22  C   UNL     1       9.011   6.265  24.779  0.00  0.00    -0.045 A 
ATOM     23  C   UNL     1       9.960   7.033  25.470  0.00  0.00    +0.007 A 
ATOM     24  C   UNL     1      11.331   6.907  25.196  0.00  0.00    +0.046 A 
BRANCH  19  26
ATOM     25  C   UNL     1      13.342   5.487  22.513  0.00  0.00    +0.277 C 
ATOM     26  O   UNL     1      13.077   5.768  23.882  0.00  0.00    -0.495 OA
ENDBRANCH  19  26
ENDBRANCH  18  22
ENDBRANCH   6  18
ENDBRANCH   2   6
ENDBRANCH   1   3
BRANCH   1  27
ATOM     27  C   UNL     1       7.435   1.102  28.046  0.00  0.00    +0.234 C 
ATOM     28  N   UNL     1       7.560   0.681  26.731  0.00  0.00    -0.308 N 
ATOM     29  H   UNL     1       6.970   1.093  26.019  0.00  0.00    +0.149 HD
ATOM     30  O   UNL     1       7.895   0.458  28.993  0.00  0.00    -0.274 OA
BRANCH  28  31
ATOM     31  C   UNL     1       8.353  -0.519  26.355  0.00  0.00    +0.104 C 
BRANCH  31  32
ATOM     32  C   UNL     1       9.557  -0.146  25.423  0.00  0.00    +0.163 C 
BRANCH  32  33
ATOM     33  O   UNL     1       9.910  -1.275  24.610  0.00  0.00    -0.387 OA
ATOM     34  H   UNL     1      10.783  -1.601  24.893  0.00  0.00    +0.210 HD
ENDBRANCH  32  33
BRANCH  32  35
ATOM     35  C   UNL     1       9.255   1.024  24.455  0.00  0.00    +0.145 C 
BRANCH  35  36
ATOM     36  O   UNL     1       9.156   2.259  25.148  0.00  0.00    -0.389 OA
ATOM     37  H   UNL     1       9.950   2.351  25.702  0.00  0.00    +0.210 HD
ENDBRANCH  35  36
BRANCH  35  38
ATOM     38  C   UNL     1      10.318   1.216  23.353  0.00  0.00    +0.037 C 
BRANCH  38  39
ATOM     39  C   UNL     1       9.712   1.265  21.928  0.00  0.00    -0.015 C 
ATOM     40  C   UNL     1       8.415   2.075  21.882  0.00  0.00    +0.007 C 
ATOM     41  C   UNL     1       9.459  -0.146  21.392  0.00  0.00    +0.007 C 
ENDBRANCH  38  39
ENDBRANCH  35  38
ENDBRANCH  32  35
ENDBRANCH  31  32
BRANCH  31  42
ATOM     42  C   UNL     1       7.414  -1.670  25.913  0.00  0.00    +0.028 C 
BRANCH  42  43
ATOM     43  C   UNL     1       6.271  -1.362  24.911  0.00  0.00    -0.009 C 
ATOM     44  C   UNL     1       5.086  -2.319  25.172  0.00  0.00    +0.003 C 
ATOM     45  C   UNL     1       5.157  -3.622  24.384  0.00  0.00    +0.000 C 
ATOM     46  C   UNL     1       5.198  -3.325  22.894  0.00  0.00    +0.000 C 
ATOM     47  C   UNL     1       6.460  -2.551  22.565  0.00  0.00    +0.000 C 
ATOM     48  C   UNL     1       6.603  -1.280  23.404  0.00  0.00    +0.003 C 
ENDBRANCH  42  43
ENDBRANCH  31  42
ENDBRANCH  28  31
ENDBRANCH   1  27
BRANCH   1  49
ATOM     49  C   UNL     1       5.371   2.323  28.931  0.00  0.00    +0.086 C 
BRANCH  49  50
ATOM     50  C   UNL     1       4.371   1.720  27.999  0.00  0.00    +0.038 A 
ATOM     51  N   UNL     1       4.030   0.391  28.003  0.00  0.00    -0.348 N 
ATOM     52  H   UNL     1       4.460  -0.348  28.554  0.00  0.00    +0.166 HD
ATOM     53  C   UNL     1       2.964   0.227  27.176  0.00  0.00    +0.196 A 
ATOM     54  N   UNL     1       2.676   1.348  26.561  0.00  0.00    -0.244 NA
ATOM     55  C   UNL     1       3.552   2.280  27.043  0.00  0.00    +0.133 A 
ENDBRANCH  49  50
ENDBRANCH   1  49
TORSDOF 21
ENDMDL
MODEL 9
REMARK VINA RESULT:      -5.8      2.707      7.593
REMARK  Name = 
REMARK  26 active torsions:
REMARK  status: ('A' for Active; 'I' for Inactive)
REMARK    1  A    between atoms: C_1  and  O_2
REMARK    2  A    between atoms: O_2  and  C_3
REMARK    3  A    between atoms: C_6  and  C_7
REMARK    4  A    between atoms: C_7  and  C_8
REMARK    5  A    between atoms: C_8  and  N_10
REMARK    6  A    between atoms: C_8  and  C_18
REMARK    7  A    between atoms: C_11  and  C_13
REMARK    8  A    between atoms: C_13  and  C_14
REMARK    9  A    between atoms: C_14  and  C_15
REMARK   10  A    between atoms: C_14  and  C_16
REMARK   11  A    between atoms: C_14  and  N_17
REMARK   12  A    between atoms: N_20  and  C_21
REMARK   13  A    between atoms: C_21  and  C_23
REMARK   14  A    between atoms: C_21  and  C_29
REMARK   15  A    between atoms: C_23  and  C_24
REMARK   16  A    between atoms: N_31  and  C_32
REMARK   17  A    between atoms: C_32  and  C_34
REMARK   18  A    between atoms: C_32  and  C_41
REMARK   19  A    between atoms: C_34  and  C_35
REMARK   20  A    between atoms: C_41  and  O_43
REMARK   21  A    between atoms: C_41  and  C_44
REMARK   22  A    between atoms: C_44  and  O_46
REMARK   23  A    between atoms: C_44  and  C_47
REMARK   24  A    between atoms: C_47  and  C_48
REMARK   25  A    between atoms: C_48  and  C_49
REMARK   26  A    between atoms: C_48  and  C_50
REMARK                            x       y       z     vdW  Elec       q    Type
REMARK                         _______ _______ _______ _____ _____    ______ ____
ROOT
ATOM      1  C   UNL     1       6.226  -1.815  27.021  0.00  0.00    +0.165 C 
ENDROOT
BRANCH   1   3
ATOM      2  C   UNL     1       6.692   0.688  26.871  0.00  0.00    +0.234 C 
ATOM      3  N   UNL     1       5.970  -0.437  26.521  0.00  0.00    -0.302 N 
ATOM      4  H   UNL     1       5.293  -0.362  25.761  0.00  0.00    +0.150 HD
ATOM      5  O   UNL     1       7.568   0.672  27.734  0.00  0.00    -0.274 OA
BRANCH   2   6
ATOM      6  C   UNL     1       6.232   1.999  26.173  0.00  0.00    +0.163 C 
BRANCH   6   7
ATOM      7  N   UNL     1       7.347   2.597  25.427  0.00  0.00    -0.304 N 
ATOM      8  H   UNL     1       7.843   2.019  24.759  0.00  0.00    +0.149 HD
ATOM      9  C   UNL     1       7.903   3.783  25.832  0.00  0.00    +0.215 C 
ATOM     10  O   UNL     1       7.569   4.323  26.884  0.00  0.00    -0.276 OA
BRANCH   9  11
ATOM     11  C   UNL     1       8.971   4.379  24.916  0.00  0.00    +0.117 C 
BRANCH  11  12
ATOM     12  C   UNL     1       8.587   5.789  24.413  0.00  0.00    +0.019 C 
ATOM     13  C   UNL     1       7.205   5.802  23.744  0.00  0.00    +0.027 C 
ATOM     14  C   UNL     1       9.610   6.232  23.360  0.00  0.00    +0.027 C 
BRANCH  12  15
ATOM     15  N   UNL     1       8.513   6.755  25.524  0.00  0.00    -0.325 NA
ATOM     16  H   UNL     1       7.815   7.469  25.306  0.00  0.00    +0.119 HD
ATOM     17  H   UNL     1       8.116   6.297  26.353  0.00  0.00    +0.119 HD
ENDBRANCH  12  15
ENDBRANCH  11  12
ENDBRANCH   9  11
ENDBRANCH   6   7
BRANCH   6  18
ATOM     18  C   UNL     1       5.032   1.732  25.244  0.00  0.00    +0.067 C 
BRANCH  18  22
ATOM     19  C   UNL     1       3.549   5.314  23.270  0.00  0.00    +0.120 A 
ATOM     20  C   UNL     1       3.959   4.209  22.523  0.00  0.00    +0.046 A 
ATOM     21  C   UNL     1       4.424   3.050  23.152  0.00  0.00    +0.007 A 
ATOM     22  C   UNL     1       4.479   2.966  24.549  0.00  0.00    -0.045 A 
ATOM     23  C   UNL     1       4.063   4.079  25.295  0.00  0.00    +0.007 A 
ATOM     24  C   UNL     1       3.599   5.242  24.662  0.00  0.00    +0.046 A 
BRANCH  19  26
ATOM     25  C   UNL     1       2.565   6.119  21.258  0.00  0.00    +0.277 C 
ATOM     26  O   UNL     1       3.142   6.388  22.529  0.00  0.00    -0.495 OA
ENDBRANCH  19  26
ENDBRANCH  18  22
ENDBRANCH   6  18
ENDBRANCH   2   6
ENDBRANCH   1   3
BRANCH   1  27
ATOM     27  C   UNL     1       7.368  -2.420  26.134  0.00  0.00    +0.234 C 
ATOM     28  N   UNL     1       7.407  -2.045  24.800  0.00  0.00    -0.308 N 
ATOM     29  H   UNL     1       6.572  -1.675  24.363  0.00  0.00    +0.149 HD
ATOM     30  O   UNL     1       8.233  -3.136  26.645  0.00  0.00    -0.274 OA
BRANCH  28  31
ATOM     31  C   UNL     1       8.552  -2.386  23.914  0.00  0.00    +0.104 C 
BRANCH  31  32
ATOM     32  C   UNL     1       9.722  -1.353  24.061  0.00  0.00    +0.163 C 
BRANCH  32  33
ATOM     33  O   UNL     1      10.568  -1.408  22.902  0.00  0.00    -0.387 OA
ATOM     34  H   UNL     1      11.206  -0.674  22.948  0.00  0.00    +0.210 HD
ENDBRANCH  32  33
BRANCH  32  35
ATOM     35  C   UNL     1       9.244   0.114  24.196  0.00  0.00    +0.145 C 
BRANCH  35  36
ATOM     36  O   UNL     1       9.776   0.728  25.361  0.00  0.00    -0.389 OA
ATOM     37  H   UNL     1      10.718   0.492  25.414  0.00  0.00    +0.210 HD
ENDBRANCH  35  36
BRANCH  35  38
ATOM     38  C   UNL     1       9.632   1.012  23.003  0.00  0.00    +0.037 C 
BRANCH  38  39
ATOM     39  C   UNL     1       8.442   1.311  22.057  0.00  0.00    -0.015 C 
ATOM     40  C   UNL     1       8.228   2.814  21.860  0.00  0.00    +0.007 C 
ATOM     41  C   UNL     1       7.154   0.670  22.577  0.00  0.00    +0.007 C 
ENDBRANCH  38  39
ENDBRANCH  35  38
ENDBRANCH  32  35
ENDBRANCH  31  32
BRANCH  31  42
ATOM     42  C   UNL     1       8.050  -2.724  22.487  0.00  0.00    +0.028 C 
BRANCH  42  43
ATOM     43  C   UNL     1       7.379  -4.100  22.235  0.00  0.00    -0.009 C 
ATOM     44  C   UNL     1       5.898  -3.888  21.849  0.00  0.00    +0.003 C 
ATOM     45  C   UNL     1       4.945  -3.865  23.039  0.00  0.00    +0.000 C 
ATOM     46  C   UNL     1       5.046  -5.173  23.808  0.00  0.00    +0.000 C 
ATOM     47  C   UNL     1       6.443  -5.322  24.375  0.00  0.00    +0.000 C 
ATOM     48  C   UNL     1       7.528  -5.208  23.302  0.00  0.00    +0.003 C 
ENDBRANCH  42  43
ENDBRANCH  31  42
ENDBRANCH  28  31
ENDBRANCH   1  27
BRANCH   1  49
ATOM     49  C   UNL     1       4.966  -2.708  26.961  0.00  0.00    +0.086 C 
BRANCH  49  50
ATOM     50  C   UNL     1       4.971  -3.804  27.975  0.00  0.00    +0.038 A 
ATOM     51  N   UNL     1       5.822  -4.880  27.931  0.00  0.00    -0.348 N 
ATOM     52  H   UNL     1       6.473  -5.112  27.185  0.00  0.00    +0.166 HD
ATOM     53  C   UNL     1       5.693  -5.568  29.096  0.00  0.00    +0.196 A 
ATOM     54  N   UNL     1       4.733  -5.062  29.831  0.00  0.00    -0.244 NA
ATOM     55  C   UNL     1       4.259  -3.980  29.141  0.00  0.00    +0.133 A 
ENDBRANCH  49  50
ENDBRANCH   1  49
TORSDOF 21
ENDMDL
