MODEL 1
REMARK VINA RESULT:      -5.4      0.000      0.000
REMARK  Name = 
REMARK  12 active torsions:
REMARK  status: ('A' for Active; 'I' for Inactive)
REMARK    1  A    between atoms: C_2  and  O_3
REMARK    2  A    between atoms: C_4  and  O_6
REMARK    3  A    between atoms: C_7  and  C_9
REMARK    4  A    between atoms: C_9  and  O_10
REMARK    5  A    between atoms: C_12  and  O_14
REMARK    6  A    between atoms: O_14  and  C_15
REMARK    7  A    between atoms: C_15  and  C_16
REMARK    8  A    between atoms: C_16  and  C_17
REMARK    9  A    between atoms: C_17  and  C_18
REMARK   10  A    between atoms: C_18  and  C_19
REMARK   11  A    between atoms: C_19  and  C_20
REMARK   12  A    between atoms: C_21  and  O_23
REMARK                            x       y       z     vdW  Elec       q    Type
REMARK                         _______ _______ _______ _____ _____    ______ ____
ROOT
ATOM      1  C   UNL     1       8.675   1.471  21.562  0.00  0.00    +0.179 C 
ATOM      2  C   UNL     1       7.704   2.235  22.465  0.00  0.00    +0.201 C 
ATOM      3  C   UNL     1       8.147   2.176  23.931  0.00  0.00    +0.282 C 
ATOM      4  O   UNL     1       8.325   0.828  24.388  0.00  0.00    -0.341 OA
ATOM      5  C   UNL     1       9.084  -0.075  23.559  0.00  0.00    +0.178 C 
ATOM      6  C   UNL     1       8.806   0.029  22.048  0.00  0.00    +0.177 C 
ENDROOT
BRANCH   1   7
ATOM      7  O   UNL     1       9.983   2.052  21.486  0.00  0.00    -0.386 OA
ATOM      8  H   UNL     1      10.129   2.369  20.574  0.00  0.00    +0.210 HD
ENDBRANCH   1   7
BRANCH   2   9
ATOM      9  O   UNL     1       6.385   1.676  22.324  0.00  0.00    -0.384 OA
ATOM     10  H   UNL     1       5.756   2.412  22.197  0.00  0.00    +0.210 HD
ENDBRANCH   2   9
BRANCH   6  11
ATOM     11  O   UNL     1       9.766  -0.687  21.262  0.00  0.00    -0.386 OA
ATOM     12  H   UNL     1      10.234  -0.022  20.720  0.00  0.00    +0.210 HD
ENDBRANCH   6  11
BRANCH   3  13
ATOM     13  O   UNL     1       9.269   3.035  24.171  0.00  0.00    -0.349 OA
BRANCH  13  14
ATOM     14  C   UNL     1       8.849   4.359  24.522  0.00  0.00    +0.163 C 
BRANCH  14  15
ATOM     15  C   UNL     1       9.662   5.426  23.782  0.00  0.00    +0.028 C 
BRANCH  15  16
ATOM     16  C   UNL     1      10.540   6.277  24.711  0.00  0.00    +0.002 C 
BRANCH  16  17
ATOM     17  C   UNL     1      12.014   6.230  24.286  0.00  0.00    -0.000 C 
BRANCH  17  18
ATOM     18  C   UNL     1      12.283   5.101  23.289  0.00  0.00    -0.003 C 
ATOM     19  C   UNL     1      13.249   5.526  22.193  0.00  0.00    +0.004 C 
ENDBRANCH  17  18
ENDBRANCH  16  17
ENDBRANCH  15  16
ENDBRANCH  14  15
ENDBRANCH  13  14
ENDBRANCH   3  13
BRANCH   5  20
ATOM     20  C   UNL     1      10.561  -0.089  23.953  0.00  0.00    +0.190 C 
BRANCH  20  21
ATOM     21  O   UNL     1      10.735   0.544  25.230  0.00  0.00    -0.392 OA
ATOM     22  H   UNL     1       9.852   0.571  25.641  0.00  0.00    +0.210 HD
ENDBRANCH  20  21
ENDBRANCH   5  20
TORSDOF 11
ENDMDL
MODEL 2
REMARK VINA RESULT:      -5.3      3.049      6.839
REMARK  Name = 
REMARK  12 active torsions:
REMARK  status: ('A' for Active; 'I' for Inactive)
REMARK    1  A    between atoms: C_2  and  O_3
REMARK    2  A    between atoms: C_4  and  O_6
REMARK    3  A    between atoms: C_7  and  C_9
REMARK    4  A    between atoms: C_9  and  O_10
REMARK    5  A    between atoms: C_12  and  O_14
REMARK    6  A    between atoms: O_14  and  C_15
REMARK    7  A    between atoms: C_15  and  C_16
REMARK    8  A    between atoms: C_16  and  C_17
REMARK    9  A    between atoms: C_17  and  C_18
REMARK   10  A    between atoms: C_18  and  C_19
REMARK   11  A    between atoms: C_19  and  C_20
REMARK   12  A    between atoms: C_21  and  O_23
REMARK                            x       y       z     vdW  Elec       q    Type
REMARK                         _______ _______ _______ _____ _____    ______ ____
ROOT
ATOM      1  C   UNL     1       8.967  -0.038  21.812  0.00  0.00    +0.179 C 
ATOM      2  C   UNL     1       9.403  -1.355  22.458  0.00  0.00    +0.201 C 
ATOM      3  C   UNL     1       9.610  -1.191  23.967  0.00  0.00    +0.282 C 
ATOM      4  O   UNL     1      10.532  -0.136  24.274  0.00  0.00    -0.341 OA
ATOM      5  C   UNL     1      10.356   1.133  23.613  0.00  0.00    +0.178 C 
ATOM      6  C   UNL     1       9.994   1.051  22.119  0.00  0.00    +0.177 C 
ENDROOT
BRANCH   1   7
ATOM      7  O   UNL     1       7.673   0.417  22.228  0.00  0.00    -0.386 OA
ATOM      8  H   UNL     1       7.733   1.369  22.441  0.00  0.00    +0.210 HD
ENDBRANCH   1   7
BRANCH   2   9
ATOM      9  O   UNL     1      10.620  -1.809  21.838  0.00  0.00    -0.384 OA
ATOM     10  H   UNL     1      11.331  -1.779  22.506  0.00  0.00    +0.210 HD
ENDBRANCH   2   9
BRANCH   6  11
ATOM     11  O   UNL     1       9.571   2.311  21.586  0.00  0.00    -0.386 OA
ATOM     12  H   UNL     1       9.567   2.943  22.332  0.00  0.00    +0.210 HD
ENDBRANCH   6  11
BRANCH   3  13
ATOM     13  O   UNL     1       8.358  -1.101  24.659  0.00  0.00    -0.349 OA
BRANCH  13  14
ATOM     14  C   UNL     1       7.601  -2.311  24.529  0.00  0.00    +0.163 C 
BRANCH  14  15
ATOM     15  C   UNL     1       8.331  -3.504  25.157  0.00  0.00    +0.028 C 
BRANCH  15  16
ATOM     16  C   UNL     1       8.375  -4.740  24.246  0.00  0.00    +0.002 C 
BRANCH  16  17
ATOM     17  C   UNL     1       7.508  -4.543  22.994  0.00  0.00    -0.000 C 
BRANCH  17  18
ATOM     18  C   UNL     1       7.184  -5.874  22.312  0.00  0.00    -0.003 C 
ATOM     19  C   UNL     1       6.336  -5.683  21.063  0.00  0.00    +0.004 C 
ENDBRANCH  17  18
ENDBRANCH  16  17
ENDBRANCH  15  16
ENDBRANCH  14  15
ENDBRANCH  13  14
ENDBRANCH   3  13
BRANCH   5  20
ATOM     20  C   UNL     1       9.494   2.083  24.445  0.00  0.00    +0.190 C 
BRANCH  20  21
ATOM     21  O   UNL     1       9.738   3.442  24.050  0.00  0.00    -0.392 OA
ATOM     22  H   UNL     1      10.256   3.844  24.770  0.00  0.00    +0.210 HD
ENDBRANCH  20  21
ENDBRANCH   5  20
TORSDOF 11
ENDMDL
MODEL 3
REMARK VINA RESULT:      -5.3      4.972      7.210
REMARK  Name = 
REMARK  12 active torsions:
REMARK  status: ('A' for Active; 'I' for Inactive)
REMARK    1  A    between atoms: C_2  and  O_3
REMARK    2  A    between atoms: C_4  and  O_6
REMARK    3  A    between atoms: C_7  and  C_9
REMARK    4  A    between atoms: C_9  and  O_10
REMARK    5  A    between atoms: C_12  and  O_14
REMARK    6  A    between atoms: O_14  and  C_15
REMARK    7  A    between atoms: C_15  and  C_16
REMARK    8  A    between atoms: C_16  and  C_17
REMARK    9  A    between atoms: C_17  and  C_18
REMARK   10  A    between atoms: C_18  and  C_19
REMARK   11  A    between atoms: C_19  and  C_20
REMARK   12  A    between atoms: C_21  and  O_23
REMARK                            x       y       z     vdW  Elec       q    Type
REMARK                         _______ _______ _______ _____ _____    ______ ____
ROOT
ATOM      1  C   UNL     1       5.257  -4.603  23.874  0.00  0.00    +0.179 C 
ATOM      2  C   UNL     1       6.638  -4.373  24.492  0.00  0.00    +0.201 C 
ATOM      3  C   UNL     1       7.743  -4.486  23.437  0.00  0.00    +0.282 C 
ATOM      4  O   UNL     1       7.693  -5.736  22.734  0.00  0.00    -0.341 OA
ATOM      5  C   UNL     1       6.418  -6.179  22.229  0.00  0.00    +0.178 C 
ATOM      6  C   UNL     1       5.223  -5.960  23.175  0.00  0.00    +0.177 C 
ENDROOT
BRANCH   1   7
ATOM      7  O   UNL     1       4.859  -3.592  22.939  0.00  0.00    -0.386 OA
ATOM      8  H   UNL     1       4.103  -3.101  23.316  0.00  0.00    +0.210 HD
ENDBRANCH   1   7
BRANCH   2   9
ATOM      9  O   UNL     1       6.855  -5.335  25.541  0.00  0.00    -0.384 OA
ATOM     10  H   UNL     1       6.080  -5.927  25.575  0.00  0.00    +0.210 HD
ENDBRANCH   2   9
BRANCH   6  11
ATOM     11  O   UNL     1       3.964  -6.167  22.526  0.00  0.00    -0.386 OA
ATOM     12  H   UNL     1       3.355  -5.486  22.876  0.00  0.00    +0.210 HD
ENDBRANCH   6  11
BRANCH   3  13
ATOM     13  O   UNL     1       7.773  -3.331  22.589  0.00  0.00    -0.349 OA
BRANCH  13  14
ATOM     14  C   UNL     1       8.087  -2.146  23.330  0.00  0.00    +0.163 C 
BRANCH  14  15
ATOM     15  C   UNL     1       9.595  -2.006  23.562  0.00  0.00    +0.028 C 
BRANCH  15  16
ATOM     16  C   UNL     1      10.346  -1.422  22.356  0.00  0.00    +0.002 C 
BRANCH  16  17
ATOM     17  C   UNL     1       9.444  -0.490  21.534  0.00  0.00    -0.000 C 
BRANCH  17  18
ATOM     18  C   UNL     1       9.728   0.983  21.830  0.00  0.00    -0.003 C 
ATOM     19  C   UNL     1       8.469   1.834  21.754  0.00  0.00    +0.004 C 
ENDBRANCH  17  18
ENDBRANCH  16  17
ENDBRANCH  15  16
ENDBRANCH  14  15
ENDBRANCH  13  14
ENDBRANCH   3  13
BRANCH   5  20
ATOM     20  C   UNL     1       6.201  -5.728  20.784  0.00  0.00    +0.190 C 
BRANCH  20  21
ATOM     21  O   UNL     1       5.800  -4.349  20.755  0.00  0.00    -0.392 OA
ATOM     22  H   UNL     1       6.186  -3.938  21.550  0.00  0.00    +0.210 HD
ENDBRANCH  20  21
ENDBRANCH   5  20
TORSDOF 11
ENDMDL
MODEL 4
REMARK VINA RESULT:      -5.3      4.689      6.985
REMARK  Name = 
REMARK  12 active torsions:
REMARK  status: ('A' for Active; 'I' for Inactive)
REMARK    1  A    between atoms: C_2  and  O_3
REMARK    2  A    between atoms: C_4  and  O_6
REMARK    3  A    between atoms: C_7  and  C_9
REMARK    4  A    between atoms: C_9  and  O_10
REMARK    5  A    between atoms: C_12  and  O_14
REMARK    6  A    between atoms: O_14  and  C_15
REMARK    7  A    between atoms: C_15  and  C_16
REMARK    8  A    between atoms: C_16  and  C_17
REMARK    9  A    between atoms: C_17  and  C_18
REMARK   10  A    between atoms: C_18  and  C_19
REMARK   11  A    between atoms: C_19  and  C_20
REMARK   12  A    between atoms: C_21  and  O_23
REMARK                            x       y       z     vdW  Elec       q    Type
REMARK                         _______ _______ _______ _____ _____    ______ ____
ROOT
ATOM      1  C   UNL     1       8.771  -4.341  26.535  0.00  0.00    +0.179 C 
ATOM      2  C   UNL     1       9.390  -4.592  25.159  0.00  0.00    +0.201 C 
ATOM      3  C   UNL     1       8.343  -4.466  24.048  0.00  0.00    +0.282 C 
ATOM      4  O   UNL     1       7.214  -5.322  24.270  0.00  0.00    -0.341 OA
ATOM      5  C   UNL     1       6.612  -5.326  25.580  0.00  0.00    +0.178 C 
ATOM      6  C   UNL     1       7.603  -5.300  26.759  0.00  0.00    +0.177 C 
ENDROOT
BRANCH   1   7
ATOM      7  O   UNL     1       8.309  -2.998  26.732  0.00  0.00    -0.386 OA
ATOM      8  H   UNL     1       8.879  -2.570  27.401  0.00  0.00    +0.210 HD
ENDBRANCH   1   7
BRANCH   2   9
ATOM      9  O   UNL     1       9.980  -5.905  25.136  0.00  0.00    -0.384 OA
ATOM     10  H   UNL     1      10.164  -6.171  26.057  0.00  0.00    +0.210 HD
ENDBRANCH   2   9
BRANCH   6  11
ATOM     11  O   UNL     1       6.960  -5.034  28.010  0.00  0.00    -0.386 OA
ATOM     12  H   UNL     1       6.122  -4.576  27.802  0.00  0.00    +0.210 HD
ENDBRANCH   6  11
BRANCH   3  13
ATOM     13  O   UNL     1       8.006  -3.095  23.803  0.00  0.00    -0.349 OA
BRANCH  13  14
ATOM     14  C   UNL     1       9.141  -2.352  23.342  0.00  0.00    +0.163 C 
BRANCH  14  15
ATOM     15  C   UNL     1       8.850  -1.638  22.018  0.00  0.00    +0.028 C 
BRANCH  15  16
ATOM     16  C   UNL     1       9.884  -0.558  21.667  0.00  0.00    +0.002 C 
BRANCH  16  17
ATOM     17  C   UNL     1       9.227   0.822  21.529  0.00  0.00    -0.000 C 
BRANCH  17  18
ATOM     18  C   UNL     1      10.002   1.899  22.290  0.00  0.00    -0.003 C 
ATOM     19  C   UNL     1      10.427   1.427  23.672  0.00  0.00    +0.004 C 
ENDBRANCH  17  18
ENDBRANCH  16  17
ENDBRANCH  15  16
ENDBRANCH  14  15
ENDBRANCH  13  14
ENDBRANCH   3  13
BRANCH   5  20
ATOM     20  C   UNL     1       5.461  -4.325  25.670  0.00  0.00    +0.190 C 
BRANCH  20  21
ATOM     21  O   UNL     1       5.072  -3.904  24.353  0.00  0.00    -0.392 OA
ATOM     22  H   UNL     1       4.145  -3.609  24.426  0.00  0.00    +0.210 HD
ENDBRANCH  20  21
ENDBRANCH   5  20
TORSDOF 11
ENDMDL
MODEL 5
REMARK VINA RESULT:      -5.1      2.811      6.830
REMARK  Name = 
REMARK  12 active torsions:
REMARK  status: ('A' for Active; 'I' for Inactive)
REMARK    1  A    between atoms: C_2  and  O_3
REMARK    2  A    between atoms: C_4  and  O_6
REMARK    3  A    between atoms: C_7  and  C_9
REMARK    4  A    between atoms: C_9  and  O_10
REMARK    5  A    between atoms: C_12  and  O_14
REMARK    6  A    between atoms: O_14  and  C_15
REMARK    7  A    between atoms: C_15  and  C_16
REMARK    8  A    between atoms: C_16  and  C_17
REMARK    9  A    between atoms: C_17  and  C_18
REMARK   10  A    between atoms: C_18  and  C_19
REMARK   11  A    between atoms: C_19  and  C_20
REMARK   12  A    between atoms: C_21  and  O_23
REMARK                            x       y       z     vdW  Elec       q    Type
REMARK                         _______ _______ _______ _____ _____    ______ ____
ROOT
ATOM      1  C   UNL     1      10.491   2.221  23.252  0.00  0.00    +0.179 C 
ATOM      2  C   UNL     1      10.329   0.789  23.765  0.00  0.00    +0.201 C 
ATOM      3  C   UNL     1       8.947   0.227  23.414  0.00  0.00    +0.282 C 
ATOM      4  O   UNL     1       7.886   1.068  23.886  0.00  0.00    -0.341 OA
ATOM      5  C   UNL     1       7.974   2.483  23.626  0.00  0.00    +0.178 C 
ATOM      6  C   UNL     1       9.373   3.099  23.811  0.00  0.00    +0.177 C 
ENDROOT
BRANCH   1   7
ATOM      7  O   UNL     1      10.495   2.333  21.823  0.00  0.00    -0.386 OA
ATOM      8  H   UNL     1       9.584   2.194  21.498  0.00  0.00    +0.210 HD
ENDBRANCH   1   7
BRANCH   2   9
ATOM      9  O   UNL     1      10.522   0.770  25.191  0.00  0.00    -0.384 OA
ATOM     10  H   UNL     1      10.348   1.667  25.533  0.00  0.00    +0.210 HD
ENDBRANCH   2   9
BRANCH   6  11
ATOM     11  O   UNL     1       9.461   4.429  23.286  0.00  0.00    -0.386 OA
ATOM     12  H   UNL     1       8.993   4.422  22.428  0.00  0.00    +0.210 HD
ENDBRANCH   6  11
BRANCH   3  13
ATOM     13  O   UNL     1       8.860  -0.110  22.023  0.00  0.00    -0.349 OA
BRANCH  13  14
ATOM     14  C   UNL     1       9.109  -1.504  21.806  0.00  0.00    +0.163 C 
BRANCH  14  15
ATOM     15  C   UNL     1       8.469  -2.370  22.897  0.00  0.00    +0.028 C 
BRANCH  15  16
ATOM     16  C   UNL     1       7.482  -3.411  22.349  0.00  0.00    +0.002 C 
BRANCH  16  17
ATOM     17  C   UNL     1       7.591  -4.740  23.110  0.00  0.00    -0.000 C 
BRANCH  17  18
ATOM     18  C   UNL     1       7.221  -5.932  22.226  0.00  0.00    -0.003 C 
ATOM     19  C   UNL     1       6.288  -5.535  21.092  0.00  0.00    +0.004 C 
ENDBRANCH  17  18
ENDBRANCH  16  17
ENDBRANCH  15  16
ENDBRANCH  14  15
ENDBRANCH  13  14
ENDBRANCH   3  13
BRANCH   5  20
ATOM     20  C   UNL     1       7.259   2.859  22.329  0.00  0.00    +0.190 C 
BRANCH  20  21
ATOM     21  O   UNL     1       8.058   2.478  21.198  0.00  0.00    -0.392 OA
ATOM     22  H   UNL     1       8.548   1.681  21.470  0.00  0.00    +0.210 HD
ENDBRANCH  20  21
ENDBRANCH   5  20
TORSDOF 11
ENDMDL
MODEL 6
REMARK VINA RESULT:      -5.1      3.570      5.008
REMARK  Name = 
REMARK  12 active torsions:
REMARK  status: ('A' for Active; 'I' for Inactive)
REMARK    1  A    between atoms: C_2  and  O_3
REMARK    2  A    between atoms: C_4  and  O_6
REMARK    3  A    between atoms: C_7  and  C_9
REMARK    4  A    between atoms: C_9  and  O_10
REMARK    5  A    between atoms: C_12  and  O_14
REMARK    6  A    between atoms: O_14  and  C_15
REMARK    7  A    between atoms: C_15  and  C_16
REMARK    8  A    between atoms: C_16  and  C_17
REMARK    9  A    between atoms: C_17  and  C_18
REMARK   10  A    between atoms: C_18  and  C_19
REMARK   11  A    between atoms: C_19  and  C_20
REMARK   12  A    between atoms: C_21  and  O_23
REMARK                            x       y       z     vdW  Elec       q    Type
REMARK                         _______ _______ _______ _____ _____    ______ ____
ROOT
ATOM      1  C   UNL     1       8.602  -3.107  23.409  0.00  0.00    +0.179 C 
ATOM      2  C   UNL     1       7.797  -1.828  23.645  0.00  0.00    +0.201 C 
ATOM      3  C   UNL     1       7.565  -1.588  25.141  0.00  0.00    +0.282 C 
ATOM      4  O   UNL     1       6.947  -2.713  25.780  0.00  0.00    -0.341 OA
ATOM      5  C   UNL     1       7.491  -4.023  25.522  0.00  0.00    +0.178 C 
ATOM      6  C   UNL     1       7.893  -4.292  24.061  0.00  0.00    +0.177 C 
ENDROOT
BRANCH   1   7
ATOM      7  O   UNL     1       9.949  -3.049  23.897  0.00  0.00    -0.386 OA
ATOM      8  H   UNL     1      10.491  -2.554  23.253  0.00  0.00    +0.210 HD
ENDBRANCH   1   7
BRANCH   2   9
ATOM      9  O   UNL     1       6.535  -1.927  22.959  0.00  0.00    -0.384 OA
ATOM     10  H   UNL     1       6.413  -2.855  22.682  0.00  0.00    +0.210 HD
ENDBRANCH   2   9
BRANCH   6  11
ATOM     11  O   UNL     1       8.666  -5.489  23.915  0.00  0.00    -0.386 OA
ATOM     12  H   UNL     1       9.456  -5.250  23.393  0.00  0.00    +0.210 HD
ENDBRANCH   6  11
BRANCH   3  13
ATOM     13  O   UNL     1       8.759  -1.124  25.785  0.00  0.00    -0.349 OA
BRANCH  13  14
ATOM     14  C   UNL     1       9.122   0.186  25.333  0.00  0.00    +0.163 C 
BRANCH  14  15
ATOM     15  C   UNL     1      10.608   0.269  24.972  0.00  0.00    +0.028 C 
BRANCH  15  16
ATOM     16  C   UNL     1      10.954   1.473  24.084  0.00  0.00    +0.002 C 
BRANCH  16  17
ATOM     17  C   UNL     1       9.698   2.058  23.422  0.00  0.00    -0.000 C 
BRANCH  17  18
ATOM     18  C   UNL     1       9.590   1.653  21.951  0.00  0.00    -0.003 C 
ATOM     19  C   UNL     1       8.151   1.672  21.458  0.00  0.00    +0.004 C 
ENDBRANCH  17  18
ENDBRANCH  16  17
ENDBRANCH  15  16
ENDBRANCH  14  15
ENDBRANCH  13  14
ENDBRANCH   3  13
BRANCH   5  20
ATOM     20  C   UNL     1       8.534  -4.412  26.571  0.00  0.00    +0.190 C 
BRANCH  20  21
ATOM     21  O   UNL     1       8.413  -5.806  26.891  0.00  0.00    -0.392 OA
ATOM     22  H   UNL     1       7.458  -5.986  26.962  0.00  0.00    +0.210 HD
ENDBRANCH  20  21
ENDBRANCH   5  20
TORSDOF 11
ENDMDL
MODEL 7
REMARK VINA RESULT:      -5.0      4.001      6.033
REMARK  Name = 
REMARK  12 active torsions:
REMARK  status: ('A' for Active; 'I' for Inactive)
REMARK    1  A    between atoms: C_2  and  O_3
REMARK    2  A    between atoms: C_4  and  O_6
REMARK    3  A    between atoms: C_7  and  C_9
REMARK    4  A    between atoms: C_9  and  O_10
REMARK    5  A    between atoms: C_12  and  O_14
REMARK    6  A    between atoms: O_14  and  C_15
REMARK    7  A    between atoms: C_15  and  C_16
REMARK    8  A    between atoms: C_16  and  C_17
REMARK    9  A    between atoms: C_17  and  C_18
REMARK   10  A    between atoms: C_18  and  C_19
REMARK   11  A    between atoms: C_19  and  C_20
REMARK   12  A    between atoms: C_21  and  O_23
REMARK                            x       y       z     vdW  Elec       q    Type
REMARK                         _______ _______ _______ _____ _____    ______ ____
ROOT
ATOM      1  C   UNL     1       7.547  -4.981  25.107  0.00  0.00    +0.179 C 
ATOM      2  C   UNL     1       8.985  -4.476  25.233  0.00  0.00    +0.201 C 
ATOM      3  C   UNL     1       9.194  -3.189  24.428  0.00  0.00    +0.282 C 
ATOM      4  O   UNL     1       8.821  -3.346  23.052  0.00  0.00    -0.341 OA
ATOM      5  C   UNL     1       7.553  -3.966  22.759  0.00  0.00    +0.178 C 
ATOM      6  C   UNL     1       7.198  -5.182  23.633  0.00  0.00    +0.177 C 
ENDROOT
BRANCH   1   7
ATOM      7  O   UNL     1       6.569  -4.115  25.698  0.00  0.00    -0.386 OA
ATOM      8  H   UNL     1       5.973  -4.655  26.254  0.00  0.00    +0.210 HD
ENDBRANCH   1   7
BRANCH   2   9
ATOM      9  O   UNL     1       9.890  -5.498  24.776  0.00  0.00    -0.384 OA
ATOM     10  H   UNL     1       9.371  -6.166  24.289  0.00  0.00    +0.210 HD
ENDBRANCH   2   9
BRANCH   6  11
ATOM     11  O   UNL     1       5.831  -5.585  23.485  0.00  0.00    -0.386 OA
ATOM     12  H   UNL     1       5.794  -6.535  23.714  0.00  0.00    +0.210 HD
ENDBRANCH   6  11
BRANCH   3  13
ATOM     13  O   UNL     1       8.591  -2.063  25.079  0.00  0.00    -0.349 OA
BRANCH  13  14
ATOM     14  C   UNL     1       8.943  -0.834  24.432  0.00  0.00    +0.163 C 
BRANCH  14  15
ATOM     15  C   UNL     1      10.206  -0.216  25.041  0.00  0.00    +0.028 C 
BRANCH  15  16
ATOM     16  C   UNL     1      10.563   1.153  24.444  0.00  0.00    +0.002 C 
BRANCH  16  17
ATOM     17  C   UNL     1       9.329   2.060  24.347  0.00  0.00    -0.000 C 
BRANCH  17  18
ATOM     18  C   UNL     1       9.075   2.524  22.912  0.00  0.00    -0.003 C 
ATOM     19  C   UNL     1       9.924   1.760  21.907  0.00  0.00    +0.004 C 
ENDBRANCH  17  18
ENDBRANCH  16  17
ENDBRANCH  15  16
ENDBRANCH  14  15
ENDBRANCH  13  14
ENDBRANCH   3  13
BRANCH   5  20
ATOM     20  C   UNL     1       6.444  -2.925  22.604  0.00  0.00    +0.190 C 
BRANCH  20  21
ATOM     21  O   UNL     1       5.510  -3.347  21.599  0.00  0.00    -0.392 OA
ATOM     22  H   UNL     1       5.346  -4.294  21.761  0.00  0.00    +0.210 HD
ENDBRANCH  20  21
ENDBRANCH   5  20
TORSDOF 11
ENDMDL
MODEL 8
REMARK VINA RESULT:      -5.0      4.606      6.742
REMARK  Name = 
REMARK  12 active torsions:
REMARK  status: ('A' for Active; 'I' for Inactive)
REMARK    1  A    between atoms: C_2  and  O_3
REMARK    2  A    between atoms: C_4  and  O_6
REMARK    3  A    between atoms: C_7  and  C_9
REMARK    4  A    between atoms: C_9  and  O_10
REMARK    5  A    between atoms: C_12  and  O_14
REMARK    6  A    between atoms: O_14  and  C_15
REMARK    7  A    between atoms: C_15  and  C_16
REMARK    8  A    between atoms: C_16  and  C_17
REMARK    9  A    between atoms: C_17  and  C_18
REMARK   10  A    between atoms: C_18  and  C_19
REMARK   11  A    between atoms: C_19  and  C_20
REMARK   12  A    between atoms: C_21  and  O_23
REMARK                            x       y       z     vdW  Elec       q    Type
REMARK                         _______ _______ _______ _____ _____    ______ ____
ROOT
ATOM      1  C   UNL     1       6.420  -4.397  25.701  0.00  0.00    +0.179 C 
ATOM      2  C   UNL     1       7.890  -4.537  26.103  0.00  0.00    +0.201 C 
ATOM      3  C   UNL     1       8.817  -4.275  24.911  0.00  0.00    +0.282 C 
ATOM      4  O   UNL     1       8.506  -5.113  23.790  0.00  0.00    -0.341 OA
ATOM      5  C   UNL     1       7.127  -5.222  23.386  0.00  0.00    +0.178 C 
ATOM      6  C   UNL     1       6.111  -5.337  24.537  0.00  0.00    +0.177 C 
ENDROOT
BRANCH   1   7
ATOM      7  O   UNL     1       6.038  -3.066  25.333  0.00  0.00    -0.386 OA
ATOM      8  H   UNL     1       6.588  -2.783  24.577  0.00  0.00    +0.210 HD
ENDBRANCH   1   7
BRANCH   2   9
ATOM      9  O   UNL     1       8.116  -5.859  26.625  0.00  0.00    -0.384 OA
ATOM     10  H   UNL     1       7.708  -5.910  27.510  0.00  0.00    +0.210 HD
ENDBRANCH   2   9
BRANCH   6  11
ATOM     11  O   UNL     1       4.759  -5.172  24.095  0.00  0.00    -0.386 OA
ATOM     12  H   UNL     1       4.775  -4.486  23.399  0.00  0.00    +0.210 HD
ENDBRANCH   6  11
BRANCH   3  13
ATOM     13  O   UNL     1       8.886  -2.877  24.603  0.00  0.00    -0.349 OA
BRANCH  13  14
ATOM     14  C   UNL     1      10.046  -2.571  23.819  0.00  0.00    +0.163 C 
BRANCH  14  15
ATOM     15  C   UNL     1       9.695  -1.710  22.601  0.00  0.00    +0.028 C 
BRANCH  15  16
ATOM     16  C   UNL     1       9.453  -0.233  22.948  0.00  0.00    +0.002 C 
BRANCH  16  17
ATOM     17  C   UNL     1       9.770   0.680  21.755  0.00  0.00    -0.000 C 
BRANCH  17  18
ATOM     18  C   UNL     1       9.965   2.134  22.189  0.00  0.00    -0.003 C 
ATOM     19  C   UNL     1      10.518   2.239  23.602  0.00  0.00    +0.004 C 
ENDBRANCH  17  18
ENDBRANCH  16  17
ENDBRANCH  15  16
ENDBRANCH  14  15
ENDBRANCH  13  14
ENDBRANCH   3  13
BRANCH   5  20
ATOM     20  C   UNL     1       6.778  -4.199  22.305  0.00  0.00    +0.190 C 
BRANCH  20  21
ATOM     21  O   UNL     1       5.790  -4.742  21.415  0.00  0.00    -0.392 OA
ATOM     22  H   UNL     1       6.166  -4.671  20.518  0.00  0.00    +0.210 HD
ENDBRANCH  20  21
ENDBRANCH   5  20
TORSDOF 11
ENDMDL
MODEL 9
REMARK VINA RESULT:      -5.0      4.268      6.253
REMARK  Name = 
REMARK  12 active torsions:
REMARK  status: ('A' for Active; 'I' for Inactive)
REMARK    1  A    between atoms: C_2  and  O_3
REMARK    2  A    between atoms: C_4  and  O_6
REMARK    3  A    between atoms: C_7  and  C_9
REMARK    4  A    between atoms: C_9  and  O_10
REMARK    5  A    between atoms: C_12  and  O_14
REMARK    6  A    between atoms: O_14  and  C_15
REMARK    7  A    between atoms: C_15  and  C_16
REMARK    8  A    between atoms: C_16  and  C_17
REMARK    9  A    between atoms: C_17  and  C_18
REMARK   10  A    between atoms: C_18  and  C_19
REMARK   11  A    between atoms: C_19  and  C_20
REMARK   12  A    between atoms: C_21  and  O_23
REMARK                            x       y       z     vdW  Elec       q    Type
REMARK                         _______ _______ _______ _____ _____    ______ ____
ROOT
ATOM      1  C   UNL     1       8.471  -5.282  24.384  0.00  0.00    +0.179 C 
ATOM      2  C   UNL     1       7.680  -4.793  23.169  0.00  0.00    +0.201 C 
ATOM      3  C   UNL     1       6.985  -3.459  23.460  0.00  0.00    +0.282 C 
ATOM      4  O   UNL     1       6.151  -3.527  24.625  0.00  0.00    -0.341 OA
ATOM      5  C   UNL     1       6.700  -4.120  25.818  0.00  0.00    +0.178 C 
ATOM      6  C   UNL     1       7.544  -5.388  25.594  0.00  0.00    +0.177 C 
ENDROOT
BRANCH   1   7
ATOM      7  O   UNL     1       9.586  -4.450  24.729  0.00  0.00    -0.386 OA
ATOM      8  H   UNL     1      10.007  -4.814  25.532  0.00  0.00    +0.210 HD
ENDBRANCH   1   7
BRANCH   2   9
ATOM      9  O   UNL     1       6.707  -5.789  22.803  0.00  0.00    -0.384 OA
ATOM     10  H   UNL     1       7.086  -6.337  22.090  0.00  0.00    +0.210 HD
ENDBRANCH   2   9
BRANCH   6  11
ATOM     11  O   UNL     1       8.277  -5.773  26.763  0.00  0.00    -0.386 OA
ATOM     12  H   UNL     1       7.732  -5.515  27.532  0.00  0.00    +0.210 HD
ENDBRANCH   6  11
BRANCH   3  13
ATOM     13  O   UNL     1       7.921  -2.374  23.465  0.00  0.00    -0.349 OA
BRANCH  13  14
ATOM     14  C   UNL     1       8.459  -2.141  22.157  0.00  0.00    +0.163 C 
BRANCH  14  15
ATOM     15  C   UNL     1       9.635  -1.159  22.196  0.00  0.00    +0.028 C 
BRANCH  15  16
ATOM     16  C   UNL     1       9.434   0.068  21.295  0.00  0.00    +0.002 C 
BRANCH  16  17
ATOM     17  C   UNL     1       9.857   1.361  22.008  0.00  0.00    -0.000 C 
BRANCH  17  18
ATOM     18  C   UNL     1      10.316   1.094  23.442  0.00  0.00    -0.003 C 
ATOM     19  C   UNL     1       9.501   1.881  24.458  0.00  0.00    +0.004 C 
ENDBRANCH  17  18
ENDBRANCH  16  17
ENDBRANCH  15  16
ENDBRANCH  14  15
ENDBRANCH  13  14
ENDBRANCH   3  13
BRANCH   5  20
ATOM     20  C   UNL     1       7.330  -3.065  26.728  0.00  0.00    +0.190 C 
BRANCH  20  21
ATOM     21  O   UNL     1       8.565  -2.602  26.161  0.00  0.00    -0.392 OA
ATOM     22  H   UNL     1       8.370  -2.378  25.232  0.00  0.00    +0.210 HD
ENDBRANCH  20  21
ENDBRANCH   5  20
TORSDOF 11
ENDMDL
