MODEL 1
REMARK VINA RESULT:      -5.7      0.000      0.000
REMARK  Name = 
REMARK  13 active torsions:
REMARK  status: ('A' for Active; 'I' for Inactive)
REMARK    1  A    between atoms: C_1  and  C_2
REMARK    2  A    between atoms: C_2  and  C_3
REMARK    3  A    between atoms: C_3  and  N_4
REMARK    4  A    between atoms: N_4  and  C_5
REMARK    5  A    between atoms: C_5  and  C_6
REMARK    6  A    between atoms: C_6  and  O_7
REMARK    7  A    between atoms: C_6  and  C_8
REMARK    8  A    between atoms: C_8  and  O_9
REMARK    9  A    between atoms: O_9  and  C_10
REMARK   10  A    between atoms: C_15  and  C_16
REMARK   11  A    between atoms: C_16  and  C_18
REMARK   12  A    between atoms: C_18  and  C_19
REMARK   13  A    between atoms: C_19  and  C_20
REMARK                            x       y       z     vdW  Elec       q    Type
REMARK                         _______ _______ _______ _____ _____    ______ ____
ROOT
ATOM      1  C   UNL     1       7.280  -1.717  23.319  0.00  0.00    +0.131 A 
ATOM      2  C   UNL     1       8.487  -1.335  23.945  0.00  0.00    +0.059 A 
ATOM      3  C   UNL     1       8.435  -0.556  25.118  0.00  0.00    +0.015 A 
ATOM      4  C   UNL     1       7.215  -0.187  25.689  0.00  0.00    +0.001 A 
ATOM      5  C   UNL     1       6.031  -0.559  25.069  0.00  0.00    +0.004 A 
ATOM      6  C   UNL     1       6.066  -1.299  23.891  0.00  0.00    +0.046 A 
ENDROOT
BRANCH   2   7
ATOM      7  C   UNL     1       9.835  -1.719  23.394  0.00  0.00    +0.167 C 
ATOM      8  O   UNL     1      10.312  -2.830  23.622  0.00  0.00    -0.292 OA
BRANCH   7   9
ATOM      9  C   UNL     1      10.590  -0.731  22.508  0.00  0.00    +0.084 C 
BRANCH   9  10
ATOM     10  C   UNL     1       9.662  -0.015  21.530  0.00  0.00    +0.043 C 
BRANCH  10  11
ATOM     11  C   UNL     1       9.170   1.308  22.068  0.00  0.00    -0.047 A 
ATOM     12  C   UNL     1       7.905   1.794  21.713  0.00  0.00    +0.003 A 
ATOM     13  C   UNL     1       7.449   3.017  22.212  0.00  0.00    +0.000 A 
ATOM     14  C   UNL     1       8.252   3.764  23.072  0.00  0.00    +0.000 A 
ATOM     15  C   UNL     1       9.510   3.289  23.435  0.00  0.00    +0.000 A 
ATOM     16  C   UNL     1       9.968   2.066  22.937  0.00  0.00    +0.003 A 
ENDBRANCH  10  11
ENDBRANCH   9  10
ENDBRANCH   7   9
ENDBRANCH   2   7
BRANCH   1  17
ATOM     17  O   UNL     1       7.336  -2.532  22.214  0.00  0.00    -0.489 OA
BRANCH  17  18
ATOM     18  C   UNL     1       6.231  -3.419  21.978  0.00  0.00    +0.261 C 
BRANCH  18  19
ATOM     19  C   UNL     1       6.731  -4.851  21.777  0.00  0.00    +0.166 C 
BRANCH  19  20
ATOM     20  O   UNL     1       5.763  -5.573  20.994  0.00  0.00    -0.387 OA
ATOM     21  H   UNL     1       5.022  -4.952  20.860  0.00  0.00    +0.210 HD
ENDBRANCH  19  20
BRANCH  19  22
ATOM     22  C   UNL     1       6.976  -5.585  23.102  0.00  0.00    +0.115 C 
BRANCH  22  23
ATOM     23  N   UNL     1       8.269  -5.158  23.657  0.00  0.00    -0.313 NA
ATOM     24  H   UNL     1       8.986  -5.815  23.338  0.00  0.00    +0.122 HD
BRANCH  23  25
ATOM     25  C   UNL     1       8.220  -5.108  25.113  0.00  0.00    +0.081 C 
BRANCH  25  27
ATOM     26  C   UNL     1       6.990  -3.745  26.818  0.00  0.00    +0.005 C 
ATOM     27  C   UNL     1       6.854  -4.605  25.572  0.00  0.00    +0.012 C 
ENDBRANCH  25  27
ENDBRANCH  23  25
ENDBRANCH  22  23
ENDBRANCH  19  22
ENDBRANCH  18  19
ENDBRANCH  17  18
ENDBRANCH   1  17
TORSDOF 12
ENDMDL
MODEL 2
REMARK VINA RESULT:      -5.4      1.721      3.269
REMARK  Name = 
REMARK  13 active torsions:
REMARK  status: ('A' for Active; 'I' for Inactive)
REMARK    1  A    between atoms: C_1  and  C_2
REMARK    2  A    between atoms: C_2  and  C_3
REMARK    3  A    between atoms: C_3  and  N_4
REMARK    4  A    between atoms: N_4  and  C_5
REMARK    5  A    between atoms: C_5  and  C_6
REMARK    6  A    between atoms: C_6  and  O_7
REMARK    7  A    between atoms: C_6  and  C_8
REMARK    8  A    between atoms: C_8  and  O_9
REMARK    9  A    between atoms: O_9  and  C_10
REMARK   10  A    between atoms: C_15  and  C_16
REMARK   11  A    between atoms: C_16  and  C_18
REMARK   12  A    between atoms: C_18  and  C_19
REMARK   13  A    between atoms: C_19  and  C_20
REMARK                            x       y       z     vdW  Elec       q    Type
REMARK                         _______ _______ _______ _____ _____    ______ ____
ROOT
ATOM      1  C   UNL     1       6.023  -1.584  25.277  0.00  0.00    +0.131 A 
ATOM      2  C   UNL     1       6.772  -1.125  24.171  0.00  0.00    +0.059 A 
ATOM      3  C   UNL     1       6.738   0.245  23.840  0.00  0.00    +0.015 A 
ATOM      4  C   UNL     1       6.010   1.157  24.606  0.00  0.00    +0.001 A 
ATOM      5  C   UNL     1       5.271   0.703  25.689  0.00  0.00    +0.004 A 
ATOM      6  C   UNL     1       5.265  -0.653  26.006  0.00  0.00    +0.046 A 
ENDROOT
BRANCH   2   7
ATOM      7  C   UNL     1       7.597  -2.052  23.317  0.00  0.00    +0.167 C 
ATOM      8  O   UNL     1       7.174  -2.448  22.232  0.00  0.00    -0.292 OA
BRANCH   7   9
ATOM      9  C   UNL     1       8.989  -2.462  23.790  0.00  0.00    +0.084 C 
BRANCH   9  10
ATOM     10  C   UNL     1      10.088  -1.900  22.891  0.00  0.00    +0.043 C 
BRANCH  10  11
ATOM     11  C   UNL     1      10.158  -0.392  22.943  0.00  0.00    -0.047 A 
ATOM     12  C   UNL     1       9.829   0.375  21.817  0.00  0.00    +0.003 A 
ATOM     13  C   UNL     1       9.893   1.770  21.866  0.00  0.00    +0.000 A 
ATOM     14  C   UNL     1      10.281   2.411  23.040  0.00  0.00    +0.000 A 
ATOM     15  C   UNL     1      10.607   1.659  24.167  0.00  0.00    +0.000 A 
ATOM     16  C   UNL     1      10.544   0.264  24.120  0.00  0.00    +0.003 A 
ENDBRANCH  10  11
ENDBRANCH   9  10
ENDBRANCH   7   9
ENDBRANCH   2   7
BRANCH   1  17
ATOM     17  O   UNL     1       6.111  -2.908  25.633  0.00  0.00    -0.489 OA
BRANCH  17  18
ATOM     18  C   UNL     1       6.947  -3.248  26.751  0.00  0.00    +0.261 C 
BRANCH  18  19
ATOM     19  C   UNL     1       6.913  -4.757  27.003  0.00  0.00    +0.166 C 
BRANCH  19  20
ATOM     20  O   UNL     1       8.264  -5.229  27.156  0.00  0.00    -0.387 OA
ATOM     21  H   UNL     1       8.830  -4.528  26.779  0.00  0.00    +0.210 HD
ENDBRANCH  19  20
BRANCH  19  22
ATOM     22  C   UNL     1       6.219  -5.531  25.874  0.00  0.00    +0.115 C 
BRANCH  22  23
ATOM     23  N   UNL     1       7.000  -5.380  24.637  0.00  0.00    -0.313 NA
ATOM     24  H   UNL     1       7.401  -4.438  24.626  0.00  0.00    +0.122 HD
BRANCH  23  25
ATOM     25  C   UNL     1       6.164  -5.601  23.464  0.00  0.00    +0.081 C 
BRANCH  25  27
ATOM     26  C   UNL     1       6.269  -5.700  20.962  0.00  0.00    +0.005 C 
ATOM     27  C   UNL     1       7.037  -5.924  22.254  0.00  0.00    +0.012 C 
ENDBRANCH  25  27
ENDBRANCH  23  25
ENDBRANCH  22  23
ENDBRANCH  19  22
ENDBRANCH  18  19
ENDBRANCH  17  18
ENDBRANCH   1  17
TORSDOF 12
ENDMDL
MODEL 3
REMARK VINA RESULT:      -5.4      1.636      2.736
REMARK  Name = 
REMARK  13 active torsions:
REMARK  status: ('A' for Active; 'I' for Inactive)
REMARK    1  A    between atoms: C_1  and  C_2
REMARK    2  A    between atoms: C_2  and  C_3
REMARK    3  A    between atoms: C_3  and  N_4
REMARK    4  A    between atoms: N_4  and  C_5
REMARK    5  A    between atoms: C_5  and  C_6
REMARK    6  A    between atoms: C_6  and  O_7
REMARK    7  A    between atoms: C_6  and  C_8
REMARK    8  A    between atoms: C_8  and  O_9
REMARK    9  A    between atoms: O_9  and  C_10
REMARK   10  A    between atoms: C_15  and  C_16
REMARK   11  A    between atoms: C_16  and  C_18
REMARK   12  A    between atoms: C_18  and  C_19
REMARK   13  A    between atoms: C_19  and  C_20
REMARK                            x       y       z     vdW  Elec       q    Type
REMARK                         _______ _______ _______ _____ _____    ______ ____
ROOT
ATOM      1  C   UNL     1       8.030  -1.927  25.132  0.00  0.00    +0.131 A 
ATOM      2  C   UNL     1       7.577  -1.666  23.821  0.00  0.00    +0.059 A 
ATOM      3  C   UNL     1       6.691  -0.592  23.601  0.00  0.00    +0.015 A 
ATOM      4  C   UNL     1       6.283   0.236  24.649  0.00  0.00    +0.001 A 
ATOM      5  C   UNL     1       6.725  -0.026  25.938  0.00  0.00    +0.004 A 
ATOM      6  C   UNL     1       7.573  -1.104  26.176  0.00  0.00    +0.046 A 
ENDROOT
BRANCH   2   7
ATOM      7  C   UNL     1       7.997  -2.506  22.643  0.00  0.00    +0.167 C 
ATOM      8  O   UNL     1       7.544  -3.639  22.489  0.00  0.00    -0.292 OA
BRANCH   7   9
ATOM      9  C   UNL     1       8.957  -1.920  21.611  0.00  0.00    +0.084 C 
BRANCH   9  10
ATOM     10  C   UNL     1      10.245  -1.410  22.252  0.00  0.00    +0.043 C 
BRANCH  10  11
ATOM     11  C   UNL     1      10.137   0.030  22.694  0.00  0.00    -0.047 A 
ATOM     12  C   UNL     1       9.614   1.002  21.830  0.00  0.00    +0.003 A 
ATOM     13  C   UNL     1       9.513   2.334  22.239  0.00  0.00    +0.000 A 
ATOM     14  C   UNL     1       9.929   2.707  23.516  0.00  0.00    +0.000 A 
ATOM     15  C   UNL     1      10.447   1.749  24.384  0.00  0.00    +0.000 A 
ATOM     16  C   UNL     1      10.549   0.416  23.977  0.00  0.00    +0.003 A 
ENDBRANCH  10  11
ENDBRANCH   9  10
ENDBRANCH   7   9
ENDBRANCH   2   7
BRANCH   1  17
ATOM     17  O   UNL     1       8.944  -2.934  25.330  0.00  0.00    -0.489 OA
BRANCH  17  18
ATOM     18  C   UNL     1       8.715  -3.844  26.418  0.00  0.00    +0.261 C 
BRANCH  18  19
ATOM     19  C   UNL     1       8.428  -5.249  25.885  0.00  0.00    +0.166 C 
BRANCH  19  20
ATOM     20  O   UNL     1       8.983  -5.362  24.562  0.00  0.00    -0.387 OA
ATOM     21  H   UNL     1       9.939  -5.510  24.692  0.00  0.00    +0.210 HD
ENDBRANCH  19  20
BRANCH  19  22
ATOM     22  C   UNL     1       6.929  -5.575  25.847  0.00  0.00    +0.115 C 
BRANCH  22  23
ATOM     23  N   UNL     1       6.357  -5.060  24.594  0.00  0.00    -0.313 NA
ATOM     24  H   UNL     1       6.952  -4.297  24.262  0.00  0.00    +0.122 HD
BRANCH  23  25
ATOM     25  C   UNL     1       4.988  -4.602  24.796  0.00  0.00    +0.081 C 
BRANCH  25  27
ATOM     26  C   UNL     1       4.038  -2.545  25.864  0.00  0.00    +0.005 C 
ATOM     27  C   UNL     1       4.898  -3.780  26.079  0.00  0.00    +0.012 C 
ENDBRANCH  25  27
ENDBRANCH  23  25
ENDBRANCH  22  23
ENDBRANCH  19  22
ENDBRANCH  18  19
ENDBRANCH  17  18
ENDBRANCH   1  17
TORSDOF 12
ENDMDL
MODEL 4
REMARK VINA RESULT:      -5.4      2.325      4.323
REMARK  Name = 
REMARK  13 active torsions:
REMARK  status: ('A' for Active; 'I' for Inactive)
REMARK    1  A    between atoms: C_1  and  C_2
REMARK    2  A    between atoms: C_2  and  C_3
REMARK    3  A    between atoms: C_3  and  N_4
REMARK    4  A    between atoms: N_4  and  C_5
REMARK    5  A    between atoms: C_5  and  C_6
REMARK    6  A    between atoms: C_6  and  O_7
REMARK    7  A    between atoms: C_6  and  C_8
REMARK    8  A    between atoms: C_8  and  O_9
REMARK    9  A    between atoms: O_9  and  C_10
REMARK   10  A    between atoms: C_15  and  C_16
REMARK   11  A    between atoms: C_16  and  C_18
REMARK   12  A    between atoms: C_18  and  C_19
REMARK   13  A    between atoms: C_19  and  C_20
REMARK                            x       y       z     vdW  Elec       q    Type
REMARK                         _______ _______ _______ _____ _____    ______ ____
ROOT
ATOM      1  C   UNL     1       7.423  -4.538  23.628  0.00  0.00    +0.131 A 
ATOM      2  C   UNL     1       6.534  -3.634  23.005  0.00  0.00    +0.059 A 
ATOM      3  C   UNL     1       5.915  -4.005  21.795  0.00  0.00    +0.015 A 
ATOM      4  C   UNL     1       6.136  -5.259  21.223  0.00  0.00    +0.001 A 
ATOM      5  C   UNL     1       7.014  -6.144  21.834  0.00  0.00    +0.004 A 
ATOM      6  C   UNL     1       7.661  -5.777  23.011  0.00  0.00    +0.046 A 
ENDROOT
BRANCH   2   7
ATOM      7  C   UNL     1       6.234  -2.275  23.581  0.00  0.00    +0.167 C 
ATOM      8  O   UNL     1       5.524  -2.160  24.579  0.00  0.00    -0.292 OA
BRANCH   7   9
ATOM      9  C   UNL     1       6.859  -1.037  22.942  0.00  0.00    +0.084 C 
BRANCH   9  10
ATOM     10  C   UNL     1       8.322  -1.262  22.568  0.00  0.00    +0.043 C 
BRANCH  10  11
ATOM     11  C   UNL     1       9.197  -0.087  22.936  0.00  0.00    -0.047 A 
ATOM     12  C   UNL     1       9.876  -0.062  24.161  0.00  0.00    +0.003 A 
ATOM     13  C   UNL     1      10.686   1.025  24.500  0.00  0.00    +0.000 A 
ATOM     14  C   UNL     1      10.827   2.094  23.618  0.00  0.00    +0.000 A 
ATOM     15  C   UNL     1      10.159   2.078  22.396  0.00  0.00    +0.000 A 
ATOM     16  C   UNL     1       9.349   0.993  22.054  0.00  0.00    +0.003 A 
ENDBRANCH  10  11
ENDBRANCH   9  10
ENDBRANCH   7   9
ENDBRANCH   2   7
BRANCH   1  17
ATOM     17  O   UNL     1       7.973  -4.196  24.840  0.00  0.00    -0.489 OA
BRANCH  17  18
ATOM     18  C   UNL     1       8.219  -5.250  25.785  0.00  0.00    +0.261 C 
BRANCH  18  19
ATOM     19  C   UNL     1       7.259  -5.137  26.971  0.00  0.00    +0.166 C 
BRANCH  19  20
ATOM     20  O   UNL     1       7.574  -6.172  27.920  0.00  0.00    -0.387 OA
ATOM     21  H   UNL     1       6.720  -6.581  28.154  0.00  0.00    +0.210 HD
ENDBRANCH  19  20
BRANCH  19  22
ATOM     22  C   UNL     1       5.786  -5.248  26.555  0.00  0.00    +0.115 C 
BRANCH  22  23
ATOM     23  N   UNL     1       5.386  -6.663  26.575  0.00  0.00    -0.313 NA
ATOM     24  H   UNL     1       6.234  -7.234  26.538  0.00  0.00    +0.122 HD
BRANCH  23  25
ATOM     25  C   UNL     1       4.503  -6.969  25.457  0.00  0.00    +0.081 C 
BRANCH  25  27
ATOM     26  C   UNL     1       3.240  -5.991  23.527  0.00  0.00    +0.005 C 
ATOM     27  C   UNL     1       4.106  -5.683  24.737  0.00  0.00    +0.012 C 
ENDBRANCH  25  27
ENDBRANCH  23  25
ENDBRANCH  22  23
ENDBRANCH  19  22
ENDBRANCH  18  19
ENDBRANCH  17  18
ENDBRANCH   1  17
TORSDOF 12
ENDMDL
MODEL 5
REMARK VINA RESULT:      -5.4      1.865      3.345
REMARK  Name = 
REMARK  13 active torsions:
REMARK  status: ('A' for Active; 'I' for Inactive)
REMARK    1  A    between atoms: C_1  and  C_2
REMARK    2  A    between atoms: C_2  and  C_3
REMARK    3  A    between atoms: C_3  and  N_4
REMARK    4  A    between atoms: N_4  and  C_5
REMARK    5  A    between atoms: C_5  and  C_6
REMARK    6  A    between atoms: C_6  and  O_7
REMARK    7  A    between atoms: C_6  and  C_8
REMARK    8  A    between atoms: C_8  and  O_9
REMARK    9  A    between atoms: O_9  and  C_10
REMARK   10  A    between atoms: C_15  and  C_16
REMARK   11  A    between atoms: C_16  and  C_18
REMARK   12  A    between atoms: C_18  and  C_19
REMARK   13  A    between atoms: C_19  and  C_20
REMARK                            x       y       z     vdW  Elec       q    Type
REMARK                         _______ _______ _______ _____ _____    ______ ____
ROOT
ATOM      1  C   UNL     1       7.944  -4.141  23.366  0.00  0.00    +0.131 A 
ATOM      2  C   UNL     1       7.865  -2.738  23.217  0.00  0.00    +0.059 A 
ATOM      3  C   UNL     1       6.687  -2.170  22.691  0.00  0.00    +0.015 A 
ATOM      4  C   UNL     1       5.590  -2.962  22.350  0.00  0.00    +0.001 A 
ATOM      5  C   UNL     1       5.672  -4.340  22.493  0.00  0.00    +0.004 A 
ATOM      6  C   UNL     1       6.842  -4.920  22.977  0.00  0.00    +0.046 A 
ENDROOT
BRANCH   2   7
ATOM      7  C   UNL     1       9.003  -1.825  23.588  0.00  0.00    +0.167 C 
ATOM      8  O   UNL     1       9.099  -1.373  24.728  0.00  0.00    -0.292 OA
BRANCH   7   9
ATOM      9  C   UNL     1      10.070  -1.498  22.545  0.00  0.00    +0.084 C 
BRANCH   9  10
ATOM     10  C   UNL     1       9.561  -0.514  21.494  0.00  0.00    +0.043 C 
BRANCH  10  11
ATOM     11  C   UNL     1       9.322   0.864  22.065  0.00  0.00    -0.047 A 
ATOM     12  C   UNL     1      10.258   1.449  22.929  0.00  0.00    +0.003 A 
ATOM     13  C   UNL     1      10.037   2.724  23.455  0.00  0.00    +0.000 A 
ATOM     14  C   UNL     1       8.882   3.428  23.121  0.00  0.00    +0.000 A 
ATOM     15  C   UNL     1       7.946   2.858  22.261  0.00  0.00    +0.000 A 
ATOM     16  C   UNL     1       8.165   1.583  21.733  0.00  0.00    +0.003 A 
ENDBRANCH  10  11
ENDBRANCH   9  10
ENDBRANCH   7   9
ENDBRANCH   2   7
BRANCH   1  17
ATOM     17  O   UNL     1       9.069  -4.683  23.940  0.00  0.00    -0.489 OA
BRANCH  17  18
ATOM     18  C   UNL     1       8.889  -5.592  25.039  0.00  0.00    +0.261 C 
BRANCH  18  19
ATOM     19  C   UNL     1       8.566  -4.820  26.320  0.00  0.00    +0.166 C 
BRANCH  19  20
ATOM     20  O   UNL     1       9.753  -4.755  27.131  0.00  0.00    -0.387 OA
ATOM     21  H   UNL     1       9.586  -4.048  27.783  0.00  0.00    +0.210 HD
ENDBRANCH  19  20
BRANCH  19  22
ATOM     22  C   UNL     1       7.424  -5.455  27.124  0.00  0.00    +0.115 C 
BRANCH  22  23
ATOM     23  N   UNL     1       6.565  -4.390  27.664  0.00  0.00    -0.313 NA
ATOM     24  H   UNL     1       5.624  -4.772  27.789  0.00  0.00    +0.122 HD
BRANCH  23  25
ATOM     25  C   UNL     1       6.545  -3.237  26.774  0.00  0.00    +0.081 C 
BRANCH  25  27
ATOM     26  C   UNL     1       4.771  -1.706  25.887  0.00  0.00    +0.005 C 
ATOM     27  C   UNL     1       5.200  -3.154  26.057  0.00  0.00    +0.012 C 
ENDBRANCH  25  27
ENDBRANCH  23  25
ENDBRANCH  22  23
ENDBRANCH  19  22
ENDBRANCH  18  19
ENDBRANCH  17  18
ENDBRANCH   1  17
TORSDOF 12
ENDMDL
MODEL 6
REMARK VINA RESULT:      -5.4      2.295      6.214
REMARK  Name = 
REMARK  13 active torsions:
REMARK  status: ('A' for Active; 'I' for Inactive)
REMARK    1  A    between atoms: C_1  and  C_2
REMARK    2  A    between atoms: C_2  and  C_3
REMARK    3  A    between atoms: C_3  and  N_4
REMARK    4  A    between atoms: N_4  and  C_5
REMARK    5  A    between atoms: C_5  and  C_6
REMARK    6  A    between atoms: C_6  and  O_7
REMARK    7  A    between atoms: C_6  and  C_8
REMARK    8  A    between atoms: C_8  and  O_9
REMARK    9  A    between atoms: O_9  and  C_10
REMARK   10  A    between atoms: C_15  and  C_16
REMARK   11  A    between atoms: C_16  and  C_18
REMARK   12  A    between atoms: C_18  and  C_19
REMARK   13  A    between atoms: C_19  and  C_20
REMARK                            x       y       z     vdW  Elec       q    Type
REMARK                         _______ _______ _______ _____ _____    ______ ____
ROOT
ATOM      1  C   UNL     1       9.075  -2.998  24.864  0.00  0.00    +0.131 A 
ATOM      2  C   UNL     1       7.773  -2.985  25.411  0.00  0.00    +0.059 A 
ATOM      3  C   UNL     1       7.246  -4.174  25.955  0.00  0.00    +0.015 A 
ATOM      4  C   UNL     1       7.998  -5.348  25.995  0.00  0.00    +0.001 A 
ATOM      5  C   UNL     1       9.276  -5.360  25.452  0.00  0.00    +0.004 A 
ATOM      6  C   UNL     1       9.797  -4.204  24.879  0.00  0.00    +0.046 A 
ENDROOT
BRANCH   2   7
ATOM      7  C   UNL     1       6.917  -1.746  25.420  0.00  0.00    +0.167 C 
ATOM      8  O   UNL     1       7.169  -0.816  26.185  0.00  0.00    -0.292 OA
BRANCH   7   9
ATOM      9  C   UNL     1       5.755  -1.632  24.436  0.00  0.00    +0.084 C 
BRANCH   9  10
ATOM     10  C   UNL     1       6.184  -1.947  23.005  0.00  0.00    +0.043 C 
BRANCH  10  11
ATOM     11  C   UNL     1       6.095  -3.422  22.690  0.00  0.00    -0.047 A 
ATOM     12  C   UNL     1       7.162  -4.081  22.064  0.00  0.00    +0.003 A 
ATOM     13  C   UNL     1       7.080  -5.445  21.773  0.00  0.00    +0.000 A 
ATOM     14  C   UNL     1       5.935  -6.164  22.109  0.00  0.00    +0.000 A 
ATOM     15  C   UNL     1       4.870  -5.521  22.736  0.00  0.00    +0.000 A 
ATOM     16  C   UNL     1       4.950  -4.157  23.027  0.00  0.00    +0.003 A 
ENDBRANCH  10  11
ENDBRANCH   9  10
ENDBRANCH   7   9
ENDBRANCH   2   7
BRANCH   1  17
ATOM     17  O   UNL     1       9.608  -1.822  24.395  0.00  0.00    -0.489 OA
BRANCH  17  18
ATOM     18  C   UNL     1      10.090  -1.796  23.041  0.00  0.00    +0.261 C 
BRANCH  18  19
ATOM     19  C   UNL     1       9.455  -0.635  22.272  0.00  0.00    +0.166 C 
BRANCH  19  20
ATOM     20  O   UNL     1       9.543  -0.913  20.863  0.00  0.00    -0.387 OA
ATOM     21  H   UNL     1      10.427  -0.601  20.590  0.00  0.00    +0.210 HD
ENDBRANCH  19  20
BRANCH  19  22
ATOM     22  C   UNL     1      10.122   0.713  22.577  0.00  0.00    +0.115 C 
BRANCH  22  23
ATOM     23  N   UNL     1       9.642   1.715  21.614  0.00  0.00    -0.313 NA
ATOM     24  H   UNL     1      10.451   2.235  21.264  0.00  0.00    +0.122 HD
BRANCH  23  25
ATOM     25  C   UNL     1       8.677   2.613  22.235  0.00  0.00    +0.081 C 
BRANCH  25  27
ATOM     26  C   UNL     1       6.475   1.818  23.129  0.00  0.00    +0.005 C 
ATOM     27  C   UNL     1       7.257   2.182  21.877  0.00  0.00    +0.012 C 
ENDBRANCH  25  27
ENDBRANCH  23  25
ENDBRANCH  22  23
ENDBRANCH  19  22
ENDBRANCH  18  19
ENDBRANCH  17  18
ENDBRANCH   1  17
TORSDOF 12
ENDMDL
MODEL 7
REMARK VINA RESULT:      -5.3      2.279      6.535
REMARK  Name = 
REMARK  13 active torsions:
REMARK  status: ('A' for Active; 'I' for Inactive)
REMARK    1  A    between atoms: C_1  and  C_2
REMARK    2  A    between atoms: C_2  and  C_3
REMARK    3  A    between atoms: C_3  and  N_4
REMARK    4  A    between atoms: N_4  and  C_5
REMARK    5  A    between atoms: C_5  and  C_6
REMARK    6  A    between atoms: C_6  and  O_7
REMARK    7  A    between atoms: C_6  and  C_8
REMARK    8  A    between atoms: C_8  and  O_9
REMARK    9  A    between atoms: O_9  and  C_10
REMARK   10  A    between atoms: C_15  and  C_16
REMARK   11  A    between atoms: C_16  and  C_18
REMARK   12  A    between atoms: C_18  and  C_19
REMARK   13  A    between atoms: C_19  and  C_20
REMARK                            x       y       z     vdW  Elec       q    Type
REMARK                         _______ _______ _______ _____ _____    ______ ____
ROOT
ATOM      1  C   UNL     1       7.283  -3.356  23.029  0.00  0.00    +0.131 A 
ATOM      2  C   UNL     1       7.950  -4.472  23.581  0.00  0.00    +0.059 A 
ATOM      3  C   UNL     1       7.716  -5.750  23.036  0.00  0.00    +0.015 A 
ATOM      4  C   UNL     1       6.866  -5.927  21.942  0.00  0.00    +0.001 A 
ATOM      5  C   UNL     1       6.208  -4.830  21.404  0.00  0.00    +0.004 A 
ATOM      6  C   UNL     1       6.402  -3.566  21.955  0.00  0.00    +0.046 A 
ENDROOT
BRANCH   2   7
ATOM      7  C   UNL     1       8.896  -4.348  24.746  0.00  0.00    +0.167 C 
ATOM      8  O   UNL     1      10.112  -4.421  24.576  0.00  0.00    -0.292 OA
BRANCH   7   9
ATOM      9  C   UNL     1       8.335  -4.083  26.140  0.00  0.00    +0.084 C 
BRANCH   9  10
ATOM     10  C   UNL     1       7.491  -5.249  26.649  0.00  0.00    +0.043 C 
BRANCH  10  11
ATOM     11  C   UNL     1       6.055  -5.164  26.188  0.00  0.00    -0.047 A 
ATOM     12  C   UNL     1       5.360  -6.320  25.808  0.00  0.00    +0.003 A 
ATOM     13  C   UNL     1       4.032  -6.241  25.382  0.00  0.00    +0.000 A 
ATOM     14  C   UNL     1       3.384  -5.008  25.336  0.00  0.00    +0.000 A 
ATOM     15  C   UNL     1       4.064  -3.853  25.715  0.00  0.00    +0.000 A 
ATOM     16  C   UNL     1       5.392  -3.929  26.141  0.00  0.00    +0.003 A 
ENDBRANCH  10  11
ENDBRANCH   9  10
ENDBRANCH   7   9
ENDBRANCH   2   7
BRANCH   1  17
ATOM     17  O   UNL     1       7.565  -2.105  23.522  0.00  0.00    -0.489 OA
BRANCH  17  18
ATOM     18  C   UNL     1       8.250  -1.183  22.658  0.00  0.00    +0.261 C 
BRANCH  18  19
ATOM     19  C   UNL     1       9.676  -0.944  23.159  0.00  0.00    +0.166 C 
BRANCH  19  20
ATOM     20  O   UNL     1      10.519  -2.005  22.671  0.00  0.00    -0.387 OA
ATOM     21  H   UNL     1      11.210  -2.122  23.350  0.00  0.00    +0.210 HD
ENDBRANCH  19  20
BRANCH  19  22
ATOM     22  C   UNL     1       9.765  -0.875  24.689  0.00  0.00    +0.115 C 
BRANCH  22  23
ATOM     23  N   UNL     1       9.993   0.520  25.095  0.00  0.00    -0.313 NA
ATOM     24  H   UNL     1       9.082   0.971  25.210  0.00  0.00    +0.122 HD
BRANCH  23  25
ATOM     25  C   UNL     1      10.801   1.223  24.107  0.00  0.00    +0.081 C 
BRANCH  25  27
ATOM     26  C   UNL     1       8.754   2.662  24.250  0.00  0.00    +0.005 C 
ATOM     27  C   UNL     1      10.220   2.612  23.851  0.00  0.00    +0.012 C 
ENDBRANCH  25  27
ENDBRANCH  23  25
ENDBRANCH  22  23
ENDBRANCH  19  22
ENDBRANCH  18  19
ENDBRANCH  17  18
ENDBRANCH   1  17
TORSDOF 12
ENDMDL
MODEL 8
REMARK VINA RESULT:      -5.2      1.990      5.845
REMARK  Name = 
REMARK  13 active torsions:
REMARK  status: ('A' for Active; 'I' for Inactive)
REMARK    1  A    between atoms: C_1  and  C_2
REMARK    2  A    between atoms: C_2  and  C_3
REMARK    3  A    between atoms: C_3  and  N_4
REMARK    4  A    between atoms: N_4  and  C_5
REMARK    5  A    between atoms: C_5  and  C_6
REMARK    6  A    between atoms: C_6  and  O_7
REMARK    7  A    between atoms: C_6  and  C_8
REMARK    8  A    between atoms: C_8  and  O_9
REMARK    9  A    between atoms: O_9  and  C_10
REMARK   10  A    between atoms: C_15  and  C_16
REMARK   11  A    between atoms: C_16  and  C_18
REMARK   12  A    between atoms: C_18  and  C_19
REMARK   13  A    between atoms: C_19  and  C_20
REMARK                            x       y       z     vdW  Elec       q    Type
REMARK                         _______ _______ _______ _____ _____    ______ ____
ROOT
ATOM      1  C   UNL     1       6.393  -0.444  23.672  0.00  0.00    +0.131 A 
ATOM      2  C   UNL     1       5.950  -1.781  23.775  0.00  0.00    +0.059 A 
ATOM      3  C   UNL     1       5.242  -2.183  24.926  0.00  0.00    +0.015 A 
ATOM      4  C   UNL     1       4.942  -1.277  25.944  0.00  0.00    +0.001 A 
ATOM      5  C   UNL     1       5.383   0.035  25.843  0.00  0.00    +0.004 A 
ATOM      6  C   UNL     1       6.114   0.438  24.729  0.00  0.00    +0.046 A 
ENDROOT
BRANCH   2   7
ATOM      7  C   UNL     1       6.220  -2.803  22.702  0.00  0.00    +0.167 C 
ATOM      8  O   UNL     1       5.365  -3.065  21.857  0.00  0.00    -0.292 OA
BRANCH   7   9
ATOM      9  C   UNL     1       7.586  -3.482  22.643  0.00  0.00    +0.084 C 
BRANCH   9  10
ATOM     10  C   UNL     1       7.515  -4.948  23.063  0.00  0.00    +0.043 C 
BRANCH  10  11
ATOM     11  C   UNL     1       7.302  -5.111  24.550  0.00  0.00    -0.047 A 
ATOM     12  C   UNL     1       6.101  -5.638  25.043  0.00  0.00    +0.003 A 
ATOM     13  C   UNL     1       5.905  -5.789  26.418  0.00  0.00    +0.000 A 
ATOM     14  C   UNL     1       6.908  -5.419  27.312  0.00  0.00    +0.000 A 
ATOM     15  C   UNL     1       8.107  -4.897  26.833  0.00  0.00    +0.000 A 
ATOM     16  C   UNL     1       8.305  -4.746  25.458  0.00  0.00    +0.003 A 
ENDBRANCH  10  11
ENDBRANCH   9  10
ENDBRANCH   7   9
ENDBRANCH   2   7
BRANCH   1  17
ATOM     17  O   UNL     1       7.024  -0.043  22.519  0.00  0.00    -0.489 OA
BRANCH  17  18
ATOM     18  C   UNL     1       7.474   1.320  22.441  0.00  0.00    +0.261 C 
BRANCH  18  19
ATOM     19  C   UNL     1       9.003   1.374  22.414  0.00  0.00    +0.166 C 
BRANCH  19  20
ATOM     20  O   UNL     1       9.414   2.267  21.363  0.00  0.00    -0.387 OA
ATOM     21  H   UNL     1       9.602   1.696  20.594  0.00  0.00    +0.210 HD
ENDBRANCH  19  20
BRANCH  19  22
ATOM     22  C   UNL     1       9.643  -0.004  22.202  0.00  0.00    +0.115 C 
BRANCH  22  23
ATOM     23  N   UNL     1      10.541  -0.296  23.329  0.00  0.00    -0.313 NA
ATOM     24  H   UNL     1      11.384  -0.742  22.958  0.00  0.00    +0.122 HD
BRANCH  23  25
ATOM     25  C   UNL     1       9.886  -1.154  24.308  0.00  0.00    +0.081 C 
BRANCH  25  27
ATOM     26  C   UNL     1       8.788  -1.206  26.560  0.00  0.00    +0.005 C 
ATOM     27  C   UNL     1       9.580  -0.361  25.576  0.00  0.00    +0.012 C 
ENDBRANCH  25  27
ENDBRANCH  23  25
ENDBRANCH  22  23
ENDBRANCH  19  22
ENDBRANCH  18  19
ENDBRANCH  17  18
ENDBRANCH   1  17
TORSDOF 12
ENDMDL
MODEL 9
REMARK VINA RESULT:      -5.2      2.527      6.334
REMARK  Name = 
REMARK  13 active torsions:
REMARK  status: ('A' for Active; 'I' for Inactive)
REMARK    1  A    between atoms: C_1  and  C_2
REMARK    2  A    between atoms: C_2  and  C_3
REMARK    3  A    between atoms: C_3  and  N_4
REMARK    4  A    between atoms: N_4  and  C_5
REMARK    5  A    between atoms: C_5  and  C_6
REMARK    6  A    between atoms: C_6  and  O_7
REMARK    7  A    between atoms: C_6  and  C_8
REMARK    8  A    between atoms: C_8  and  O_9
REMARK    9  A    between atoms: O_9  and  C_10
REMARK   10  A    between atoms: C_15  and  C_16
REMARK   11  A    between atoms: C_16  and  C_18
REMARK   12  A    between atoms: C_18  and  C_19
REMARK   13  A    between atoms: C_19  and  C_20
REMARK                            x       y       z     vdW  Elec       q    Type
REMARK                         _______ _______ _______ _____ _____    ______ ____
ROOT
ATOM      1  C   UNL     1       7.285  -3.392  22.942  0.00  0.00    +0.131 A 
ATOM      2  C   UNL     1       7.837  -4.604  23.413  0.00  0.00    +0.059 A 
ATOM      3  C   UNL     1       7.476  -5.812  22.784  0.00  0.00    +0.015 A 
ATOM      4  C   UNL     1       6.614  -5.829  21.687  0.00  0.00    +0.001 A 
ATOM      5  C   UNL     1       6.069  -4.638  21.229  0.00  0.00    +0.004 A 
ATOM      6  C   UNL     1       6.388  -3.439  21.862  0.00  0.00    +0.046 A 
ENDROOT
BRANCH   2   7
ATOM      7  C   UNL     1       8.791  -4.654  24.578  0.00  0.00    +0.167 C 
ATOM      8  O   UNL     1       9.919  -4.174  24.485  0.00  0.00    -0.292 OA
BRANCH   7   9
ATOM      9  C   UNL     1       8.328  -5.267  25.897  0.00  0.00    +0.084 C 
BRANCH   9  10
ATOM     10  C   UNL     1       7.151  -4.505  26.501  0.00  0.00    +0.043 C 
BRANCH  10  11
ATOM     11  C   UNL     1       5.824  -4.959  25.942  0.00  0.00    -0.047 A 
ATOM     12  C   UNL     1       5.499  -6.321  25.897  0.00  0.00    +0.003 A 
ATOM     13  C   UNL     1       4.270  -6.740  25.381  0.00  0.00    +0.000 A 
ATOM     14  C   UNL     1       3.354  -5.804  24.908  0.00  0.00    +0.000 A 
ATOM     15  C   UNL     1       3.665  -4.446  24.951  0.00  0.00    +0.000 A 
ATOM     16  C   UNL     1       4.892  -4.025  25.467  0.00  0.00    +0.003 A 
ENDBRANCH  10  11
ENDBRANCH   9  10
ENDBRANCH   7   9
ENDBRANCH   2   7
BRANCH   1  17
ATOM     17  O   UNL     1       7.691  -2.212  23.516  0.00  0.00    -0.489 OA
BRANCH  17  18
ATOM     18  C   UNL     1       8.261  -1.210  22.658  0.00  0.00    +0.261 C 
BRANCH  18  19
ATOM     19  C   UNL     1       9.691  -0.885  23.097  0.00  0.00    +0.166 C 
BRANCH  19  20
ATOM     20  O   UNL     1      10.567  -1.917  22.610  0.00  0.00    -0.387 OA
ATOM     21  H   UNL     1      11.231  -1.458  22.061  0.00  0.00    +0.210 HD
ENDBRANCH  19  20
BRANCH  19  22
ATOM     22  C   UNL     1       9.831  -0.762  24.620  0.00  0.00    +0.115 C 
BRANCH  22  23
ATOM     23  N   UNL     1       9.558   0.628  25.017  0.00  0.00    -0.313 NA
ATOM     24  H   UNL     1      10.322   0.943  25.620  0.00  0.00    +0.122 HD
BRANCH  23  25
ATOM     25  C   UNL     1       8.277   0.730  25.704  0.00  0.00    +0.081 C 
BRANCH  25  27
ATOM     26  C   UNL     1       6.601  -0.881  26.638  0.00  0.00    +0.005 C 
ATOM     27  C   UNL     1       8.068  -0.486  26.603  0.00  0.00    +0.012 C 
ENDBRANCH  25  27
ENDBRANCH  23  25
ENDBRANCH  22  23
ENDBRANCH  19  22
ENDBRANCH  18  19
ENDBRANCH  17  18
ENDBRANCH   1  17
TORSDOF 12
ENDMDL
