MODEL 1
REMARK VINA RESULT:      -6.1      0.000      0.000
REMARK  Name = 
REMARK  11 active torsions:
REMARK  status: ('A' for Active; 'I' for Inactive)
REMARK    1  A    between atoms: O_1  and  C_2
REMARK    2  A    between atoms: C_2  and  C_3
REMARK    3  A    between atoms: C_6  and  O_8
REMARK    4  A    between atoms: O_8  and  C_9
REMARK    5  A    between atoms: C_11  and  O_13
REMARK    6  A    between atoms: C_14  and  O_16
REMARK    7  A    between atoms: C_22  and  C_24
REMARK    8  A    between atoms: C_24  and  O_25
REMARK    9  A    between atoms: C_26  and  O_28
REMARK   10  A    between atoms: C_29  and  O_31
REMARK   11  A    between atoms: C_32  and  O_34
REMARK                            x       y       z     vdW  Elec       q    Type
REMARK                         _______ _______ _______ _____ _____    ______ ____
ROOT
ATOM      1  O   UNL     1       7.229  -4.255  23.663  0.00  0.00    -0.341 OA
ENDROOT
BRANCH   1   2
ATOM      2  C   UNL     1       8.397  -3.622  23.151  0.00  0.00    +0.178 C 
ATOM      3  C   UNL     1       9.270  -3.303  24.388  0.00  0.00    +0.145 C 
ATOM      4  N   UNL     1       8.606  -2.267  25.174  0.00  0.00    -0.324 N 
ATOM      5  C   UNL     1       7.805  -1.295  24.619  0.00  0.00    +0.141 A 
ATOM      6  N   UNL     1       7.274  -0.555  25.566  0.00  0.00    -0.238 NA
ATOM      7  C   UNL     1       7.761  -1.040  26.751  0.00  0.00    +0.130 A 
ATOM      8  C   UNL     1       7.606  -1.153  23.135  0.00  0.00    +0.211 C 
ATOM      9  C   UNL     1       8.620  -2.092  26.525  0.00  0.00    +0.107 A 
ATOM     10  C   UNL     1       8.199  -2.333  22.327  0.00  0.00    +0.181 C 
BRANCH   8  11
ATOM     11  O   UNL     1       6.218  -1.002  22.827  0.00  0.00    -0.381 OA
ATOM     12  H   UNL     1       5.990  -1.639  22.133  0.00  0.00    +0.210 HD
ENDBRANCH   8  11
BRANCH  10  13
ATOM     13  O   UNL     1       9.498  -1.992  21.786  0.00  0.00    -0.386 OA
ATOM     14  H   UNL     1       9.591  -2.360  20.890  0.00  0.00    +0.210 HD
ENDBRANCH  10  13
BRANCH   3  15
ATOM     15  C   UNL     1       9.590  -4.583  25.179  0.00  0.00    +0.183 C 
BRANCH  15  16
ATOM     16  O   UNL     1       9.503  -5.749  24.356  0.00  0.00    -0.393 OA
ATOM     17  H   UNL     1       8.572  -5.860  24.092  0.00  0.00    +0.209 HD
ENDBRANCH  15  16
ENDBRANCH   3  15
ENDBRANCH   1   2
BRANCH   1  22
ATOM     18  C   UNL     1       4.695  -3.938  24.843  0.00  0.00    +0.178 C 
ATOM     19  C   UNL     1       3.975  -5.289  24.760  0.00  0.00    +0.177 C 
ATOM     20  C   UNL     1       4.919  -6.312  24.097  0.00  0.00    +0.179 C 
ATOM     21  C   UNL     1       5.421  -5.782  22.753  0.00  0.00    +0.201 C 
ATOM     22  C   UNL     1       6.041  -4.374  22.901  0.00  0.00    +0.282 C 
ATOM     23  O   UNL     1       5.076  -3.500  23.521  0.00  0.00    -0.341 OA
BRANCH  19  24
ATOM     24  O   UNL     1       3.583  -5.710  26.068  0.00  0.00    -0.386 OA
ATOM     25  H   UNL     1       2.924  -6.423  25.974  0.00  0.00    +0.210 HD
ENDBRANCH  19  24
BRANCH  20  26
ATOM     26  O   UNL     1       4.241  -7.563  23.913  0.00  0.00    -0.386 OA
ATOM     27  H   UNL     1       3.722  -7.745  24.722  0.00  0.00    +0.210 HD
ENDBRANCH  20  26
BRANCH  21  28
ATOM     28  O   UNL     1       6.287  -6.739  22.128  0.00  0.00    -0.384 OA
ATOM     29  H   UNL     1       6.066  -7.629  22.459  0.00  0.00    +0.210 HD
ENDBRANCH  21  28
BRANCH  18  30
ATOM     30  C   UNL     1       3.824  -2.870  25.534  0.00  0.00    +0.190 C 
BRANCH  30  31
ATOM     31  O   UNL     1       4.398  -1.563  25.433  0.00  0.00    -0.392 OA
ATOM     32  H   UNL     1       3.890  -1.057  24.774  0.00  0.00    +0.210 HD
ENDBRANCH  30  31
ENDBRANCH  18  30
ENDBRANCH   1  22
TORSDOF 11
ENDMDL
MODEL 2
REMARK VINA RESULT:      -6.0      2.300      5.130
REMARK  Name = 
REMARK  11 active torsions:
REMARK  status: ('A' for Active; 'I' for Inactive)
REMARK    1  A    between atoms: O_1  and  C_2
REMARK    2  A    between atoms: C_2  and  C_3
REMARK    3  A    between atoms: C_6  and  O_8
REMARK    4  A    between atoms: O_8  and  C_9
REMARK    5  A    between atoms: C_11  and  O_13
REMARK    6  A    between atoms: C_14  and  O_16
REMARK    7  A    between atoms: C_22  and  C_24
REMARK    8  A    between atoms: C_24  and  O_25
REMARK    9  A    between atoms: C_26  and  O_28
REMARK   10  A    between atoms: C_29  and  O_31
REMARK   11  A    between atoms: C_32  and  O_34
REMARK                            x       y       z     vdW  Elec       q    Type
REMARK                         _______ _______ _______ _____ _____    ______ ____
ROOT
ATOM      1  O   UNL     1       8.432  -2.922  23.587  0.00  0.00    -0.341 OA
ENDROOT
BRANCH   1   2
ATOM      2  C   UNL     1       8.840  -4.260  23.855  0.00  0.00    +0.178 C 
ATOM      3  C   UNL     1       7.582  -5.130  23.618  0.00  0.00    +0.145 C 
ATOM      4  N   UNL     1       6.601  -4.829  24.656  0.00  0.00    -0.324 N 
ATOM      5  C   UNL     1       6.947  -4.440  25.931  0.00  0.00    +0.141 A 
ATOM      6  N   UNL     1       5.867  -4.154  26.622  0.00  0.00    -0.238 NA
ATOM      7  C   UNL     1       4.805  -4.386  25.790  0.00  0.00    +0.130 A 
ATOM      8  C   UNL     1       8.373  -4.373  26.403  0.00  0.00    +0.211 C 
ATOM      9  C   UNL     1       5.242  -4.838  24.565  0.00  0.00    +0.107 A 
ATOM     10  C   UNL     1       9.401  -4.559  25.261  0.00  0.00    +0.181 C 
BRANCH   8  11
ATOM     11  O   UNL     1       8.619  -3.139  27.083  0.00  0.00    -0.381 OA
ATOM     12  H   UNL     1       9.555  -3.114  27.336  0.00  0.00    +0.210 HD
ENDBRANCH   8  11
BRANCH  10  13
ATOM     13  O   UNL     1       9.894  -5.919  25.220  0.00  0.00    -0.386 OA
ATOM     14  H   UNL     1       9.191  -6.536  25.489  0.00  0.00    +0.210 HD
ENDBRANCH  10  13
BRANCH   3  15
ATOM     15  C   UNL     1       7.053  -4.949  22.184  0.00  0.00    +0.183 C 
BRANCH  15  16
ATOM     16  O   UNL     1       6.681  -6.198  21.596  0.00  0.00    -0.393 OA
ATOM     17  H   UNL     1       7.498  -6.683  21.380  0.00  0.00    +0.209 HD
ENDBRANCH  15  16
ENDBRANCH   3  15
ENDBRANCH   1   2
BRANCH   1  22
ATOM     18  C   UNL     1       7.295  -0.421  24.193  0.00  0.00    +0.178 C 
ATOM     19  C   UNL     1       7.730   0.561  23.099  0.00  0.00    +0.177 C 
ATOM     20  C   UNL     1       8.591  -0.197  22.069  0.00  0.00    +0.179 C 
ATOM     21  C   UNL     1       9.748  -0.916  22.766  0.00  0.00    +0.201 C 
ATOM     22  C   UNL     1       9.240  -1.808  23.922  0.00  0.00    +0.282 C 
ATOM     23  O   UNL     1       8.457  -1.001  24.826  0.00  0.00    -0.341 OA
BRANCH  19  24
ATOM     24  O   UNL     1       6.579   1.147  22.489  0.00  0.00    -0.386 OA
ATOM     25  H   UNL     1       6.240   1.843  23.082  0.00  0.00    +0.210 HD
ENDBRANCH  19  24
BRANCH  20  26
ATOM     26  O   UNL     1       9.098   0.715  21.083  0.00  0.00    -0.386 OA
ATOM     27  H   UNL     1       8.395   1.364  20.885  0.00  0.00    +0.210 HD
ENDBRANCH  20  26
BRANCH  21  28
ATOM     28  O   UNL     1      10.558  -1.609  21.807  0.00  0.00    -0.384 OA
ATOM     29  H   UNL     1      10.057  -2.370  21.461  0.00  0.00    +0.210 HD
ENDBRANCH  21  28
BRANCH  18  30
ATOM     30  C   UNL     1       6.393   0.258  25.243  0.00  0.00    +0.190 C 
BRANCH  30  31
ATOM     31  O   UNL     1       5.058   0.446  24.761  0.00  0.00    -0.392 OA
ATOM     32  H   UNL     1       4.459  -0.095  25.304  0.00  0.00    +0.210 HD
ENDBRANCH  30  31
ENDBRANCH  18  30
ENDBRANCH   1  22
TORSDOF 11
ENDMDL
MODEL 3
REMARK VINA RESULT:      -5.9      2.235      5.724
REMARK  Name = 
REMARK  11 active torsions:
REMARK  status: ('A' for Active; 'I' for Inactive)
REMARK    1  A    between atoms: O_1  and  C_2
REMARK    2  A    between atoms: C_2  and  C_3
REMARK    3  A    between atoms: C_6  and  O_8
REMARK    4  A    between atoms: O_8  and  C_9
REMARK    5  A    between atoms: C_11  and  O_13
REMARK    6  A    between atoms: C_14  and  O_16
REMARK    7  A    between atoms: C_22  and  C_24
REMARK    8  A    between atoms: C_24  and  O_25
REMARK    9  A    between atoms: C_26  and  O_28
REMARK   10  A    between atoms: C_29  and  O_31
REMARK   11  A    between atoms: C_32  and  O_34
REMARK                            x       y       z     vdW  Elec       q    Type
REMARK                         _______ _______ _______ _____ _____    ______ ____
ROOT
ATOM      1  O   UNL     1       6.010  -1.834  24.447  0.00  0.00    -0.341 OA
ENDROOT
BRANCH   1   2
ATOM      2  C   UNL     1       5.027  -2.831  24.186  0.00  0.00    +0.178 C 
ATOM      3  C   UNL     1       4.838  -3.585  25.525  0.00  0.00    +0.145 C 
ATOM      4  N   UNL     1       6.055  -4.337  25.814  0.00  0.00    -0.324 N 
ATOM      5  C   UNL     1       6.875  -4.852  24.836  0.00  0.00    +0.141 A 
ATOM      6  N   UNL     1       7.936  -5.402  25.382  0.00  0.00    -0.238 NA
ATOM      7  C   UNL     1       7.787  -5.263  26.736  0.00  0.00    +0.130 A 
ATOM      8  C   UNL     1       6.548  -4.766  23.370  0.00  0.00    +0.211 C 
ATOM      9  C   UNL     1       6.602  -4.626  27.028  0.00  0.00    +0.107 A 
ATOM     10  C   UNL     1       5.335  -3.852  23.072  0.00  0.00    +0.181 C 
BRANCH   8  11
ATOM     11  O   UNL     1       7.686  -4.321  22.628  0.00  0.00    -0.381 OA
ATOM     12  H   UNL     1       7.714  -3.352  22.667  0.00  0.00    +0.210 HD
ENDBRANCH   8  11
BRANCH  10  13
ATOM     13  O   UNL     1       4.129  -4.632  22.890  0.00  0.00    -0.386 OA
ATOM     14  H   UNL     1       3.842  -5.004  23.741  0.00  0.00    +0.210 HD
ENDBRANCH  10  13
BRANCH   3  15
ATOM     15  C   UNL     1       4.415  -2.618  26.644  0.00  0.00    +0.183 C 
BRANCH  15  16
ATOM     16  O   UNL     1       3.763  -1.458  26.122  0.00  0.00    -0.393 OA
ATOM     17  H   UNL     1       3.740  -0.785  26.827  0.00  0.00    +0.209 HD
ENDBRANCH  15  16
ENDBRANCH   3  15
ENDBRANCH   1   2
BRANCH   1  22
ATOM     18  C   UNL     1       8.759  -1.320  24.146  0.00  0.00    +0.178 C 
ATOM     19  C   UNL     1       8.987   0.164  24.460  0.00  0.00    +0.177 C 
ATOM     20  C   UNL     1       7.639   0.799  24.852  0.00  0.00    +0.179 C 
ATOM     21  C   UNL     1       6.590   0.539  23.770  0.00  0.00    +0.201 C 
ATOM     22  C   UNL     1       6.490  -0.968  23.436  0.00  0.00    +0.282 C 
ATOM     23  O   UNL     1       7.799  -1.455  23.076  0.00  0.00    -0.341 OA
BRANCH  19  24
ATOM     24  O   UNL     1       9.952   0.294  25.505  0.00  0.00    -0.386 OA
ATOM     25  H   UNL     1       9.730   1.087  26.029  0.00  0.00    +0.210 HD
ENDBRANCH  19  24
BRANCH  20  26
ATOM     26  O   UNL     1       7.799   2.211  25.056  0.00  0.00    -0.386 OA
ATOM     27  H   UNL     1       7.033   2.528  25.576  0.00  0.00    +0.210 HD
ENDBRANCH  20  26
BRANCH  21  28
ATOM     28  O   UNL     1       5.340   1.142  24.127  0.00  0.00    -0.384 OA
ATOM     29  H   UNL     1       5.037   0.765  24.973  0.00  0.00    +0.210 HD
ENDBRANCH  21  28
BRANCH  18  30
ATOM     30  C   UNL     1      10.075  -2.035  23.783  0.00  0.00    +0.190 C 
BRANCH  30  31
ATOM     31  O   UNL     1      10.051  -3.420  24.143  0.00  0.00    -0.392 OA
ATOM     32  H   UNL     1       9.123  -3.687  24.262  0.00  0.00    +0.210 HD
ENDBRANCH  30  31
ENDBRANCH  18  30
ENDBRANCH   1  22
TORSDOF 11
ENDMDL
MODEL 4
REMARK VINA RESULT:      -5.8      2.328      3.879
REMARK  Name = 
REMARK  11 active torsions:
REMARK  status: ('A' for Active; 'I' for Inactive)
REMARK    1  A    between atoms: O_1  and  C_2
REMARK    2  A    between atoms: C_2  and  C_3
REMARK    3  A    between atoms: C_6  and  O_8
REMARK    4  A    between atoms: O_8  and  C_9
REMARK    5  A    between atoms: C_11  and  O_13
REMARK    6  A    between atoms: C_14  and  O_16
REMARK    7  A    between atoms: C_22  and  C_24
REMARK    8  A    between atoms: C_24  and  O_25
REMARK    9  A    between atoms: C_26  and  O_28
REMARK   10  A    between atoms: C_29  and  O_31
REMARK   11  A    between atoms: C_32  and  O_34
REMARK                            x       y       z     vdW  Elec       q    Type
REMARK                         _______ _______ _______ _____ _____    ______ ____
ROOT
ATOM      1  O   UNL     1       7.445  -1.855  23.008  0.00  0.00    -0.341 OA
ENDROOT
BRANCH   1   2
ATOM      2  C   UNL     1       7.063  -0.511  22.730  0.00  0.00    +0.178 C 
ATOM      3  C   UNL     1       8.373   0.222  22.355  0.00  0.00    +0.145 C 
ATOM      4  N   UNL     1       9.214   0.317  23.545  0.00  0.00    -0.324 N 
ATOM      5  C   UNL     1       8.707   0.409  24.822  0.00  0.00    +0.141 A 
ATOM      6  N   UNL     1       9.687   0.393  25.697  0.00  0.00    -0.238 NA
ATOM      7  C   UNL     1      10.847   0.318  24.972  0.00  0.00    +0.130 A 
ATOM      8  C   UNL     1       7.234   0.508  25.108  0.00  0.00    +0.211 C 
ATOM      9  C   UNL     1      10.574   0.299  23.623  0.00  0.00    +0.107 A 
ATOM     10  C   UNL     1       6.354   0.268  23.857  0.00  0.00    +0.181 C 
BRANCH   8  11
ATOM     11  O   UNL     1       6.863  -0.402  26.146  0.00  0.00    -0.381 OA
ATOM     12  H   UNL     1       6.954  -1.305  25.805  0.00  0.00    +0.210 HD
ENDBRANCH   8  11
BRANCH  10  13
ATOM     13  O   UNL     1       5.923   1.522  23.276  0.00  0.00    -0.386 OA
ATOM     14  H   UNL     1       5.851   1.433  22.310  0.00  0.00    +0.210 HD
ENDBRANCH  10  13
BRANCH   3  15
ATOM     15  C   UNL     1       9.057  -0.457  21.155  0.00  0.00    +0.183 C 
BRANCH  15  16
ATOM     16  O   UNL     1       9.703  -1.675  21.534  0.00  0.00    -0.393 OA
ATOM     17  H   UNL     1      10.591  -1.452  21.866  0.00  0.00    +0.209 HD
ENDBRANCH  15  16
ENDBRANCH   3  15
ENDBRANCH   1   2
BRANCH   1  22
ATOM     18  C   UNL     1       8.245  -3.729  24.947  0.00  0.00    +0.178 C 
ATOM     19  C   UNL     1       8.143  -5.121  24.312  0.00  0.00    +0.177 C 
ATOM     20  C   UNL     1       7.677  -4.965  22.852  0.00  0.00    +0.179 C 
ATOM     21  C   UNL     1       6.386  -4.148  22.786  0.00  0.00    +0.201 C 
ATOM     22  C   UNL     1       6.535  -2.803  23.535  0.00  0.00    +0.282 C 
ATOM     23  O   UNL     1       6.965  -3.065  24.887  0.00  0.00    -0.341 OA
BRANCH  19  24
ATOM     24  O   UNL     1       9.407  -5.783  24.391  0.00  0.00    -0.386 OA
ATOM     25  H   UNL     1       9.889  -5.430  25.163  0.00  0.00    +0.210 HD
ENDBRANCH  19  24
BRANCH  20  26
ATOM     26  O   UNL     1       7.476  -6.256  22.257  0.00  0.00    -0.386 OA
ATOM     27  H   UNL     1       8.161  -6.381  21.571  0.00  0.00    +0.210 HD
ENDBRANCH  20  26
BRANCH  21  28
ATOM     28  O   UNL     1       5.944  -4.015  21.429  0.00  0.00    -0.384 OA
ATOM     29  H   UNL     1       6.062  -3.090  21.147  0.00  0.00    +0.210 HD
ENDBRANCH  21  28
BRANCH  18  30
ATOM     30  C   UNL     1       8.747  -3.802  26.403  0.00  0.00    +0.190 C 
BRANCH  30  31
ATOM     31  O   UNL     1       8.600  -5.114  26.956  0.00  0.00    -0.392 OA
ATOM     32  H   UNL     1       7.649  -5.302  27.045  0.00  0.00    +0.210 HD
ENDBRANCH  30  31
ENDBRANCH  18  30
ENDBRANCH   1  22
TORSDOF 11
ENDMDL
MODEL 5
REMARK VINA RESULT:      -5.7      2.257      5.582
REMARK  Name = 
REMARK  11 active torsions:
REMARK  status: ('A' for Active; 'I' for Inactive)
REMARK    1  A    between atoms: O_1  and  C_2
REMARK    2  A    between atoms: C_2  and  C_3
REMARK    3  A    between atoms: C_6  and  O_8
REMARK    4  A    between atoms: O_8  and  C_9
REMARK    5  A    between atoms: C_11  and  O_13
REMARK    6  A    between atoms: C_14  and  O_16
REMARK    7  A    between atoms: C_22  and  C_24
REMARK    8  A    between atoms: C_24  and  O_25
REMARK    9  A    between atoms: C_26  and  O_28
REMARK   10  A    between atoms: C_29  and  O_31
REMARK   11  A    between atoms: C_32  and  O_34
REMARK                            x       y       z     vdW  Elec       q    Type
REMARK                         _______ _______ _______ _____ _____    ______ ____
ROOT
ATOM      1  O   UNL     1       6.641  -2.545  24.008  0.00  0.00    -0.341 OA
ENDROOT
BRANCH   1   2
ATOM      2  C   UNL     1       6.401  -3.772  23.325  0.00  0.00    +0.178 C 
ATOM      3  C   UNL     1       5.418  -4.560  24.224  0.00  0.00    +0.145 C 
ATOM      4  N   UNL     1       6.113  -4.950  25.447  0.00  0.00    -0.324 N 
ATOM      5  C   UNL     1       7.463  -5.212  25.498  0.00  0.00    +0.141 A 
ATOM      6  N   UNL     1       7.828  -5.453  26.737  0.00  0.00    -0.238 NA
ATOM      7  C   UNL     1       6.691  -5.372  27.495  0.00  0.00    +0.130 A 
ATOM      8  C   UNL     1       8.341  -5.207  24.276  0.00  0.00    +0.211 C 
ATOM      9  C   UNL     1       5.602  -5.088  26.702  0.00  0.00    +0.107 A 
ATOM     10  C   UNL     1       7.625  -4.660  23.017  0.00  0.00    +0.181 C 
BRANCH   8  11
ATOM     11  O   UNL     1       9.535  -4.460  24.520  0.00  0.00    -0.381 OA
ATOM     12  H   UNL     1      10.062  -4.937  25.180  0.00  0.00    +0.210 HD
ENDBRANCH   8  11
BRANCH  10  13
ATOM     13  O   UNL     1       7.144  -5.739  22.182  0.00  0.00    -0.386 OA
ATOM     14  H   UNL     1       6.372  -5.445  21.669  0.00  0.00    +0.210 HD
ENDBRANCH  10  13
BRANCH   3  15
ATOM     15  C   UNL     1       4.129  -3.756  24.463  0.00  0.00    +0.183 C 
BRANCH  15  16
ATOM     16  O   UNL     1       4.333  -2.694  25.398  0.00  0.00    -0.393 OA
ATOM     17  H   UNL     1       4.179  -3.049  26.292  0.00  0.00    +0.209 HD
ENDBRANCH  15  16
ENDBRANCH   3  15
ENDBRANCH   1   2
BRANCH   1  22
ATOM     18  C   UNL     1       9.061  -1.151  23.673  0.00  0.00    +0.178 C 
ATOM     19  C   UNL     1       8.955   0.155  24.469  0.00  0.00    +0.177 C 
ATOM     20  C   UNL     1       7.585   0.193  25.175  0.00  0.00    +0.179 C 
ATOM     21  C   UNL     1       6.456  -0.022  24.164  0.00  0.00    +0.201 C 
ATOM     22  C   UNL     1       6.687  -1.303  23.330  0.00  0.00    +0.282 C 
ATOM     23  O   UNL     1       7.987  -1.231  22.710  0.00  0.00    -0.341 OA
BRANCH  19  24
ATOM     24  O   UNL     1      10.030   0.239  25.407  0.00  0.00    -0.386 OA
ATOM     25  H   UNL     1       9.863  -0.405  26.120  0.00  0.00    +0.210 HD
ENDBRANCH  19  24
BRANCH  20  26
ATOM     26  O   UNL     1       7.412   1.448  25.850  0.00  0.00    -0.386 OA
ATOM     27  H   UNL     1       7.159   1.259  26.775  0.00  0.00    +0.210 HD
ENDBRANCH  20  26
BRANCH  21  28
ATOM     28  O   UNL     1       5.182   0.029  24.818  0.00  0.00    -0.384 OA
ATOM     29  H   UNL     1       5.302   0.379  25.719  0.00  0.00    +0.210 HD
ENDBRANCH  21  28
BRANCH  18  30
ATOM     30  C   UNL     1      10.426  -1.280  22.969  0.00  0.00    +0.190 C 
BRANCH  30  31
ATOM     31  O   UNL     1      10.285  -1.553  21.571  0.00  0.00    -0.392 OA
ATOM     32  H   UNL     1       9.358  -1.791  21.398  0.00  0.00    +0.210 HD
ENDBRANCH  30  31
ENDBRANCH  18  30
ENDBRANCH   1  22
TORSDOF 11
ENDMDL
MODEL 6
REMARK VINA RESULT:      -5.6      2.513      4.073
REMARK  Name = 
REMARK  11 active torsions:
REMARK  status: ('A' for Active; 'I' for Inactive)
REMARK    1  A    between atoms: O_1  and  C_2
REMARK    2  A    between atoms: C_2  and  C_3
REMARK    3  A    between atoms: C_6  and  O_8
REMARK    4  A    between atoms: O_8  and  C_9
REMARK    5  A    between atoms: C_11  and  O_13
REMARK    6  A    between atoms: C_14  and  O_16
REMARK    7  A    between atoms: C_22  and  C_24
REMARK    8  A    between atoms: C_24  and  O_25
REMARK    9  A    between atoms: C_26  and  O_28
REMARK   10  A    between atoms: C_29  and  O_31
REMARK   11  A    between atoms: C_32  and  O_34
REMARK                            x       y       z     vdW  Elec       q    Type
REMARK                         _______ _______ _______ _____ _____    ______ ____
ROOT
ATOM      1  O   UNL     1       8.512  -1.703  24.728  0.00  0.00    -0.341 OA
ENDROOT
BRANCH   1   2
ATOM      2  C   UNL     1       9.459  -0.670  24.983  0.00  0.00    +0.178 C 
ATOM      3  C   UNL     1       8.618   0.596  25.277  0.00  0.00    +0.145 C 
ATOM      4  N   UNL     1       7.947   1.008  24.048  0.00  0.00    -0.324 N 
ATOM      5  C   UNL     1       8.474   0.800  22.794  0.00  0.00    +0.141 A 
ATOM      6  N   UNL     1       7.619   1.192  21.876  0.00  0.00    -0.238 NA
ATOM      7  C   UNL     1       6.534   1.686  22.549  0.00  0.00    +0.130 A 
ATOM      8  C   UNL     1       9.837   0.205  22.572  0.00  0.00    +0.211 C 
ATOM      9  C   UNL     1       6.731   1.608  23.909  0.00  0.00    +0.107 A 
ATOM     10  C   UNL     1      10.476  -0.351  23.868  0.00  0.00    +0.181 C 
BRANCH   8  11
ATOM     11  O   UNL     1       9.780  -0.822  21.578  0.00  0.00    -0.381 OA
ATOM     12  H   UNL     1       9.491  -1.643  22.007  0.00  0.00    +0.210 HD
ENDBRANCH   8  11
BRANCH  10  13
ATOM     13  O   UNL     1      11.415   0.594  24.432  0.00  0.00    -0.386 OA
ATOM     14  H   UNL     1      12.021   0.913  23.741  0.00  0.00    +0.210 HD
ENDBRANCH  10  13
BRANCH   3  15
ATOM     15  C   UNL     1       7.667   0.359  26.464  0.00  0.00    +0.183 C 
BRANCH  15  16
ATOM     16  O   UNL     1       8.338  -0.257  27.565  0.00  0.00    -0.393 OA
ATOM     17  H   UNL     1       8.798   0.442  28.064  0.00  0.00    +0.209 HD
ENDBRANCH  15  16
ENDBRANCH   3  15
ENDBRANCH   1   2
BRANCH   1  22
ATOM     18  C   UNL     1       6.725  -3.241  23.193  0.00  0.00    +0.178 C 
ATOM     19  C   UNL     1       6.433  -4.526  23.976  0.00  0.00    +0.177 C 
ATOM     20  C   UNL     1       7.196  -4.474  25.314  0.00  0.00    +0.179 C 
ATOM     21  C   UNL     1       8.684  -4.209  25.071  0.00  0.00    +0.201 C 
ATOM     22  C   UNL     1       8.894  -2.956  24.190  0.00  0.00    +0.282 C 
ATOM     23  O   UNL     1       8.145  -3.113  22.967  0.00  0.00    -0.341 OA
BRANCH  19  24
ATOM     24  O   UNL     1       5.025  -4.658  24.182  0.00  0.00    -0.386 OA
ATOM     25  H   UNL     1       4.623  -4.969  23.349  0.00  0.00    +0.210 HD
ENDBRANCH  19  24
BRANCH  20  26
ATOM     26  O   UNL     1       7.024  -5.706  26.030  0.00  0.00    -0.386 OA
ATOM     27  H   UNL     1       6.864  -6.414  25.374  0.00  0.00    +0.210 HD
ENDBRANCH  20  26
BRANCH  21  28
ATOM     28  O   UNL     1       9.397  -4.176  26.314  0.00  0.00    -0.384 OA
ATOM     29  H   UNL     1       8.920  -3.598  26.937  0.00  0.00    +0.210 HD
ENDBRANCH  21  28
BRANCH  18  30
ATOM     30  C   UNL     1       5.960  -3.202  21.855  0.00  0.00    +0.190 C 
BRANCH  30  31
ATOM     31  O   UNL     1       5.645  -4.515  21.380  0.00  0.00    -0.392 OA
ATOM     32  H   UNL     1       6.011  -4.610  20.483  0.00  0.00    +0.210 HD
ENDBRANCH  30  31
ENDBRANCH  18  30
ENDBRANCH   1  22
TORSDOF 11
ENDMDL
MODEL 7
REMARK VINA RESULT:      -5.6      2.033      3.817
REMARK  Name = 
REMARK  11 active torsions:
REMARK  status: ('A' for Active; 'I' for Inactive)
REMARK    1  A    between atoms: O_1  and  C_2
REMARK    2  A    between atoms: C_2  and  C_3
REMARK    3  A    between atoms: C_6  and  O_8
REMARK    4  A    between atoms: O_8  and  C_9
REMARK    5  A    between atoms: C_11  and  O_13
REMARK    6  A    between atoms: C_14  and  O_16
REMARK    7  A    between atoms: C_22  and  C_24
REMARK    8  A    between atoms: C_24  and  O_25
REMARK    9  A    between atoms: C_26  and  O_28
REMARK   10  A    between atoms: C_29  and  O_31
REMARK   11  A    between atoms: C_32  and  O_34
REMARK                            x       y       z     vdW  Elec       q    Type
REMARK                         _______ _______ _______ _____ _____    ______ ____
ROOT
ATOM      1  O   UNL     1       6.295  -3.878  25.264  0.00  0.00    -0.341 OA
ENDROOT
BRANCH   1   2
ATOM      2  C   UNL     1       6.730  -4.899  24.371  0.00  0.00    +0.178 C 
ATOM      3  C   UNL     1       8.274  -4.800  24.350  0.00  0.00    +0.145 C 
ATOM      4  N   UNL     1       8.655  -3.553  23.695  0.00  0.00    -0.324 N 
ATOM      5  C   UNL     1       7.908  -2.964  22.700  0.00  0.00    +0.141 A 
ATOM      6  N   UNL     1       8.441  -1.813  22.358  0.00  0.00    -0.238 NA
ATOM      7  C   UNL     1       9.566  -1.669  23.125  0.00  0.00    +0.130 A 
ATOM      8  C   UNL     1       6.668  -3.597  22.129  0.00  0.00    +0.211 C 
ATOM      9  C   UNL     1       9.734  -2.760  23.947  0.00  0.00    +0.107 A 
ATOM     10  C   UNL     1       6.202  -4.842  22.922  0.00  0.00    +0.181 C 
BRANCH   8  11
ATOM     11  O   UNL     1       5.607  -2.642  22.054  0.00  0.00    -0.381 OA
ATOM     12  H   UNL     1       5.134  -2.780  21.219  0.00  0.00    +0.210 HD
ENDBRANCH   8  11
BRANCH  10  13
ATOM     13  O   UNL     1       6.642  -6.063  22.281  0.00  0.00    -0.386 OA
ATOM     14  H   UNL     1       6.158  -6.823  22.646  0.00  0.00    +0.210 HD
ENDBRANCH  10  13
BRANCH   3  15
ATOM     15  C   UNL     1       8.853  -4.969  25.766  0.00  0.00    +0.183 C 
BRANCH  15  16
ATOM     16  O   UNL     1       8.074  -5.873  26.553  0.00  0.00    -0.393 OA
ATOM     17  H   UNL     1       8.675  -6.545  26.920  0.00  0.00    +0.209 HD
ENDBRANCH  15  16
ENDBRANCH   3  15
ENDBRANCH   1   2
BRANCH   1  22
ATOM     18  C   UNL     1       5.686  -1.143  25.508  0.00  0.00    +0.178 C 
ATOM     19  C   UNL     1       4.976  -0.947  26.853  0.00  0.00    +0.177 C 
ATOM     20  C   UNL     1       4.896  -2.308  27.572  0.00  0.00    +0.179 C 
ATOM     21  C   UNL     1       4.248  -3.355  26.664  0.00  0.00    +0.201 C 
ATOM     22  C   UNL     1       4.955  -3.422  25.291  0.00  0.00    +0.282 C 
ATOM     23  O   UNL     1       4.967  -2.104  24.705  0.00  0.00    -0.341 OA
BRANCH  19  24
ATOM     24  O   UNL     1       5.680   0.019  27.636  0.00  0.00    -0.386 OA
ATOM     25  H   UNL     1       6.601   0.058  27.316  0.00  0.00    +0.210 HD
ENDBRANCH  19  24
BRANCH  20  26
ATOM     26  O   UNL     1       4.148  -2.179  28.790  0.00  0.00    -0.386 OA
ATOM     27  H   UNL     1       4.273  -3.000  29.307  0.00  0.00    +0.210 HD
ENDBRANCH  20  26
BRANCH  21  28
ATOM     28  O   UNL     1       4.160  -4.618  27.338  0.00  0.00    -0.384 OA
ATOM     29  H   UNL     1       3.930  -5.307  26.689  0.00  0.00    +0.210 HD
ENDBRANCH  21  28
BRANCH  18  30
ATOM     30  C   UNL     1       5.840   0.188  24.746  0.00  0.00    +0.190 C 
BRANCH  30  31
ATOM     31  O   UNL     1       6.165  -0.018  23.367  0.00  0.00    -0.392 OA
ATOM     32  H   UNL     1       5.900  -0.922  23.123  0.00  0.00    +0.210 HD
ENDBRANCH  30  31
ENDBRANCH  18  30
ENDBRANCH   1  22
TORSDOF 11
ENDMDL
MODEL 8
REMARK VINA RESULT:      -5.5      2.576      5.244
REMARK  Name = 
REMARK  11 active torsions:
REMARK  status: ('A' for Active; 'I' for Inactive)
REMARK    1  A    between atoms: O_1  and  C_2
REMARK    2  A    between atoms: C_2  and  C_3
REMARK    3  A    between atoms: C_6  and  O_8
REMARK    4  A    between atoms: O_8  and  C_9
REMARK    5  A    between atoms: C_11  and  O_13
REMARK    6  A    between atoms: C_14  and  O_16
REMARK    7  A    between atoms: C_22  and  C_24
REMARK    8  A    between atoms: C_24  and  O_25
REMARK    9  A    between atoms: C_26  and  O_28
REMARK   10  A    between atoms: C_29  and  O_31
REMARK   11  A    between atoms: C_32  and  O_34
REMARK                            x       y       z     vdW  Elec       q    Type
REMARK                         _______ _______ _______ _____ _____    ______ ____
ROOT
ATOM      1  O   UNL     1       7.759  -2.520  24.986  0.00  0.00    -0.341 OA
ENDROOT
BRANCH   1   2
ATOM      2  C   UNL     1       8.650  -3.554  24.580  0.00  0.00    +0.178 C 
ATOM      3  C   UNL     1       7.900  -4.335  23.473  0.00  0.00    +0.145 C 
ATOM      4  N   UNL     1       6.773  -5.038  24.078  0.00  0.00    -0.324 N 
ATOM      5  C   UNL     1       6.781  -5.504  25.373  0.00  0.00    +0.141 A 
ATOM      6  N   UNL     1       5.609  -6.016  25.675  0.00  0.00    -0.238 NA
ATOM      7  C   UNL     1       4.840  -5.903  24.548  0.00  0.00    +0.130 A 
ATOM      8  C   UNL     1       7.989  -5.411  26.265  0.00  0.00    +0.211 C 
ATOM      9  C   UNL     1       5.559  -5.321  23.528  0.00  0.00    +0.107 A 
ATOM     10  C   UNL     1       9.123  -4.546  25.663  0.00  0.00    +0.181 C 
BRANCH   8  11
ATOM     11  O   UNL     1       7.624  -4.908  27.553  0.00  0.00    -0.381 OA
ATOM     12  H   UNL     1       8.131  -4.098  27.717  0.00  0.00    +0.210 HD
ENDBRANCH   8  11
BRANCH  10  13
ATOM     13  O   UNL     1      10.135  -5.373  25.043  0.00  0.00    -0.386 OA
ATOM     14  H   UNL     1      10.004  -5.393  24.080  0.00  0.00    +0.210 HD
ENDBRANCH  10  13
BRANCH   3  15
ATOM     15  C   UNL     1       7.509  -3.402  22.314  0.00  0.00    +0.183 C 
BRANCH  15  16
ATOM     16  O   UNL     1       8.485  -2.378  22.107  0.00  0.00    -0.393 OA
ATOM     17  H   UNL     1       9.223  -2.765  21.602  0.00  0.00    +0.209 HD
ENDBRANCH  15  16
ENDBRANCH   3  15
ENDBRANCH   1   2
BRANCH   1  22
ATOM     18  C   UNL     1       5.948  -0.602  25.964  0.00  0.00    +0.178 C 
ATOM     19  C   UNL     1       6.185   0.696  25.183  0.00  0.00    +0.177 C 
ATOM     20  C   UNL     1       7.294   0.450  24.141  0.00  0.00    +0.179 C 
ATOM     21  C   UNL     1       8.545  -0.116  24.814  0.00  0.00    +0.201 C 
ATOM     22  C   UNL     1       8.209  -1.362  25.666  0.00  0.00    +0.282 C 
ATOM     23  O   UNL     1       7.171  -1.020  26.608  0.00  0.00    -0.341 OA
BRANCH  19  24
ATOM     24  O   UNL     1       4.968   1.116  24.563  0.00  0.00    -0.386 OA
ATOM     25  H   UNL     1       4.389   0.337  24.468  0.00  0.00    +0.210 HD
ENDBRANCH  19  24
BRANCH  20  26
ATOM     26  O   UNL     1       7.610   1.672  23.458  0.00  0.00    -0.386 OA
ATOM     27  H   UNL     1       8.011   1.440  22.596  0.00  0.00    +0.210 HD
ENDBRANCH  20  26
BRANCH  21  28
ATOM     28  O   UNL     1       9.582  -0.331  23.848  0.00  0.00    -0.384 OA
ATOM     29  H   UNL     1      10.220   0.404  23.899  0.00  0.00    +0.210 HD
ENDBRANCH  21  28
BRANCH  18  30
ATOM     30  C   UNL     1       4.820  -0.444  27.002  0.00  0.00    +0.190 C 
BRANCH  30  31
ATOM     31  O   UNL     1       3.526  -0.427  26.390  0.00  0.00    -0.392 OA
ATOM     32  H   UNL     1       3.021   0.315  26.765  0.00  0.00    +0.210 HD
ENDBRANCH  30  31
ENDBRANCH  18  30
ENDBRANCH   1  22
TORSDOF 11
ENDMDL
MODEL 9
REMARK VINA RESULT:      -5.4      4.307      7.109
REMARK  Name = 
REMARK  11 active torsions:
REMARK  status: ('A' for Active; 'I' for Inactive)
REMARK    1  A    between atoms: O_1  and  C_2
REMARK    2  A    between atoms: C_2  and  C_3
REMARK    3  A    between atoms: C_6  and  O_8
REMARK    4  A    between atoms: O_8  and  C_9
REMARK    5  A    between atoms: C_11  and  O_13
REMARK    6  A    between atoms: C_14  and  O_16
REMARK    7  A    between atoms: C_22  and  C_24
REMARK    8  A    between atoms: C_24  and  O_25
REMARK    9  A    between atoms: C_26  and  O_28
REMARK   10  A    between atoms: C_29  and  O_31
REMARK   11  A    between atoms: C_32  and  O_34
REMARK                            x       y       z     vdW  Elec       q    Type
REMARK                         _______ _______ _______ _____ _____    ______ ____
ROOT
ATOM      1  O   UNL     1       8.300   1.798  23.812  0.00  0.00    -0.341 OA
ENDROOT
BRANCH   1   2
ATOM      2  C   UNL     1       9.612   1.244  23.804  0.00  0.00    +0.178 C 
ATOM      3  C   UNL     1       9.565   0.088  22.776  0.00  0.00    +0.145 C 
ATOM      4  N   UNL     1       8.720  -0.977  23.308  0.00  0.00    -0.324 N 
ATOM      5  C   UNL     1       8.590  -1.238  24.653  0.00  0.00    +0.141 A 
ATOM      6  N   UNL     1       7.704  -2.188  24.844  0.00  0.00    -0.238 NA
ATOM      7  C   UNL     1       7.273  -2.567  23.600  0.00  0.00    +0.130 A 
ATOM      8  C   UNL     1       9.377  -0.505  25.704  0.00  0.00    +0.211 C 
ATOM      9  C   UNL     1       7.919  -1.842  22.624  0.00  0.00    +0.107 A 
ATOM     10  C   UNL     1      10.161   0.707  25.142  0.00  0.00    +0.181 C 
BRANCH   8  11
ATOM     11  O   UNL     1       8.521  -0.079  26.767  0.00  0.00    -0.381 OA
ATOM     12  H   UNL     1       7.607  -0.082  26.440  0.00  0.00    +0.210 HD
ENDBRANCH   8  11
BRANCH  10  13
ATOM     13  O   UNL     1      11.547   0.366  24.906  0.00  0.00    -0.386 OA
ATOM     14  H   UNL     1      11.886  -0.176  25.639  0.00  0.00    +0.210 HD
ENDBRANCH  10  13
BRANCH   3  15
ATOM     15  C   UNL     1       9.132   0.602  21.392  0.00  0.00    +0.183 C 
BRANCH  15  16
ATOM     16  O   UNL     1       9.452   1.984  21.217  0.00  0.00    -0.393 OA
ATOM     17  H   UNL     1       8.794   2.508  21.709  0.00  0.00    +0.209 HD
ENDBRANCH  15  16
ENDBRANCH   3  15
ENDBRANCH   1   2
BRANCH   1  22
ATOM     18  C   UNL     1       5.707   2.889  23.756  0.00  0.00    +0.178 C 
ATOM     19  C   UNL     1       5.758   4.152  22.890  0.00  0.00    +0.177 C 
ATOM     20  C   UNL     1       7.192   4.327  22.352  0.00  0.00    +0.179 C 
ATOM     21  C   UNL     1       8.200   4.312  23.503  0.00  0.00    +0.201 C 
ATOM     22  C   UNL     1       8.019   3.059  24.391  0.00  0.00    +0.282 C 
ATOM     23  O   UNL     1       6.651   2.999  24.844  0.00  0.00    -0.341 OA
BRANCH  19  24
ATOM     24  O   UNL     1       4.809   4.048  21.826  0.00  0.00    -0.386 OA
ATOM     25  H   UNL     1       4.201   4.808  21.884  0.00  0.00    +0.210 HD
ENDBRANCH  19  24
BRANCH  20  26
ATOM     26  O   UNL     1       7.298   5.555  21.617  0.00  0.00    -0.386 OA
ATOM     27  H   UNL     1       7.701   6.224  22.207  0.00  0.00    +0.210 HD
ENDBRANCH  20  26
BRANCH  21  28
ATOM     28  O   UNL     1       9.532   4.489  23.006  0.00  0.00    -0.384 OA
ATOM     29  H   UNL     1      10.111   4.762  23.741  0.00  0.00    +0.210 HD
ENDBRANCH  21  28
BRANCH  18  30
ATOM     30  C   UNL     1       4.289   2.626  24.299  0.00  0.00    +0.190 C 
BRANCH  30  31
ATOM     31  O   UNL     1       4.284   1.629  25.326  0.00  0.00    -0.392 OA
ATOM     32  H   UNL     1       5.179   1.254  25.391  0.00  0.00    +0.210 HD
ENDBRANCH  30  31
ENDBRANCH  18  30
ENDBRANCH   1  22
TORSDOF 11
ENDMDL
