MODEL 1
REMARK VINA RESULT:      -8.5      0.000      0.000
REMARK  Name = 
REMARK  13 active torsions:
REMARK  status: ('A' for Active; 'I' for Inactive)
REMARK    1  A    between atoms: C_1  and  O_2
REMARK    2  A    between atoms: O_2  and  C_3
REMARK    3  A    between atoms: C_3  and  C_5
REMARK    4  A    between atoms: C_5  and  C_7
REMARK    5  A    between atoms: C_5  and  C_17
REMARK    6  A    between atoms: C_7  and  C_8
REMARK    7  A    between atoms: C_12  and  C_14
REMARK    8  A    between atoms: C_17  and  C_19
REMARK    9  A    between atoms: C_17  and  N_20
REMARK   10  A    between atoms: C_21  and  C_23
REMARK   11  A    between atoms: C_26  and  C_29
REMARK   12  A    between atoms: C_33  and  C_34
REMARK   13  A    between atoms: C_34  and  N_35
REMARK                            x       y       z     vdW  Elec       q    Type
REMARK                         _______ _______ _______ _____ _____    ______ ____
ROOT
ATOM      1  C   UNL     1       7.533  -3.887  22.724  0.00  0.00    +0.084 C 
ATOM      2  C   UNL     1       6.429  -4.023  21.669  0.00  0.00    +0.028 C 
ENDROOT
BRANCH   1   3
ATOM      3  N   UNL     1       7.853  -2.468  22.887  0.00  0.00    -0.308 N 
ATOM      4  H   UNL     1       7.098  -1.795  22.801  0.00  0.00    +0.149 HD
ATOM      5  C   UNL     1       9.148  -2.003  22.977  0.00  0.00    +0.244 C 
ATOM      6  O   UNL     1      10.131  -2.730  22.910  0.00  0.00    -0.270 OA
BRANCH   5   7
ATOM      7  C   UNL     1       9.305  -0.527  23.098  0.00  0.00    +0.037 A 
ATOM      8  C   UNL     1       9.058   0.071  24.334  0.00  0.00    +0.013 A 
ATOM      9  C   UNL     1       9.295   1.440  24.515  0.00  0.00    +0.009 A 
ATOM     10  C   UNL     1       9.791   2.248  23.473  0.00  0.00    -0.018 A 
ATOM     11  C   UNL     1       9.954   1.638  22.215  0.00  0.00    +0.009 A 
ATOM     12  C   UNL     1       9.712   0.270  22.023  0.00  0.00    +0.013 A 
BRANCH  10  13
ATOM     13  C   UNL     1      10.201   3.655  23.715  0.00  0.00    -0.018 A 
ATOM     14  C   UNL     1      11.473   4.109  23.307  0.00  0.00    +0.013 A 
ATOM     15  C   UNL     1      11.883   5.448  23.447  0.00  0.00    -0.033 A 
ATOM     16  C   UNL     1      10.978   6.366  23.989  0.00  0.00    +0.005 A 
ATOM     17  C   UNL     1       9.716   5.948  24.408  0.00  0.00    +0.001 A 
ATOM     18  C   UNL     1       9.337   4.606  24.280  0.00  0.00    +0.008 A 
BRANCH  15  19
ATOM     19  C   UNL     1      13.217   5.919  22.919  0.00  0.00    +0.113 C 
BRANCH  19  20
ATOM     20  N   UNL     1      14.286   4.942  23.110  0.00  0.00    -0.326 NA
ATOM     21  H   UNL     1      14.450   4.453  22.231  0.00  0.00    +0.119 HD
ATOM     22  H   UNL     1      15.147   5.439  23.331  0.00  0.00    +0.119 HD
ENDBRANCH  19  20
ENDBRANCH  15  19
ENDBRANCH  10  13
ENDBRANCH   5   7
ENDBRANCH   1   3
BRANCH   1  23
ATOM     23  C   UNL     1       7.130  -4.533  24.069  0.00  0.00    +0.122 C 
BRANCH  23  24
ATOM     24  C   UNL     1       8.380  -5.080  24.744  0.00  0.00    +0.312 C 
ATOM     25  O   UNL     1       9.205  -5.756  24.136  0.00  0.00    -0.250 OA
BRANCH  24  27
ATOM     26  C   UNL     1       8.179  -3.427  26.435  0.00  0.00    +0.280 C 
ATOM     27  O   UNL     1       8.424  -4.789  26.068  0.00  0.00    -0.468 OA
ENDBRANCH  24  27
ENDBRANCH  23  24
BRANCH  23  28
ATOM     28  C   UNL     1       6.025  -5.600  23.905  0.00  0.00    +0.051 C 
BRANCH  28  29
ATOM     29  C   UNL     1       4.995  -5.611  25.015  0.00  0.00    -0.046 A 
ATOM     30  C   UNL     1       5.216  -6.379  26.170  0.00  0.00    +0.019 A 
ATOM     31  C   UNL     1       4.314  -6.331  27.239  0.00  0.00    +0.065 A 
ATOM     32  C   UNL     1       3.155  -5.557  27.136  0.00  0.00    +0.016 A 
ATOM     33  C   UNL     1       2.913  -4.818  25.978  0.00  0.00    +0.001 A 
ATOM     34  C   UNL     1       3.829  -4.841  24.925  0.00  0.00    +0.004 A 
BRANCH  31  35
ATOM     35  C   UNL     1       4.627  -7.077  28.492  0.00  0.00    +0.308 C 
ATOM     36  N   UNL     1       3.708  -7.541  29.279  0.00  0.00    -0.099 NA
ATOM     37  H   UNL     1       2.772  -7.287  28.951  0.00  0.00    +0.363 HD
ATOM     38  N   UNL     1       5.913  -7.294  28.870  0.00  0.00    -0.247 N 
ATOM     39  H   UNL     1       5.949  -7.949  29.649  0.00  0.00    +0.288 HD
ATOM     40  H   UNL     1       6.557  -7.547  28.129  0.00  0.00    +0.288 HD
ENDBRANCH  31  35
ENDBRANCH  28  29
ENDBRANCH  23  28
ENDBRANCH   1  23
TORSDOF 11
ENDMDL
MODEL 2
REMARK VINA RESULT:      -8.1      1.888      2.040
REMARK  Name = 
REMARK  13 active torsions:
REMARK  status: ('A' for Active; 'I' for Inactive)
REMARK    1  A    between atoms: C_1  and  O_2
REMARK    2  A    between atoms: O_2  and  C_3
REMARK    3  A    between atoms: C_3  and  C_5
REMARK    4  A    between atoms: C_5  and  C_7
REMARK    5  A    between atoms: C_5  and  C_17
REMARK    6  A    between atoms: C_7  and  C_8
REMARK    7  A    between atoms: C_12  and  C_14
REMARK    8  A    between atoms: C_17  and  C_19
REMARK    9  A    between atoms: C_17  and  N_20
REMARK   10  A    between atoms: C_21  and  C_23
REMARK   11  A    between atoms: C_26  and  C_29
REMARK   12  A    between atoms: C_33  and  C_34
REMARK   13  A    between atoms: C_34  and  N_35
REMARK                            x       y       z     vdW  Elec       q    Type
REMARK                         _______ _______ _______ _____ _____    ______ ____
ROOT
ATOM      1  C   UNL     1       7.629  -4.376  23.316  0.00  0.00    +0.084 C 
ATOM      2  C   UNL     1       7.208  -4.734  21.885  0.00  0.00    +0.028 C 
ENDROOT
BRANCH   1   3
ATOM      3  N   UNL     1       7.898  -2.940  23.379  0.00  0.00    -0.308 N 
ATOM      4  H   UNL     1       7.149  -2.301  23.132  0.00  0.00    +0.149 HD
ATOM      5  C   UNL     1       9.161  -2.428  23.589  0.00  0.00    +0.244 C 
ATOM      6  O   UNL     1      10.158  -3.127  23.719  0.00  0.00    -0.270 OA
BRANCH   5   7
ATOM      7  C   UNL     1       9.274  -0.943  23.584  0.00  0.00    +0.037 A 
ATOM      8  C   UNL     1       9.024  -0.251  24.769  0.00  0.00    +0.013 A 
ATOM      9  C   UNL     1       9.220   1.135  24.832  0.00  0.00    +0.009 A 
ATOM     10  C   UNL     1       9.677   1.867  23.720  0.00  0.00    -0.018 A 
ATOM     11  C   UNL     1       9.844   1.159  22.514  0.00  0.00    +0.009 A 
ATOM     12  C   UNL     1       9.642  -0.227  22.440  0.00  0.00    +0.013 A 
BRANCH  10  13
ATOM     13  C   UNL     1      10.046   3.301  23.837  0.00  0.00    -0.018 A 
ATOM     14  C   UNL     1      11.280   3.766  23.334  0.00  0.00    +0.013 A 
ATOM     15  C   UNL     1      11.646   5.124  23.355  0.00  0.00    -0.033 A 
ATOM     16  C   UNL     1      10.735   6.050  23.874  0.00  0.00    +0.005 A 
ATOM     17  C   UNL     1       9.511   5.622  24.386  0.00  0.00    +0.001 A 
ATOM     18  C   UNL     1       9.176   4.263  24.374  0.00  0.00    +0.008 A 
BRANCH  15  19
ATOM     19  C   UNL     1      12.935   5.599  22.728  0.00  0.00    +0.113 C 
BRANCH  19  20
ATOM     20  N   UNL     1      14.106   4.864  23.200  0.00  0.00    -0.326 NA
ATOM     21  H   UNL     1      14.645   5.464  23.823  0.00  0.00    +0.119 HD
ATOM     22  H   UNL     1      13.793   4.073  23.759  0.00  0.00    +0.119 HD
ENDBRANCH  19  20
ENDBRANCH  15  19
ENDBRANCH  10  13
ENDBRANCH   5   7
ENDBRANCH   1   3
BRANCH   1  23
ATOM     23  C   UNL     1       6.564  -4.798  24.354  0.00  0.00    +0.122 C 
BRANCH  23  24
ATOM     24  C   UNL     1       7.174  -4.708  25.745  0.00  0.00    +0.312 C 
ATOM     25  O   UNL     1       7.650  -5.687  26.313  0.00  0.00    -0.250 OA
BRANCH  24  27
ATOM     26  C   UNL     1       5.749  -2.908  26.348  0.00  0.00    +0.280 C 
ATOM     27  O   UNL     1       7.066  -3.466  26.280  0.00  0.00    -0.468 OA
ENDBRANCH  24  27
ENDBRANCH  23  24
BRANCH  23  28
ATOM     28  C   UNL     1       5.964  -6.190  24.055  0.00  0.00    +0.051 C 
BRANCH  28  29
ATOM     29  C   UNL     1       4.450  -6.231  24.052  0.00  0.00    -0.046 A 
ATOM     30  C   UNL     1       3.777  -7.299  24.667  0.00  0.00    +0.019 A 
ATOM     31  C   UNL     1       2.379  -7.307  24.746  0.00  0.00    +0.065 A 
ATOM     32  C   UNL     1       1.644  -6.274  24.159  0.00  0.00    +0.016 A 
ATOM     33  C   UNL     1       2.306  -5.227  23.516  0.00  0.00    +0.001 A 
ATOM     34  C   UNL     1       3.701  -5.203  23.466  0.00  0.00    +0.004 A 
BRANCH  31  35
ATOM     35  C   UNL     1       1.696  -8.400  25.496  0.00  0.00    +0.308 C 
ATOM     36  N   UNL     1       1.985  -9.653  25.326  0.00  0.00    -0.099 NA
ATOM     37  H   UNL     1       2.689  -9.777  24.593  0.00  0.00    +0.363 HD
ATOM     38  N   UNL     1       0.719  -8.123  26.398  0.00  0.00    -0.247 N 
ATOM     39  H   UNL     1       0.479  -8.956  26.930  0.00  0.00    +0.288 HD
ATOM     40  H   UNL     1       0.883  -7.322  26.997  0.00  0.00    +0.288 HD
ENDBRANCH  31  35
ENDBRANCH  28  29
ENDBRANCH  23  28
ENDBRANCH   1  23
TORSDOF 11
ENDMDL
MODEL 3
REMARK VINA RESULT:      -8.1      1.191      1.641
REMARK  Name = 
REMARK  13 active torsions:
REMARK  status: ('A' for Active; 'I' for Inactive)
REMARK    1  A    between atoms: C_1  and  O_2
REMARK    2  A    between atoms: O_2  and  C_3
REMARK    3  A    between atoms: C_3  and  C_5
REMARK    4  A    between atoms: C_5  and  C_7
REMARK    5  A    between atoms: C_5  and  C_17
REMARK    6  A    between atoms: C_7  and  C_8
REMARK    7  A    between atoms: C_12  and  C_14
REMARK    8  A    between atoms: C_17  and  C_19
REMARK    9  A    between atoms: C_17  and  N_20
REMARK   10  A    between atoms: C_21  and  C_23
REMARK   11  A    between atoms: C_26  and  C_29
REMARK   12  A    between atoms: C_33  and  C_34
REMARK   13  A    between atoms: C_34  and  N_35
REMARK                            x       y       z     vdW  Elec       q    Type
REMARK                         _______ _______ _______ _____ _____    ______ ____
ROOT
ATOM      1  C   UNL     1       7.573  -3.721  22.744  0.00  0.00    +0.084 C 
ATOM      2  C   UNL     1       6.484  -3.818  21.669  0.00  0.00    +0.028 C 
ENDROOT
BRANCH   1   3
ATOM      3  N   UNL     1       7.951  -2.317  22.902  0.00  0.00    -0.308 N 
ATOM      4  H   UNL     1       7.217  -1.616  22.865  0.00  0.00    +0.149 HD
ATOM      5  C   UNL     1       9.265  -1.898  22.925  0.00  0.00    +0.244 C 
ATOM      6  O   UNL     1      10.216  -2.659  22.798  0.00  0.00    -0.270 OA
BRANCH   5   7
ATOM      7  C   UNL     1       9.480  -0.430  23.050  0.00  0.00    +0.037 A 
ATOM      8  C   UNL     1       9.402   0.151  24.316  0.00  0.00    +0.013 A 
ATOM      9  C   UNL     1       9.701   1.508  24.490  0.00  0.00    +0.009 A 
ATOM     10  C   UNL     1      10.093   2.322  23.409  0.00  0.00    -0.018 A 
ATOM     11  C   UNL     1      10.086   1.733  22.131  0.00  0.00    +0.009 A 
ATOM     12  C   UNL     1       9.781   0.376  21.947  0.00  0.00    +0.013 A 
BRANCH  10  13
ATOM     13  C   UNL     1      10.572   3.712  23.622  0.00  0.00    -0.018 A 
ATOM     14  C   UNL     1       9.755   4.659  24.275  0.00  0.00    +0.013 A 
ATOM     15  C   UNL     1      10.189   5.965  24.565  0.00  0.00    -0.033 A 
ATOM     16  C   UNL     1      11.493   6.326  24.213  0.00  0.00    +0.005 A 
ATOM     17  C   UNL     1      12.324   5.416  23.560  0.00  0.00    +0.001 A 
ATOM     18  C   UNL     1      11.864   4.128  23.262  0.00  0.00    +0.008 A 
BRANCH  15  19
ATOM     19  C   UNL     1       9.321   6.925  25.344  0.00  0.00    +0.113 C 
BRANCH  19  20
ATOM     20  N   UNL     1       8.891   6.391  26.634  0.00  0.00    -0.326 NA
ATOM     21  H   UNL     1       8.796   7.160  27.296  0.00  0.00    +0.119 HD
ATOM     22  H   UNL     1       7.964   5.985  26.526  0.00  0.00    +0.119 HD
ENDBRANCH  19  20
ENDBRANCH  15  19
ENDBRANCH  10  13
ENDBRANCH   5   7
ENDBRANCH   1   3
BRANCH   1  23
ATOM     23  C   UNL     1       7.116  -4.337  24.087  0.00  0.00    +0.122 C 
BRANCH  23  24
ATOM     24  C   UNL     1       8.342  -4.828  24.843  0.00  0.00    +0.312 C 
ATOM     25  O   UNL     1       9.201  -5.525  24.309  0.00  0.00    -0.250 OA
BRANCH  24  27
ATOM     26  C   UNL     1       7.979  -3.103  26.432  0.00  0.00    +0.280 C 
ATOM     27  O   UNL     1       8.327  -4.463  26.149  0.00  0.00    -0.468 OA
ENDBRANCH  24  27
ENDBRANCH  23  24
BRANCH  23  28
ATOM     28  C   UNL     1       6.050  -5.440  23.900  0.00  0.00    +0.051 C 
BRANCH  28  29
ATOM     29  C   UNL     1       5.006  -5.493  24.995  0.00  0.00    -0.046 A 
ATOM     30  C   UNL     1       5.214  -6.303  26.124  0.00  0.00    +0.019 A 
ATOM     31  C   UNL     1       4.298  -6.297  27.182  0.00  0.00    +0.065 A 
ATOM     32  C   UNL     1       3.138  -5.522  27.093  0.00  0.00    +0.016 A 
ATOM     33  C   UNL     1       2.909  -4.741  25.959  0.00  0.00    +0.001 A 
ATOM     34  C   UNL     1       3.839  -4.723  24.918  0.00  0.00    +0.004 A 
BRANCH  31  35
ATOM     35  C   UNL     1       4.596  -7.087  28.411  0.00  0.00    +0.308 C 
ATOM     36  N   UNL     1       3.709  -7.322  29.326  0.00  0.00    -0.099 NA
ATOM     37  H   UNL     1       2.821  -6.860  29.111  0.00  0.00    +0.363 HD
ATOM     38  N   UNL     1       5.838  -7.593  28.629  0.00  0.00    -0.247 N 
ATOM     39  H   UNL     1       5.827  -8.234  29.419  0.00  0.00    +0.288 HD
ATOM     40  H   UNL     1       6.303  -7.992  27.821  0.00  0.00    +0.288 HD
ENDBRANCH  31  35
ENDBRANCH  28  29
ENDBRANCH  23  28
ENDBRANCH   1  23
TORSDOF 11
ENDMDL
MODEL 4
REMARK VINA RESULT:      -8.0      1.873      2.565
REMARK  Name = 
REMARK  13 active torsions:
REMARK  status: ('A' for Active; 'I' for Inactive)
REMARK    1  A    between atoms: C_1  and  O_2
REMARK    2  A    between atoms: O_2  and  C_3
REMARK    3  A    between atoms: C_3  and  C_5
REMARK    4  A    between atoms: C_5  and  C_7
REMARK    5  A    between atoms: C_5  and  C_17
REMARK    6  A    between atoms: C_7  and  C_8
REMARK    7  A    between atoms: C_12  and  C_14
REMARK    8  A    between atoms: C_17  and  C_19
REMARK    9  A    between atoms: C_17  and  N_20
REMARK   10  A    between atoms: C_21  and  C_23
REMARK   11  A    between atoms: C_26  and  C_29
REMARK   12  A    between atoms: C_33  and  C_34
REMARK   13  A    between atoms: C_34  and  N_35
REMARK                            x       y       z     vdW  Elec       q    Type
REMARK                         _______ _______ _______ _____ _____    ______ ____
ROOT
ATOM      1  C   UNL     1       7.059  -4.187  24.345  0.00  0.00    +0.084 C 
ATOM      2  C   UNL     1       7.746  -5.111  23.332  0.00  0.00    +0.028 C 
ENDROOT
BRANCH   1   3
ATOM      3  N   UNL     1       7.544  -2.822  24.139  0.00  0.00    -0.308 N 
ATOM      4  H   UNL     1       7.402  -2.397  23.228  0.00  0.00    +0.149 HD
ATOM      5  C   UNL     1       8.328  -2.164  25.062  0.00  0.00    +0.244 C 
ATOM      6  O   UNL     1       8.697  -2.670  26.114  0.00  0.00    -0.270 OA
BRANCH   5   7
ATOM      7  C   UNL     1       8.775  -0.795  24.682  0.00  0.00    +0.037 A 
ATOM      8  C   UNL     1       7.805   0.171  24.409  0.00  0.00    +0.013 A 
ATOM      9  C   UNL     1       8.182   1.495  24.151  0.00  0.00    +0.009 A 
ATOM     10  C   UNL     1       9.532   1.895  24.165  0.00  0.00    -0.018 A 
ATOM     11  C   UNL     1      10.495   0.886  24.363  0.00  0.00    +0.009 A 
ATOM     12  C   UNL     1      10.127  -0.443  24.614  0.00  0.00    +0.013 A 
BRANCH  10  13
ATOM     13  C   UNL     1       9.916   3.326  24.060  0.00  0.00    -0.018 A 
ATOM     14  C   UNL     1      11.140   3.697  23.464  0.00  0.00    +0.013 A 
ATOM     15  C   UNL     1      11.517   5.040  23.276  0.00  0.00    -0.033 A 
ATOM     16  C   UNL     1      10.627   6.042  23.676  0.00  0.00    +0.005 A 
ATOM     17  C   UNL     1       9.413   5.708  24.275  0.00  0.00    +0.001 A 
ATOM     18  C   UNL     1       9.068   4.366  24.472  0.00  0.00    +0.008 A 
BRANCH  15  19
ATOM     19  C   UNL     1      12.793   5.402  22.554  0.00  0.00    +0.113 C 
BRANCH  19  20
ATOM     20  N   UNL     1      13.995   4.970  23.263  0.00  0.00    -0.326 NA
ATOM     21  H   UNL     1      14.689   5.715  23.223  0.00  0.00    +0.119 HD
ATOM     22  H   UNL     1      13.765   4.840  24.246  0.00  0.00    +0.119 HD
ENDBRANCH  19  20
ENDBRANCH  15  19
ENDBRANCH  10  13
ENDBRANCH   5   7
ENDBRANCH   1   3
BRANCH   1  23
ATOM     23  C   UNL     1       5.517  -4.261  24.241  0.00  0.00    +0.122 C 
BRANCH  23  24
ATOM     24  C   UNL     1       5.121  -4.187  22.775  0.00  0.00    +0.312 C 
ATOM     25  O   UNL     1       5.262  -3.163  22.112  0.00  0.00    -0.250 OA
BRANCH  24  27
ATOM     26  C   UNL     1       3.539  -5.913  23.164  0.00  0.00    +0.280 C 
ATOM     27  O   UNL     1       4.552  -5.336  22.332  0.00  0.00    -0.468 OA
ENDBRANCH  24  27
ENDBRANCH  23  24
BRANCH  23  28
ATOM     28  C   UNL     1       4.815  -3.189  25.105  0.00  0.00    +0.051 C 
BRANCH  28  29
ATOM     29  C   UNL     1       4.564  -3.606  26.539  0.00  0.00    -0.046 A 
ATOM     30  C   UNL     1       4.576  -4.967  26.885  0.00  0.00    +0.019 A 
ATOM     31  C   UNL     1       4.430  -5.362  28.221  0.00  0.00    +0.065 A 
ATOM     32  C   UNL     1       4.214  -4.399  29.210  0.00  0.00    +0.016 A 
ATOM     33  C   UNL     1       4.167  -3.047  28.867  0.00  0.00    +0.001 A 
ATOM     34  C   UNL     1       4.345  -2.653  27.540  0.00  0.00    +0.004 A 
BRANCH  31  35
ATOM     35  C   UNL     1       4.551  -6.806  28.572  0.00  0.00    +0.308 C 
ATOM     36  N   UNL     1       5.637  -7.486  28.377  0.00  0.00    -0.099 NA
ATOM     37  H   UNL     1       6.355  -6.919  27.918  0.00  0.00    +0.363 HD
ATOM     38  N   UNL     1       3.504  -7.482  29.113  0.00  0.00    -0.247 N 
ATOM     39  H   UNL     1       3.802  -8.398  29.439  0.00  0.00    +0.288 HD
ATOM     40  H   UNL     1       2.968  -6.983  29.814  0.00  0.00    +0.288 HD
ENDBRANCH  31  35
ENDBRANCH  28  29
ENDBRANCH  23  28
ENDBRANCH   1  23
TORSDOF 11
ENDMDL
MODEL 5
REMARK VINA RESULT:      -7.9      2.632     11.150
REMARK  Name = 
REMARK  13 active torsions:
REMARK  status: ('A' for Active; 'I' for Inactive)
REMARK    1  A    between atoms: C_1  and  O_2
REMARK    2  A    between atoms: O_2  and  C_3
REMARK    3  A    between atoms: C_3  and  C_5
REMARK    4  A    between atoms: C_5  and  C_7
REMARK    5  A    between atoms: C_5  and  C_17
REMARK    6  A    between atoms: C_7  and  C_8
REMARK    7  A    between atoms: C_12  and  C_14
REMARK    8  A    between atoms: C_17  and  C_19
REMARK    9  A    between atoms: C_17  and  N_20
REMARK   10  A    between atoms: C_21  and  C_23
REMARK   11  A    between atoms: C_26  and  C_29
REMARK   12  A    between atoms: C_33  and  C_34
REMARK   13  A    between atoms: C_34  and  N_35
REMARK                            x       y       z     vdW  Elec       q    Type
REMARK                         _______ _______ _______ _____ _____    ______ ____
ROOT
ATOM      1  C   UNL     1       9.138  -1.081  24.971  0.00  0.00    +0.084 C 
ATOM      2  C   UNL     1       9.094  -0.587  26.422  0.00  0.00    +0.028 C 
ENDROOT
BRANCH   1   3
ATOM      3  N   UNL     1       8.141  -2.138  24.806  0.00  0.00    -0.308 N 
ATOM      4  H   UNL     1       7.185  -1.942  25.086  0.00  0.00    +0.149 HD
ATOM      5  C   UNL     1       8.475  -3.428  24.453  0.00  0.00    +0.244 C 
ATOM      6  O   UNL     1       9.628  -3.798  24.269  0.00  0.00    -0.270 OA
BRANCH   5   7
ATOM      7  C   UNL     1       7.346  -4.396  24.368  0.00  0.00    +0.037 A 
ATOM      8  C   UNL     1       6.807  -4.898  25.553  0.00  0.00    +0.013 A 
ATOM      9  C   UNL     1       5.679  -5.728  25.519  0.00  0.00    +0.009 A 
ATOM     10  C   UNL     1       5.053  -6.074  24.306  0.00  0.00    -0.018 A 
ATOM     11  C   UNL     1       5.664  -5.621  23.120  0.00  0.00    +0.009 A 
ATOM     12  C   UNL     1       6.798  -4.796  23.145  0.00  0.00    +0.013 A 
BRANCH  10  13
ATOM     13  C   UNL     1       3.763  -6.810  24.283  0.00  0.00    -0.018 A 
ATOM     14  C   UNL     1       2.942  -6.780  23.137  0.00  0.00    +0.013 A 
ATOM     15  C   UNL     1       1.747  -7.517  23.038  0.00  0.00    -0.033 A 
ATOM     16  C   UNL     1       1.377  -8.330  24.115  0.00  0.00    +0.005 A 
ATOM     17  C   UNL     1       2.163  -8.375  25.265  0.00  0.00    +0.001 A 
ATOM     18  C   UNL     1       3.337  -7.617  25.350  0.00  0.00    +0.008 A 
BRANCH  15  19
ATOM     19  C   UNL     1       0.938  -7.532  21.763  0.00  0.00    +0.113 C 
BRANCH  19  20
ATOM     20  N   UNL     1       1.325  -8.606  20.852  0.00  0.00    -0.326 NA
ATOM     21  H   UNL     1       2.342  -8.666  20.822  0.00  0.00    +0.119 HD
ATOM     22  H   UNL     1       0.993  -9.491  21.231  0.00  0.00    +0.119 HD
ENDBRANCH  19  20
ENDBRANCH  15  19
ENDBRANCH  10  13
ENDBRANCH   5   7
ENDBRANCH   1   3
BRANCH   1  23
ATOM     23  C   UNL     1       8.916   0.069  23.961  0.00  0.00    +0.122 C 
BRANCH  23  24
ATOM     24  C   UNL     1       8.222  -0.490  22.728  0.00  0.00    +0.312 C 
ATOM     25  O   UNL     1       8.849  -0.993  21.800  0.00  0.00    -0.250 OA
BRANCH  24  27
ATOM     26  C   UNL     1       6.405   0.841  23.476  0.00  0.00    +0.280 C 
ATOM     27  O   UNL     1       6.879  -0.305  22.760  0.00  0.00    -0.468 OA
ENDBRANCH  24  27
ENDBRANCH  23  24
BRANCH  23  28
ATOM     28  C   UNL     1      10.223   0.820  23.623  0.00  0.00    +0.051 C 
BRANCH  28  29
ATOM     29  C   UNL     1      10.164   2.315  23.851  0.00  0.00    -0.046 A 
ATOM     30  C   UNL     1      11.261   3.122  23.507  0.00  0.00    +0.019 A 
ATOM     31  C   UNL     1      11.188   4.514  23.634  0.00  0.00    +0.065 A 
ATOM     32  C   UNL     1      10.035   5.104  24.158  0.00  0.00    +0.016 A 
ATOM     33  C   UNL     1       8.953   4.306  24.533  0.00  0.00    +0.001 A 
ATOM     34  C   UNL     1       9.015   2.920  24.376  0.00  0.00    +0.004 A 
BRANCH  31  35
ATOM     35  C   UNL     1      12.329   5.351  23.164  0.00  0.00    +0.308 C 
ATOM     36  N   UNL     1      13.012   6.114  23.959  0.00  0.00    -0.099 NA
ATOM     37  H   UNL     1      12.633   6.096  24.910  0.00  0.00    +0.363 HD
ATOM     38  N   UNL     1      12.701   5.352  21.858  0.00  0.00    -0.247 N 
ATOM     39  H   UNL     1      13.585   5.842  21.740  0.00  0.00    +0.288 HD
ATOM     40  H   UNL     1      12.700   4.451  21.395  0.00  0.00    +0.288 HD
ENDBRANCH  31  35
ENDBRANCH  28  29
ENDBRANCH  23  28
ENDBRANCH   1  23
TORSDOF 11
ENDMDL
MODEL 6
REMARK VINA RESULT:      -7.8      2.665     10.352
REMARK  Name = 
REMARK  13 active torsions:
REMARK  status: ('A' for Active; 'I' for Inactive)
REMARK    1  A    between atoms: C_1  and  O_2
REMARK    2  A    between atoms: O_2  and  C_3
REMARK    3  A    between atoms: C_3  and  C_5
REMARK    4  A    between atoms: C_5  and  C_7
REMARK    5  A    between atoms: C_5  and  C_17
REMARK    6  A    between atoms: C_7  and  C_8
REMARK    7  A    between atoms: C_12  and  C_14
REMARK    8  A    between atoms: C_17  and  C_19
REMARK    9  A    between atoms: C_17  and  N_20
REMARK   10  A    between atoms: C_21  and  C_23
REMARK   11  A    between atoms: C_26  and  C_29
REMARK   12  A    between atoms: C_33  and  C_34
REMARK   13  A    between atoms: C_34  and  N_35
REMARK                            x       y       z     vdW  Elec       q    Type
REMARK                         _______ _______ _______ _____ _____    ______ ____
ROOT
ATOM      1  C   UNL     1      10.333   0.468  23.470  0.00  0.00    +0.084 C 
ATOM      2  C   UNL     1      11.120   0.666  24.771  0.00  0.00    +0.028 C 
ENDROOT
BRANCH   1   3
ATOM      3  N   UNL     1       9.434  -0.675  23.636  0.00  0.00    -0.308 N 
ATOM      4  H   UNL     1       8.630  -0.566  24.247  0.00  0.00    +0.149 HD
ATOM      5  C   UNL     1       9.725  -1.929  23.142  0.00  0.00    +0.244 C 
ATOM      6  O   UNL     1      10.761  -2.193  22.545  0.00  0.00    -0.270 OA
BRANCH   5   7
ATOM      7  C   UNL     1       8.726  -2.994  23.433  0.00  0.00    +0.037 A 
ATOM      8  C   UNL     1       8.931  -3.817  24.540  0.00  0.00    +0.013 A 
ATOM      9  C   UNL     1       7.963  -4.761  24.907  0.00  0.00    +0.009 A 
ATOM     10  C   UNL     1       6.762  -4.905  24.187  0.00  0.00    -0.018 A 
ATOM     11  C   UNL     1       6.615  -4.119  23.028  0.00  0.00    +0.009 A 
ATOM     12  C   UNL     1       7.582  -3.178  22.649  0.00  0.00    +0.013 A 
BRANCH  10  13
ATOM     13  C   UNL     1       5.668  -5.782  24.676  0.00  0.00    -0.018 A 
ATOM     14  C   UNL     1       5.528  -6.052  26.054  0.00  0.00    +0.013 A 
ATOM     15  C   UNL     1       4.468  -6.816  26.575  0.00  0.00    -0.033 A 
ATOM     16  C   UNL     1       3.503  -7.305  25.689  0.00  0.00    +0.005 A 
ATOM     17  C   UNL     1       3.616  -7.062  24.321  0.00  0.00    +0.001 A 
ATOM     18  C   UNL     1       4.691  -6.317  23.821  0.00  0.00    +0.008 A 
BRANCH  15  19
ATOM     19  C   UNL     1       4.299  -7.011  28.063  0.00  0.00    +0.113 C 
BRANCH  19  20
ATOM     20  N   UNL     1       5.513  -7.490  28.720  0.00  0.00    -0.326 NA
ATOM     21  H   UNL     1       5.253  -8.089  29.502  0.00  0.00    +0.119 HD
ATOM     22  H   UNL     1       6.030  -8.074  28.066  0.00  0.00    +0.119 HD
ENDBRANCH  19  20
ENDBRANCH  15  19
ENDBRANCH  10  13
ENDBRANCH   5   7
ENDBRANCH   1   3
BRANCH   1  23
ATOM     23  C   UNL     1       9.558   1.742  23.063  0.00  0.00    +0.122 C 
BRANCH  23  24
ATOM     24  C   UNL     1       8.771   1.452  21.794  0.00  0.00    +0.312 C 
ATOM     25  O   UNL     1       9.144   0.619  20.972  0.00  0.00    -0.250 OA
BRANCH  24  27
ATOM     26  C   UNL     1       6.573   1.972  22.523  0.00  0.00    +0.280 C 
ATOM     27  O   UNL     1       7.683   2.252  21.663  0.00  0.00    -0.468 OA
ENDBRANCH  24  27
ENDBRANCH  23  24
BRANCH  23  28
ATOM     28  C   UNL     1      10.478   2.976  22.927  0.00  0.00    +0.051 C 
BRANCH  28  29
ATOM     29  C   UNL     1      10.065   4.162  23.773  0.00  0.00    -0.046 A 
ATOM     30  C   UNL     1       8.916   4.083  24.576  0.00  0.00    +0.019 A 
ATOM     31  C   UNL     1       8.570   5.140  25.428  0.00  0.00    +0.065 A 
ATOM     32  C   UNL     1       9.341   6.305  25.438  0.00  0.00    +0.016 A 
ATOM     33  C   UNL     1      10.466   6.402  24.617  0.00  0.00    +0.001 A 
ATOM     34  C   UNL     1      10.828   5.335  23.792  0.00  0.00    +0.004 A 
BRANCH  31  35
ATOM     35  C   UNL     1       7.404   4.986  26.344  0.00  0.00    +0.308 C 
ATOM     36  N   UNL     1       7.532   4.879  27.630  0.00  0.00    -0.099 NA
ATOM     37  H   UNL     1       8.518   4.865  27.906  0.00  0.00    +0.363 HD
ATOM     38  N   UNL     1       6.136   4.944  25.858  0.00  0.00    -0.247 N 
ATOM     39  H   UNL     1       5.462   5.001  26.618  0.00  0.00    +0.288 HD
ATOM     40  H   UNL     1       5.925   5.595  25.111  0.00  0.00    +0.288 HD
ENDBRANCH  31  35
ENDBRANCH  28  29
ENDBRANCH  23  28
ENDBRANCH   1  23
TORSDOF 11
ENDMDL
MODEL 7
REMARK VINA RESULT:      -7.8      2.204     11.144
REMARK  Name = 
REMARK  13 active torsions:
REMARK  status: ('A' for Active; 'I' for Inactive)
REMARK    1  A    between atoms: C_1  and  O_2
REMARK    2  A    between atoms: O_2  and  C_3
REMARK    3  A    between atoms: C_3  and  C_5
REMARK    4  A    between atoms: C_5  and  C_7
REMARK    5  A    between atoms: C_5  and  C_17
REMARK    6  A    between atoms: C_7  and  C_8
REMARK    7  A    between atoms: C_12  and  C_14
REMARK    8  A    between atoms: C_17  and  C_19
REMARK    9  A    between atoms: C_17  and  N_20
REMARK   10  A    between atoms: C_21  and  C_23
REMARK   11  A    between atoms: C_26  and  C_29
REMARK   12  A    between atoms: C_33  and  C_34
REMARK   13  A    between atoms: C_34  and  N_35
REMARK                            x       y       z     vdW  Elec       q    Type
REMARK                         _______ _______ _______ _____ _____    ______ ____
ROOT
ATOM      1  C   UNL     1       9.362  -1.550  25.114  0.00  0.00    +0.084 C 
ATOM      2  C   UNL     1       9.028  -0.820  26.420  0.00  0.00    +0.028 C 
ENDROOT
BRANCH   1   3
ATOM      3  N   UNL     1       8.282  -2.490  24.813  0.00  0.00    -0.308 N 
ATOM      4  H   UNL     1       7.328  -2.141  24.824  0.00  0.00    +0.149 HD
ATOM      5  C   UNL     1       8.489  -3.847  24.689  0.00  0.00    +0.244 C 
ATOM      6  O   UNL     1       9.583  -4.377  24.837  0.00  0.00    -0.270 OA
BRANCH   5   7
ATOM      7  C   UNL     1       7.277  -4.671  24.423  0.00  0.00    +0.037 A 
ATOM      8  C   UNL     1       6.604  -5.237  25.506  0.00  0.00    +0.013 A 
ATOM      9  C   UNL     1       5.404  -5.931  25.307  0.00  0.00    +0.009 A 
ATOM     10  C   UNL     1       4.837  -6.074  24.026  0.00  0.00    -0.018 A 
ATOM     11  C   UNL     1       5.576  -5.565  22.941  0.00  0.00    +0.009 A 
ATOM     12  C   UNL     1       6.783  -4.876  23.131  0.00  0.00    +0.013 A 
BRANCH  10  13
ATOM     13  C   UNL     1       3.485  -6.658  23.840  0.00  0.00    -0.018 A 
ATOM     14  C   UNL     1       3.027  -7.689  24.688  0.00  0.00    +0.013 A 
ATOM     15  C   UNL     1       1.730  -8.225  24.600  0.00  0.00    -0.033 A 
ATOM     16  C   UNL     1       0.854  -7.695  23.647  0.00  0.00    +0.005 A 
ATOM     17  C   UNL     1       1.278  -6.682  22.788  0.00  0.00    +0.001 A 
ATOM     18  C   UNL     1       2.581  -6.177  22.879  0.00  0.00    +0.008 A 
BRANCH  15  19
ATOM     19  C   UNL     1       1.243  -9.265  25.582  0.00  0.00    +0.113 C 
BRANCH  19  20
ATOM     20  N   UNL     1       1.979 -10.523  25.496  0.00  0.00    -0.326 NA
ATOM     21  H   UNL     1       2.655 -10.565  26.258  0.00  0.00    +0.119 HD
ATOM     22  H   UNL     1       1.329 -11.293  25.643  0.00  0.00    +0.119 HD
ENDBRANCH  19  20
ENDBRANCH  15  19
ENDBRANCH  10  13
ENDBRANCH   5   7
ENDBRANCH   1   3
BRANCH   1  23
ATOM     23  C   UNL     1       9.597  -0.566  23.945  0.00  0.00    +0.122 C 
BRANCH  23  24
ATOM     24  C   UNL     1       9.814  -1.365  22.668  0.00  0.00    +0.312 C 
ATOM     25  O   UNL     1      10.725  -2.181  22.557  0.00  0.00    -0.250 OA
BRANCH  24  27
ATOM     26  C   UNL     1       9.100   0.284  21.118  0.00  0.00    +0.280 C 
ATOM     27  O   UNL     1       8.944  -1.021  21.686  0.00  0.00    -0.468 OA
ENDBRANCH  24  27
ENDBRANCH  23  24
BRANCH  23  28
ATOM     28  C   UNL     1      10.745   0.428  24.230  0.00  0.00    +0.051 C 
BRANCH  28  29
ATOM     29  C   UNL     1      10.357   1.886  24.105  0.00  0.00    -0.046 A 
ATOM     30  C   UNL     1      11.335   2.850  23.811  0.00  0.00    +0.019 A 
ATOM     31  C   UNL     1      10.977   4.188  23.609  0.00  0.00    +0.065 A 
ATOM     32  C   UNL     1       9.644   4.580  23.756  0.00  0.00    +0.016 A 
ATOM     33  C   UNL     1       8.672   3.633  24.081  0.00  0.00    +0.001 A 
ATOM     34  C   UNL     1       9.025   2.293  24.250  0.00  0.00    +0.004 A 
BRANCH  31  35
ATOM     35  C   UNL     1      12.021   5.169  23.197  0.00  0.00    +0.308 C 
ATOM     36  N   UNL     1      12.431   5.284  21.973  0.00  0.00    -0.099 NA
ATOM     37  H   UNL     1      11.983   4.594  21.364  0.00  0.00    +0.363 HD
ATOM     38  N   UNL     1      12.604   5.991  24.109  0.00  0.00    -0.247 N 
ATOM     39  H   UNL     1      13.166   6.699  23.642  0.00  0.00    +0.288 HD
ATOM     40  H   UNL     1      11.985   6.393  24.803  0.00  0.00    +0.288 HD
ENDBRANCH  31  35
ENDBRANCH  28  29
ENDBRANCH  23  28
ENDBRANCH   1  23
TORSDOF 11
ENDMDL
MODEL 8
REMARK VINA RESULT:      -7.7      3.153     10.771
REMARK  Name = 
REMARK  13 active torsions:
REMARK  status: ('A' for Active; 'I' for Inactive)
REMARK    1  A    between atoms: C_1  and  O_2
REMARK    2  A    between atoms: O_2  and  C_3
REMARK    3  A    between atoms: C_3  and  C_5
REMARK    4  A    between atoms: C_5  and  C_7
REMARK    5  A    between atoms: C_5  and  C_17
REMARK    6  A    between atoms: C_7  and  C_8
REMARK    7  A    between atoms: C_12  and  C_14
REMARK    8  A    between atoms: C_17  and  C_19
REMARK    9  A    between atoms: C_17  and  N_20
REMARK   10  A    between atoms: C_21  and  C_23
REMARK   11  A    between atoms: C_26  and  C_29
REMARK   12  A    between atoms: C_33  and  C_34
REMARK   13  A    between atoms: C_34  and  N_35
REMARK                            x       y       z     vdW  Elec       q    Type
REMARK                         _______ _______ _______ _____ _____    ______ ____
ROOT
ATOM      1  C   UNL     1       8.684  -2.062  25.954  0.00  0.00    +0.084 C 
ATOM      2  C   UNL     1       8.294  -1.015  27.004  0.00  0.00    +0.028 C 
ENDROOT
BRANCH   1   3
ATOM      3  N   UNL     1       7.530  -2.925  25.703  0.00  0.00    -0.308 N 
ATOM      4  H   UNL     1       6.727  -2.525  25.228  0.00  0.00    +0.149 HD
ATOM      5  C   UNL     1       7.421  -4.194  26.232  0.00  0.00    +0.244 C 
ATOM      6  O   UNL     1       8.266  -4.692  26.966  0.00  0.00    -0.270 OA
BRANCH   5   7
ATOM      7  C   UNL     1       6.164  -4.928  25.917  0.00  0.00    +0.037 A 
ATOM      8  C   UNL     1       5.511  -4.647  24.716  0.00  0.00    +0.013 A 
ATOM      9  C   UNL     1       4.385  -5.388  24.335  0.00  0.00    +0.009 A 
ATOM     10  C   UNL     1       3.884  -6.434  25.134  0.00  0.00    -0.018 A 
ATOM     11  C   UNL     1       4.512  -6.644  26.377  0.00  0.00    +0.009 A 
ATOM     12  C   UNL     1       5.634  -5.901  26.770  0.00  0.00    +0.013 A 
BRANCH  10  13
ATOM     13  C   UNL     1       2.800  -7.326  24.650  0.00  0.00    -0.018 A 
ATOM     14  C   UNL     1       2.277  -7.175  23.348  0.00  0.00    +0.013 A 
ATOM     15  C   UNL     1       1.302  -8.039  22.816  0.00  0.00    -0.033 A 
ATOM     16  C   UNL     1       0.856  -9.103  23.606  0.00  0.00    +0.005 A 
ATOM     17  C   UNL     1       1.347  -9.275  24.899  0.00  0.00    +0.001 A 
ATOM     18  C   UNL     1       2.302  -8.391  25.416  0.00  0.00    +0.008 A 
BRANCH  15  19
ATOM     19  C   UNL     1       0.830  -7.903  21.388  0.00  0.00    +0.113 C 
BRANCH  19  20
ATOM     20  N   UNL     1       1.534  -8.788  20.464  0.00  0.00    -0.326 NA
ATOM     21  H   UNL     1       1.649  -8.312  19.571  0.00  0.00    +0.119 HD
ATOM     22  H   UNL     1       2.471  -8.957  20.825  0.00  0.00    +0.119 HD
ENDBRANCH  19  20
ENDBRANCH  15  19
ENDBRANCH  10  13
ENDBRANCH   5   7
ENDBRANCH   1   3
BRANCH   1  23
ATOM     23  C   UNL     1       9.196  -1.409  24.649  0.00  0.00    +0.122 C 
BRANCH  23  24
ATOM     24  C   UNL     1       9.867  -2.477  23.798  0.00  0.00    +0.312 C 
ATOM     25  O   UNL     1      10.110  -3.599  24.233  0.00  0.00    -0.250 OA
BRANCH  24  27
ATOM     26  C   UNL     1       9.134  -1.603  21.717  0.00  0.00    +0.280 C 
ATOM     27  O   UNL     1      10.207  -2.021  22.567  0.00  0.00    -0.468 OA
ENDBRANCH  24  27
ENDBRANCH  23  24
BRANCH  23  28
ATOM     28  C   UNL     1      10.112  -0.194  24.915  0.00  0.00    +0.051 C 
BRANCH  28  29
ATOM     29  C   UNL     1       9.662   1.088  24.246  0.00  0.00    -0.046 A 
ATOM     30  C   UNL     1       8.328   1.232  23.831  0.00  0.00    +0.019 A 
ATOM     31  C   UNL     1       7.879   2.442  23.289  0.00  0.00    +0.065 A 
ATOM     32  C   UNL     1       8.776   3.498  23.107  0.00  0.00    +0.016 A 
ATOM     33  C   UNL     1      10.110   3.349  23.487  0.00  0.00    +0.001 A 
ATOM     34  C   UNL     1      10.551   2.154  24.057  0.00  0.00    +0.004 A 
BRANCH  31  35
ATOM     35  C   UNL     1       6.434   2.599  22.953  0.00  0.00    +0.308 C 
ATOM     36  N   UNL     1       5.534   1.736  23.308  0.00  0.00    -0.099 NA
ATOM     37  H   UNL     1       5.954   0.937  23.791  0.00  0.00    +0.363 HD
ATOM     38  N   UNL     1       5.997   3.669  22.240  0.00  0.00    -0.247 N 
ATOM     39  H   UNL     1       4.980   3.706  22.241  0.00  0.00    +0.288 HD
ATOM     40  H   UNL     1       6.411   4.562  22.481  0.00  0.00    +0.288 HD
ENDBRANCH  31  35
ENDBRANCH  28  29
ENDBRANCH  23  28
ENDBRANCH   1  23
TORSDOF 11
ENDMDL
MODEL 9
REMARK VINA RESULT:      -7.5      1.542      2.039
REMARK  Name = 
REMARK  13 active torsions:
REMARK  status: ('A' for Active; 'I' for Inactive)
REMARK    1  A    between atoms: C_1  and  O_2
REMARK    2  A    between atoms: O_2  and  C_3
REMARK    3  A    between atoms: C_3  and  C_5
REMARK    4  A    between atoms: C_5  and  C_7
REMARK    5  A    between atoms: C_5  and  C_17
REMARK    6  A    between atoms: C_7  and  C_8
REMARK    7  A    between atoms: C_12  and  C_14
REMARK    8  A    between atoms: C_17  and  C_19
REMARK    9  A    between atoms: C_17  and  N_20
REMARK   10  A    between atoms: C_21  and  C_23
REMARK   11  A    between atoms: C_26  and  C_29
REMARK   12  A    between atoms: C_33  and  C_34
REMARK   13  A    between atoms: C_34  and  N_35
REMARK                            x       y       z     vdW  Elec       q    Type
REMARK                         _______ _______ _______ _____ _____    ______ ____
ROOT
ATOM      1  C   UNL     1       7.062  -3.622  22.890  0.00  0.00    +0.084 C 
ATOM      2  C   UNL     1       6.269  -3.765  21.585  0.00  0.00    +0.028 C 
ENDROOT
BRANCH   1   3
ATOM      3  N   UNL     1       7.481  -2.227  23.032  0.00  0.00    -0.308 N 
ATOM      4  H   UNL     1       6.772  -1.535  23.253  0.00  0.00    +0.149 HD
ATOM      5  C   UNL     1       8.751  -1.796  22.713  0.00  0.00    +0.244 C 
ATOM      6  O   UNL     1       9.621  -2.535  22.269  0.00  0.00    -0.270 OA
BRANCH   5   7
ATOM      7  C   UNL     1       9.006  -0.338  22.874  0.00  0.00    +0.037 A 
ATOM      8  C   UNL     1       8.465   0.316  23.982  0.00  0.00    +0.013 A 
ATOM      9  C   UNL     1       8.767   1.662  24.225  0.00  0.00    +0.009 A 
ATOM     10  C   UNL     1       9.622   2.391  23.376  0.00  0.00    -0.018 A 
ATOM     11  C   UNL     1      10.090   1.733  22.223  0.00  0.00    +0.009 A 
ATOM     12  C   UNL     1       9.785   0.388  21.968  0.00  0.00    +0.013 A 
BRANCH  10  13
ATOM     13  C   UNL     1      10.075   3.761  23.728  0.00  0.00    -0.018 A 
ATOM     14  C   UNL     1      11.356   4.212  23.343  0.00  0.00    +0.013 A 
ATOM     15  C   UNL     1      11.805   5.523  23.588  0.00  0.00    -0.033 A 
ATOM     16  C   UNL     1      10.933   6.418  24.216  0.00  0.00    +0.005 A 
ATOM     17  C   UNL     1       9.664   6.001  24.616  0.00  0.00    +0.001 A 
ATOM     18  C   UNL     1       9.245   4.686  24.381  0.00  0.00    +0.008 A 
BRANCH  15  19
ATOM     19  C   UNL     1      13.147   5.998  23.084  0.00  0.00    +0.113 C 
BRANCH  19  20
ATOM     20  N   UNL     1      14.161   4.947  23.074  0.00  0.00    -0.326 NA
ATOM     21  H   UNL     1      14.350   4.677  22.109  0.00  0.00    +0.119 HD
ATOM     22  H   UNL     1      15.030   5.327  23.444  0.00  0.00    +0.119 HD
ENDBRANCH  19  20
ENDBRANCH  15  19
ENDBRANCH  10  13
ENDBRANCH   5   7
ENDBRANCH   1   3
BRANCH   1  23
ATOM     23  C   UNL     1       6.247  -4.095  24.116  0.00  0.00    +0.122 C 
BRANCH  23  24
ATOM     24  C   UNL     1       5.766  -2.874  24.886  0.00  0.00    +0.312 C 
ATOM     25  O   UNL     1       4.657  -2.382  24.700  0.00  0.00    -0.250 OA
BRANCH  24  27
ATOM     26  C   UNL     1       6.248  -1.738  26.913  0.00  0.00    +0.280 C 
ATOM     27  O   UNL     1       6.714  -2.381  25.722  0.00  0.00    -0.468 OA
ENDBRANCH  24  27
ENDBRANCH  23  24
BRANCH  23  28
ATOM     28  C   UNL     1       7.034  -5.087  25.002  0.00  0.00    +0.051 C 
BRANCH  28  29
ATOM     29  C   UNL     1       6.261  -5.612  26.193  0.00  0.00    -0.046 A 
ATOM     30  C   UNL     1       4.992  -6.185  26.008  0.00  0.00    +0.019 A 
ATOM     31  C   UNL     1       4.303  -6.751  27.087  0.00  0.00    +0.065 A 
ATOM     32  C   UNL     1       4.856  -6.697  28.370  0.00  0.00    +0.016 A 
ATOM     33  C   UNL     1       6.101  -6.099  28.565  0.00  0.00    +0.001 A 
ATOM     34  C   UNL     1       6.802  -5.564  27.483  0.00  0.00    +0.004 A 
BRANCH  31  35
ATOM     35  C   UNL     1       3.005  -7.443  26.843  0.00  0.00    +0.308 C 
ATOM     36  N   UNL     1       2.110  -7.602  27.767  0.00  0.00    -0.099 NA
ATOM     37  H   UNL     1       2.436  -7.240  28.668  0.00  0.00    +0.363 HD
ATOM     38  N   UNL     1       2.707  -7.953  25.619  0.00  0.00    -0.247 N 
ATOM     39  H   UNL     1       1.731  -8.241  25.582  0.00  0.00    +0.288 HD
ATOM     40  H   UNL     1       2.965  -7.379  24.824  0.00  0.00    +0.288 HD
ENDBRANCH  31  35
ENDBRANCH  28  29
ENDBRANCH  23  28
ENDBRANCH   1  23
TORSDOF 11
ENDMDL
