MODEL 1
REMARK VINA RESULT:      -7.8      0.000      0.000
REMARK  Name = 
REMARK  3 active torsions:
REMARK  status: ('A' for Active; 'I' for Inactive)
REMARK    1  A    between atoms: C_2  and  C_4
REMARK    2  A    between atoms: C_9  and  C_10
REMARK    3  A    between atoms: C_10  and  C_11
REMARK                            x       y       z     vdW  Elec       q    Type
REMARK                         _______ _______ _______ _____ _____    ______ ____
ROOT
ATOM      1  C   UNL     1       8.980  -3.566  25.456  0.00  0.00    +0.067 A 
ATOM      2  C   UNL     1       8.273  -2.718  26.320  0.00  0.00    +0.018 A 
ATOM      3  C   UNL     1       8.156  -1.347  26.058  0.00  0.00    +0.028 A 
ATOM      4  C   UNL     1       8.770  -0.884  24.892  0.00  0.00    +0.066 A 
ATOM      5  N   UNL     1       8.856   0.358  24.324  0.00  0.00    -0.341 N 
ATOM      6  H   UNL     1       8.462   1.224  24.676  0.00  0.00    +0.167 HD
ATOM      7  C   UNL     1       9.571   0.258  23.152  0.00  0.00    +0.115 A 
ATOM      8  N   UNL     1       9.955  -0.988  22.947  0.00  0.00    -0.232 NA
ATOM      9  C   UNL     1       9.464  -1.704  24.011  0.00  0.00    +0.090 A 
ATOM     10  C   UNL     1       9.576  -3.072  24.287  0.00  0.00    +0.045 A 
ENDROOT
BRANCH   1  14
ATOM     11  N   UNL     1       8.176  -5.618  26.579  0.00  0.00    -0.247 N 
ATOM     12  H   UNL     1       7.258  -5.183  26.582  0.00  0.00    +0.288 HD
ATOM     13  H   UNL     1       8.113  -6.624  26.493  0.00  0.00    +0.288 HD
ATOM     14  C   UNL     1       9.108  -5.013  25.782  0.00  0.00    +0.308 C 
ATOM     15  N   UNL     1      10.091  -5.696  25.296  0.00  0.00    -0.099 NA
ATOM     16  H   UNL     1      10.053  -6.651  25.652  0.00  0.00    +0.363 HD
ENDBRANCH   1  14
BRANCH   7  17
ATOM     17  C   UNL     1       9.849   1.425  22.256  0.00  0.00    +0.148 C 
BRANCH  17  18
ATOM     18  C   UNL     1      10.059   2.734  22.954  0.00  0.00    +0.115 A 
ATOM     19  N   UNL     1      11.263   3.397  22.897  0.00  0.00    -0.341 N 
ATOM     20  H   UNL     1      12.090   3.082  22.409  0.00  0.00    +0.167 HD
ATOM     21  C   UNL     1      11.144   4.568  23.600  0.00  0.00    +0.066 A 
ATOM     22  C   UNL     1      12.037   5.611  23.855  0.00  0.00    +0.028 A 
ATOM     23  C   UNL     1      11.551   6.679  24.619  0.00  0.00    +0.002 A 
ATOM     24  C   UNL     1      10.242   6.692  25.105  0.00  0.00    +0.002 A 
ATOM     25  C   UNL     1       9.369   5.630  24.840  0.00  0.00    +0.030 A 
ATOM     26  C   UNL     1       9.837   4.556  24.071  0.00  0.00    +0.089 A 
ATOM     27  N   UNL     1       9.185   3.418  23.673  0.00  0.00    -0.232 NA
ENDBRANCH  17  18
ENDBRANCH   7  17
TORSDOF 3
ENDMDL
MODEL 2
REMARK VINA RESULT:      -7.6      2.688      8.713
REMARK  Name = 
REMARK  3 active torsions:
REMARK  status: ('A' for Active; 'I' for Inactive)
REMARK    1  A    between atoms: C_2  and  C_4
REMARK    2  A    between atoms: C_9  and  C_10
REMARK    3  A    between atoms: C_10  and  C_11
REMARK                            x       y       z     vdW  Elec       q    Type
REMARK                         _______ _______ _______ _____ _____    ______ ____
ROOT
ATOM      1  C   UNL     1      10.151   2.150  23.215  0.00  0.00    +0.067 A 
ATOM      2  C   UNL     1       9.860   1.742  21.905  0.00  0.00    +0.018 A 
ATOM      3  C   UNL     1       9.623   0.396  21.598  0.00  0.00    +0.028 A 
ATOM      4  C   UNL     1       9.682  -0.502  22.666  0.00  0.00    +0.066 A 
ATOM      5  N   UNL     1       9.502  -1.857  22.743  0.00  0.00    -0.341 N 
ATOM      6  H   UNL     1       9.279  -2.493  21.984  0.00  0.00    +0.167 HD
ATOM      7  C   UNL     1       9.658  -2.247  24.053  0.00  0.00    +0.115 A 
ATOM      8  N   UNL     1       9.939  -1.208  24.818  0.00  0.00    -0.232 NA
ATOM      9  C   UNL     1       9.953  -0.124  23.975  0.00  0.00    +0.090 A 
ATOM     10  C   UNL     1      10.190   1.223  24.267  0.00  0.00    +0.045 A 
ENDROOT
BRANCH   1  14
ATOM     11  N   UNL     1      11.632   4.129  23.157  0.00  0.00    -0.247 N 
ATOM     12  H   UNL     1      12.116   3.669  22.392  0.00  0.00    +0.288 HD
ATOM     13  H   UNL     1      11.646   5.136  23.055  0.00  0.00    +0.288 HD
ATOM     14  C   UNL     1      10.426   3.585  23.499  0.00  0.00    +0.308 C 
ATOM     15  N   UNL     1       9.515   4.315  24.052  0.00  0.00    -0.099 NA
ATOM     16  H   UNL     1       9.880   5.253  24.214  0.00  0.00    +0.363 HD
ENDBRANCH   1  14
BRANCH   7  17
ATOM     17  C   UNL     1       9.515  -3.666  24.512  0.00  0.00    +0.148 C 
BRANCH  17  18
ATOM     18  C   UNL     1       8.178  -4.293  24.250  0.00  0.00    +0.115 A 
ATOM     19  N   UNL     1       7.469  -4.923  25.246  0.00  0.00    -0.341 N 
ATOM     20  H   UNL     1       7.765  -5.029  26.206  0.00  0.00    +0.167 HD
ATOM     21  C   UNL     1       6.285  -5.367  24.718  0.00  0.00    +0.066 A 
ATOM     22  C   UNL     1       5.201  -6.048  25.274  0.00  0.00    +0.028 A 
ATOM     23  C   UNL     1       4.132  -6.331  24.414  0.00  0.00    +0.002 A 
ATOM     24  C   UNL     1       4.157  -5.953  23.070  0.00  0.00    +0.002 A 
ATOM     25  C   UNL     1       5.260  -5.276  22.537  0.00  0.00    +0.030 A 
ATOM     26  C   UNL     1       6.336  -4.980  23.385  0.00  0.00    +0.089 A 
ATOM     27  N   UNL     1       7.510  -4.328  23.110  0.00  0.00    -0.232 NA
ENDBRANCH  17  18
ENDBRANCH   7  17
TORSDOF 3
ENDMDL
MODEL 3
REMARK VINA RESULT:      -7.6      3.418      5.466
REMARK  Name = 
REMARK  3 active torsions:
REMARK  status: ('A' for Active; 'I' for Inactive)
REMARK    1  A    between atoms: C_2  and  C_4
REMARK    2  A    between atoms: C_9  and  C_10
REMARK    3  A    between atoms: C_10  and  C_11
REMARK                            x       y       z     vdW  Elec       q    Type
REMARK                         _______ _______ _______ _____ _____    ______ ____
ROOT
ATOM      1  C   UNL     1       4.456  -6.594  24.366  0.00  0.00    +0.067 A 
ATOM      2  C   UNL     1       4.385  -6.089  23.060  0.00  0.00    +0.018 A 
ATOM      3  C   UNL     1       5.379  -5.242  22.553  0.00  0.00    +0.028 A 
ATOM      4  C   UNL     1       6.439  -4.946  23.414  0.00  0.00    +0.066 A 
ATOM      5  N   UNL     1       7.563  -4.180  23.263  0.00  0.00    -0.341 N 
ATOM      6  H   UNL     1       7.845  -3.655  22.442  0.00  0.00    +0.167 HD
ATOM      7  C   UNL     1       8.294  -4.239  24.428  0.00  0.00    +0.115 A 
ATOM      8  N   UNL     1       7.686  -4.998  25.321  0.00  0.00    -0.232 NA
ATOM      9  C   UNL     1       6.542  -5.444  24.706  0.00  0.00    +0.090 A 
ATOM     10  C   UNL     1       5.540  -6.286  25.201  0.00  0.00    +0.045 A 
ENDROOT
BRANCH   1  14
ATOM     11  N   UNL     1       3.064  -7.469  26.214  0.00  0.00    -0.247 N 
ATOM     12  H   UNL     1       3.302  -6.618  26.715  0.00  0.00    +0.288 HD
ATOM     13  H   UNL     1       2.137  -7.797  26.453  0.00  0.00    +0.288 HD
ATOM     14  C   UNL     1       3.366  -7.468  24.881  0.00  0.00    +0.308 C 
ATOM     15  N   UNL     1       2.698  -8.209  24.061  0.00  0.00    -0.099 NA
ATOM     16  H   UNL     1       2.025  -8.773  24.580  0.00  0.00    +0.363 HD
ENDBRANCH   1  14
BRANCH   7  17
ATOM     17  C   UNL     1       9.599  -3.530  24.617  0.00  0.00    +0.148 C 
BRANCH  17  18
ATOM     18  C   UNL     1       9.669  -2.149  24.038  0.00  0.00    +0.115 A 
ATOM     19  N   UNL     1       9.890  -1.045  24.828  0.00  0.00    -0.341 N 
ATOM     20  H   UNL     1      10.014  -1.051  25.831  0.00  0.00    +0.167 HD
ATOM     21  C   UNL     1       9.930   0.062  24.022  0.00  0.00    +0.066 A 
ATOM     22  C   UNL     1      10.133   1.417  24.288  0.00  0.00    +0.028 A 
ATOM     23  C   UNL     1      10.121   2.281  23.186  0.00  0.00    +0.002 A 
ATOM     24  C   UNL     1       9.909   1.807  21.890  0.00  0.00    +0.002 A 
ATOM     25  C   UNL     1       9.702   0.444  21.651  0.00  0.00    +0.030 A 
ATOM     26  C   UNL     1       9.717  -0.436  22.742  0.00  0.00    +0.089 A 
ATOM     27  N   UNL     1       9.550  -1.796  22.769  0.00  0.00    -0.232 NA
ENDBRANCH  17  18
ENDBRANCH   7  17
TORSDOF 3
ENDMDL
MODEL 4
REMARK VINA RESULT:      -7.3      2.767      3.535
REMARK  Name = 
REMARK  3 active torsions:
REMARK  status: ('A' for Active; 'I' for Inactive)
REMARK    1  A    between atoms: C_2  and  C_4
REMARK    2  A    between atoms: C_9  and  C_10
REMARK    3  A    between atoms: C_10  and  C_11
REMARK                            x       y       z     vdW  Elec       q    Type
REMARK                         _______ _______ _______ _____ _____    ______ ____
ROOT
ATOM      1  C   UNL     1       6.734  -4.952  22.938  0.00  0.00    +0.067 A 
ATOM      2  C   UNL     1       7.275  -5.230  24.201  0.00  0.00    +0.018 A 
ATOM      3  C   UNL     1       8.283  -4.430  24.753  0.00  0.00    +0.028 A 
ATOM      4  C   UNL     1       8.704  -3.344  23.982  0.00  0.00    +0.066 A 
ATOM      5  N   UNL     1       9.638  -2.367  24.196  0.00  0.00    -0.341 N 
ATOM      6  H   UNL     1      10.232  -2.251  25.010  0.00  0.00    +0.167 HD
ATOM      7  C   UNL     1       9.645  -1.519  23.111  0.00  0.00    +0.115 A 
ATOM      8  N   UNL     1       8.766  -1.914  22.208  0.00  0.00    -0.232 NA
ATOM      9  C   UNL     1       8.175  -3.036  22.735  0.00  0.00    +0.090 A 
ATOM     10  C   UNL     1       7.171  -3.846  22.194  0.00  0.00    +0.045 A 
ENDROOT
BRANCH   1  14
ATOM     11  N   UNL     1       4.744  -6.397  23.192  0.00  0.00    -0.247 N 
ATOM     12  H   UNL     1       4.555  -5.883  24.048  0.00  0.00    +0.288 HD
ATOM     13  H   UNL     1       3.889  -6.696  22.741  0.00  0.00    +0.288 HD
ATOM     14  C   UNL     1       5.685  -5.842  22.371  0.00  0.00    +0.308 C 
ATOM     15  N   UNL     1       5.657  -6.072  21.100  0.00  0.00    -0.099 NA
ATOM     16  H   UNL     1       4.909  -6.732  20.888  0.00  0.00    +0.363 HD
ENDBRANCH   1  14
BRANCH   7  17
ATOM     17  C   UNL     1      10.537  -0.321  23.009  0.00  0.00    +0.148 C 
BRANCH  17  18
ATOM     18  C   UNL     1       9.833   1.002  22.979  0.00  0.00    +0.115 A 
ATOM     19  N   UNL     1       8.681   1.191  22.251  0.00  0.00    -0.341 N 
ATOM     20  H   UNL     1       8.219   0.494  21.685  0.00  0.00    +0.167 HD
ATOM     21  C   UNL     1       8.258   2.481  22.440  0.00  0.00    +0.066 A 
ATOM     22  C   UNL     1       7.158   3.193  21.960  0.00  0.00    +0.028 A 
ATOM     23  C   UNL     1       7.037   4.521  22.385  0.00  0.00    +0.002 A 
ATOM     24  C   UNL     1       7.975   5.101  23.243  0.00  0.00    +0.002 A 
ATOM     25  C   UNL     1       9.072   4.365  23.706  0.00  0.00    +0.030 A 
ATOM     26  C   UNL     1       9.205   3.033  23.294  0.00  0.00    +0.089 A 
ATOM     27  N   UNL     1      10.173   2.114  23.610  0.00  0.00    -0.232 NA
ENDBRANCH  17  18
ENDBRANCH   7  17
TORSDOF 3
ENDMDL
MODEL 5
REMARK VINA RESULT:      -7.3      2.797      4.327
REMARK  Name = 
REMARK  3 active torsions:
REMARK  status: ('A' for Active; 'I' for Inactive)
REMARK    1  A    between atoms: C_2  and  C_4
REMARK    2  A    between atoms: C_9  and  C_10
REMARK    3  A    between atoms: C_10  and  C_11
REMARK                            x       y       z     vdW  Elec       q    Type
REMARK                         _______ _______ _______ _____ _____    ______ ____
ROOT
ATOM      1  C   UNL     1       5.358  -6.191  25.468  0.00  0.00    +0.067 A 
ATOM      2  C   UNL     1       5.815  -5.962  26.774  0.00  0.00    +0.018 A 
ATOM      3  C   UNL     1       6.942  -5.167  27.021  0.00  0.00    +0.028 A 
ATOM      4  C   UNL     1       7.568  -4.614  25.901  0.00  0.00    +0.066 A 
ATOM      5  N   UNL     1       8.660  -3.801  25.762  0.00  0.00    -0.341 N 
ATOM      6  H   UNL     1       9.251  -3.431  26.500  0.00  0.00    +0.167 HD
ATOM      7  C   UNL     1       8.842  -3.534  24.424  0.00  0.00    +0.115 A 
ATOM      8  N   UNL     1       7.923  -4.145  23.699  0.00  0.00    -0.232 NA
ATOM      9  C   UNL     1       7.128  -4.812  24.599  0.00  0.00    +0.090 A 
ATOM     10  C   UNL     1       6.003  -5.611  24.366  0.00  0.00    +0.045 A 
ENDROOT
BRANCH   1  14
ATOM     11  N   UNL     1       3.335  -7.358  26.280  0.00  0.00    -0.247 N 
ATOM     12  H   UNL     1       3.316  -6.675  27.032  0.00  0.00    +0.288 HD
ATOM     13  H   UNL     1       2.402  -7.652  26.020  0.00  0.00    +0.288 HD
ATOM     14  C   UNL     1       4.175  -7.064  25.242  0.00  0.00    +0.308 C 
ATOM     15  N   UNL     1       3.936  -7.528  24.060  0.00  0.00    -0.099 NA
ATOM     16  H   UNL     1       3.120  -8.139  24.091  0.00  0.00    +0.363 HD
ENDBRANCH   1  14
BRANCH   7  17
ATOM     17  C   UNL     1       9.939  -2.660  23.901  0.00  0.00    +0.148 C 
BRANCH  17  18
ATOM     18  C   UNL     1       9.713  -1.186  24.055  0.00  0.00    +0.115 A 
ATOM     19  N   UNL     1      10.416  -0.267  23.311  0.00  0.00    -0.341 N 
ATOM     20  H   UNL     1      11.126  -0.479  22.625  0.00  0.00    +0.167 HD
ATOM     21  C   UNL     1       9.976   0.987  23.648  0.00  0.00    +0.066 A 
ATOM     22  C   UNL     1      10.328   2.262  23.201  0.00  0.00    +0.028 A 
ATOM     23  C   UNL     1       9.641   3.339  23.776  0.00  0.00    +0.002 A 
ATOM     24  C   UNL     1       8.659   3.142  24.749  0.00  0.00    +0.002 A 
ATOM     25  C   UNL     1       8.330   1.853  25.183  0.00  0.00    +0.030 A 
ATOM     26  C   UNL     1       9.004   0.763  24.615  0.00  0.00    +0.089 A 
ATOM     27  N   UNL     1       8.859  -0.578  24.860  0.00  0.00    -0.232 NA
ENDBRANCH  17  18
ENDBRANCH   7  17
TORSDOF 3
ENDMDL
MODEL 6
REMARK VINA RESULT:      -7.3      2.406      4.188
REMARK  Name = 
REMARK  3 active torsions:
REMARK  status: ('A' for Active; 'I' for Inactive)
REMARK    1  A    between atoms: C_2  and  C_4
REMARK    2  A    between atoms: C_9  and  C_10
REMARK    3  A    between atoms: C_10  and  C_11
REMARK                            x       y       z     vdW  Elec       q    Type
REMARK                         _______ _______ _______ _____ _____    ______ ____
ROOT
ATOM      1  C   UNL     1       6.357  -5.693  27.051  0.00  0.00    +0.067 A 
ATOM      2  C   UNL     1       5.651  -5.945  25.867  0.00  0.00    +0.018 A 
ATOM      3  C   UNL     1       6.058  -5.392  24.646  0.00  0.00    +0.028 A 
ATOM      4  C   UNL     1       7.204  -4.594  24.678  0.00  0.00    +0.066 A 
ATOM      5  N   UNL     1       7.882  -3.913  23.704  0.00  0.00    -0.341 N 
ATOM      6  H   UNL     1       7.656  -3.864  22.716  0.00  0.00    +0.167 HD
ATOM      7  C   UNL     1       8.968  -3.292  24.277  0.00  0.00    +0.115 A 
ATOM      8  N   UNL     1       9.012  -3.534  25.574  0.00  0.00    -0.232 NA
ATOM      9  C   UNL     1       7.931  -4.340  25.834  0.00  0.00    +0.090 A 
ATOM     10  C   UNL     1       7.511  -4.896  27.048  0.00  0.00    +0.045 A 
ENDROOT
BRANCH   1  14
ATOM     11  N   UNL     1       5.177  -7.447  28.334  0.00  0.00    -0.247 N 
ATOM     12  H   UNL     1       5.356  -8.060  27.543  0.00  0.00    +0.288 HD
ATOM     13  H   UNL     1       5.175  -7.958  29.208  0.00  0.00    +0.288 HD
ATOM     14  C   UNL     1       5.878  -6.274  28.335  0.00  0.00    +0.308 C 
ATOM     15  N   UNL     1       6.141  -5.673  29.448  0.00  0.00    -0.099 NA
ATOM     16  H   UNL     1       5.704  -6.177  30.220  0.00  0.00    +0.363 HD
ENDBRANCH   1  14
BRANCH   7  17
ATOM     17  C   UNL     1       9.948  -2.466  23.501  0.00  0.00    +0.148 C 
BRANCH  17  18
ATOM     18  C   UNL     1       9.781  -0.982  23.630  0.00  0.00    +0.115 A 
ATOM     19  N   UNL     1       8.909  -0.431  24.540  0.00  0.00    -0.341 N 
ATOM     20  H   UNL     1       8.317  -0.944  25.178  0.00  0.00    +0.167 HD
ATOM     21  C   UNL     1       8.995   0.934  24.447  0.00  0.00    +0.066 A 
ATOM     22  C   UNL     1       8.354   1.968  25.131  0.00  0.00    +0.028 A 
ATOM     23  C   UNL     1       8.710   3.273  24.769  0.00  0.00    +0.002 A 
ATOM     24  C   UNL     1       9.654   3.521  23.770  0.00  0.00    +0.002 A 
ATOM     25  C   UNL     1      10.277   2.465  23.095  0.00  0.00    +0.030 A 
ATOM     26  C   UNL     1       9.936   1.153  23.449  0.00  0.00    +0.089 A 
ATOM     27  N   UNL     1      10.405  -0.035  22.951  0.00  0.00    -0.232 NA
ENDBRANCH  17  18
ENDBRANCH   7  17
TORSDOF 3
ENDMDL
MODEL 7
REMARK VINA RESULT:      -7.3      2.692      8.896
REMARK  Name = 
REMARK  3 active torsions:
REMARK  status: ('A' for Active; 'I' for Inactive)
REMARK    1  A    between atoms: C_2  and  C_4
REMARK    2  A    between atoms: C_9  and  C_10
REMARK    3  A    between atoms: C_10  and  C_11
REMARK                            x       y       z     vdW  Elec       q    Type
REMARK                         _______ _______ _______ _____ _____    ______ ____
ROOT
ATOM      1  C   UNL     1       9.790   1.011  23.587  0.00  0.00    +0.067 A 
ATOM      2  C   UNL     1       9.095   1.266  24.777  0.00  0.00    +0.018 A 
ATOM      3  C   UNL     1       8.646   0.221  25.595  0.00  0.00    +0.028 A 
ATOM      4  C   UNL     1       8.941  -1.074  25.163  0.00  0.00    +0.066 A 
ATOM      5  N   UNL     1       8.675  -2.307  25.695  0.00  0.00    -0.341 N 
ATOM      6  H   UNL     1       8.181  -2.512  26.557  0.00  0.00    +0.167 HD
ATOM      7  C   UNL     1       9.209  -3.267  24.866  0.00  0.00    +0.115 A 
ATOM      8  N   UNL     1       9.795  -2.708  23.824  0.00  0.00    -0.232 NA
ATOM      9  C   UNL     1       9.641  -1.354  23.997  0.00  0.00    +0.090 A 
ATOM     10  C   UNL     1      10.081  -0.301  23.187  0.00  0.00    +0.045 A 
ENDROOT
BRANCH   1  14
ATOM     11  N   UNL     1      10.918   3.190  23.276  0.00  0.00    -0.247 N 
ATOM     12  H   UNL     1      11.440   2.971  24.119  0.00  0.00    +0.288 HD
ATOM     13  H   UNL     1      11.468   3.740  22.628  0.00  0.00    +0.288 HD
ATOM     14  C   UNL     1      10.226   2.146  22.728  0.00  0.00    +0.308 C 
ATOM     15  N   UNL     1       9.964   2.131  21.463  0.00  0.00    -0.099 NA
ATOM     16  H   UNL     1      10.290   2.998  21.036  0.00  0.00    +0.363 HD
ENDBRANCH   1  14
BRANCH   7  17
ATOM     17  C   UNL     1       9.121  -4.736  25.145  0.00  0.00    +0.148 C 
BRANCH  17  18
ATOM     18  C   UNL     1       7.945  -5.163  25.971  0.00  0.00    +0.115 A 
ATOM     19  N   UNL     1       6.781  -5.610  25.391  0.00  0.00    -0.341 N 
ATOM     20  H   UNL     1       6.605  -5.687  24.400  0.00  0.00    +0.167 HD
ATOM     21  C   UNL     1       5.906  -5.952  26.390  0.00  0.00    +0.066 A 
ATOM     22  C   UNL     1       4.608  -6.466  26.372  0.00  0.00    +0.028 A 
ATOM     23  C   UNL     1       4.014  -6.711  27.616  0.00  0.00    +0.002 A 
ATOM     24  C   UNL     1       4.688  -6.447  28.810  0.00  0.00    +0.002 A 
ATOM     25  C   UNL     1       5.987  -5.926  28.800  0.00  0.00    +0.030 A 
ATOM     26  C   UNL     1       6.598  -5.680  27.563  0.00  0.00    +0.089 A 
ATOM     27  N   UNL     1       7.848  -5.187  27.290  0.00  0.00    -0.232 NA
ENDBRANCH  17  18
ENDBRANCH   7  17
TORSDOF 3
ENDMDL
MODEL 8
REMARK VINA RESULT:      -7.3      3.702      5.826
REMARK  Name = 
REMARK  3 active torsions:
REMARK  status: ('A' for Active; 'I' for Inactive)
REMARK    1  A    between atoms: C_2  and  C_4
REMARK    2  A    between atoms: C_9  and  C_10
REMARK    3  A    between atoms: C_10  and  C_11
REMARK                            x       y       z     vdW  Elec       q    Type
REMARK                         _______ _______ _______ _____ _____    ______ ____
ROOT
ATOM      1  C   UNL     1       3.961  -6.206  24.006  0.00  0.00    +0.067 A 
ATOM      2  C   UNL     1       4.110  -6.579  25.350  0.00  0.00    +0.018 A 
ATOM      3  C   UNL     1       5.283  -6.291  26.058  0.00  0.00    +0.028 A 
ATOM      4  C   UNL     1       6.279  -5.607  25.357  0.00  0.00    +0.066 A 
ATOM      5  N   UNL     1       7.521  -5.162  25.718  0.00  0.00    -0.341 N 
ATOM      6  H   UNL     1       7.971  -5.258  26.622  0.00  0.00    +0.167 HD
ATOM      7  C   UNL     1       8.091  -4.527  24.638  0.00  0.00    +0.115 A 
ATOM      8  N   UNL     1       7.276  -4.553  23.600  0.00  0.00    -0.232 NA
ATOM      9  C   UNL     1       6.152  -5.213  24.031  0.00  0.00    +0.090 A 
ATOM     10  C   UNL     1       4.976  -5.510  23.334  0.00  0.00    +0.045 A 
ENDROOT
BRANCH   1  14
ATOM     11  N   UNL     1       2.334  -7.864  23.156  0.00  0.00    -0.247 N 
ATOM     12  H   UNL     1       2.680  -8.485  23.881  0.00  0.00    +0.288 HD
ATOM     13  H   UNL     1       1.353  -8.021  22.967  0.00  0.00    +0.288 HD
ATOM     14  C   UNL     1       2.711  -6.556  23.277  0.00  0.00    +0.308 C 
ATOM     15  N   UNL     1       1.979  -5.617  22.775  0.00  0.00    -0.099 NA
ATOM     16  H   UNL     1       1.191  -6.029  22.275  0.00  0.00    +0.363 HD
ENDBRANCH   1  14
BRANCH   7  17
ATOM     17  C   UNL     1       9.450  -3.899  24.675  0.00  0.00    +0.148 C 
BRANCH  17  18
ATOM     18  C   UNL     1       9.520  -2.490  24.169  0.00  0.00    +0.115 A 
ATOM     19  N   UNL     1       9.506  -2.205  22.824  0.00  0.00    -0.341 N 
ATOM     20  H   UNL     1       9.457  -2.882  22.076  0.00  0.00    +0.167 HD
ATOM     21  C   UNL     1       9.552  -0.843  22.670  0.00  0.00    +0.066 A 
ATOM     22  C   UNL     1       9.549  -0.020  21.543  0.00  0.00    +0.028 A 
ATOM     23  C   UNL     1       9.592   1.360  21.776  0.00  0.00    +0.002 A 
ATOM     24  C   UNL     1       9.641   1.881  23.071  0.00  0.00    +0.002 A 
ATOM     25  C   UNL     1       9.649   1.032  24.184  0.00  0.00    +0.030 A 
ATOM     26  C   UNL     1       9.600  -0.352  23.969  0.00  0.00    +0.089 A 
ATOM     27  N   UNL     1       9.589  -1.377  24.880  0.00  0.00    -0.232 NA
ENDBRANCH  17  18
ENDBRANCH   7  17
TORSDOF 3
ENDMDL
MODEL 9
REMARK VINA RESULT:      -7.2      2.104      2.979
REMARK  Name = 
REMARK  3 active torsions:
REMARK  status: ('A' for Active; 'I' for Inactive)
REMARK    1  A    between atoms: C_2  and  C_4
REMARK    2  A    between atoms: C_9  and  C_10
REMARK    3  A    between atoms: C_10  and  C_11
REMARK                            x       y       z     vdW  Elec       q    Type
REMARK                         _______ _______ _______ _____ _____    ______ ____
ROOT
ATOM      1  C   UNL     1       7.216  -4.902  25.231  0.00  0.00    +0.067 A 
ATOM      2  C   UNL     1       6.524  -5.254  24.063  0.00  0.00    +0.018 A 
ATOM      3  C   UNL     1       6.703  -4.542  22.870  0.00  0.00    +0.028 A 
ATOM      4  C   UNL     1       7.610  -3.480  22.912  0.00  0.00    +0.066 A 
ATOM      5  N   UNL     1       8.033  -2.591  21.962  0.00  0.00    -0.341 N 
ATOM      6  H   UNL     1       7.742  -2.541  20.991  0.00  0.00    +0.167 HD
ATOM      7  C   UNL     1       8.961  -1.748  22.531  0.00  0.00    +0.115 A 
ATOM      8  N   UNL     1       9.144  -2.050  23.803  0.00  0.00    -0.232 NA
ATOM      9  C   UNL     1       8.319  -3.120  24.050  0.00  0.00    +0.090 A 
ATOM     10  C   UNL     1       8.129  -3.838  25.236  0.00  0.00    +0.045 A 
ENDROOT
BRANCH   1  14
ATOM     11  N   UNL     1       5.822  -6.373  26.648  0.00  0.00    -0.247 N 
ATOM     12  H   UNL     1       5.373  -6.675  25.788  0.00  0.00    +0.288 HD
ATOM     13  H   UNL     1       5.854  -7.117  27.333  0.00  0.00    +0.288 HD
ATOM     14  C   UNL     1       6.979  -5.664  26.488  0.00  0.00    +0.308 C 
ATOM     15  N   UNL     1       7.878  -5.665  27.415  0.00  0.00    -0.099 NA
ATOM     16  H   UNL     1       7.539  -6.195  28.219  0.00  0.00    +0.363 HD
ENDBRANCH   1  14
BRANCH   7  17
ATOM     17  C   UNL     1       9.651  -0.654  21.777  0.00  0.00    +0.148 C 
BRANCH  17  18
ATOM     18  C   UNL     1       9.220   0.738  22.129  0.00  0.00    +0.115 A 
ATOM     19  N   UNL     1       9.952   1.525  22.988  0.00  0.00    -0.341 N 
ATOM     20  H   UNL     1      10.808   1.256  23.451  0.00  0.00    +0.167 HD
ATOM     21  C   UNL     1       9.331   2.742  23.093  0.00  0.00    +0.066 A 
ATOM     22  C   UNL     1       9.642   3.902  23.806  0.00  0.00    +0.028 A 
ATOM     23  C   UNL     1       8.763   4.982  23.658  0.00  0.00    +0.002 A 
ATOM     24  C   UNL     1       7.633   4.897  22.842  0.00  0.00    +0.002 A 
ATOM     25  C   UNL     1       7.342   3.720  22.142  0.00  0.00    +0.030 A 
ATOM     26  C   UNL     1       8.214   2.631  22.275  0.00  0.00    +0.089 A 
ATOM     27  N   UNL     1       8.154   1.390  21.695  0.00  0.00    -0.232 NA
ENDBRANCH  17  18
ENDBRANCH   7  17
TORSDOF 3
ENDMDL
