MODEL 1
REMARK VINA RESULT:      -7.4      0.000      0.000
REMARK  Name = 
REMARK  4 active torsions:
REMARK  status: ('A' for Active; 'I' for Inactive)
REMARK    1  A    between atoms: O_1  and  C_2
REMARK    2  A    between atoms: C_5  and  C_8
REMARK    3  A    between atoms: C_8  and  C_19
REMARK    4  A    between atoms: C_22  and  O_23
REMARK                            x       y       z     vdW  Elec       q    Type
REMARK                         _______ _______ _______ _____ _____    ______ ____
ROOT
ATOM      1  C   UNL     1       6.389  -2.358  23.496  0.00  0.00    +0.236 C 
ATOM      2  C   UNL     1       5.494  -3.202  22.501  0.00  0.00    +0.270 C 
ATOM      3  O   UNL     1       5.628  -3.296  21.282  0.00  0.00    -0.270 OA
ATOM      4  N   UNL     1       4.547  -3.994  23.109  0.00  0.00    -0.279 N 
ATOM      5  H   UNL     1       4.066  -4.667  22.530  0.00  0.00    +0.155 HD
ATOM      6  C   UNL     1       4.133  -3.737  24.410  0.00  0.00    +0.076 A 
ATOM      7  C   UNL     1       4.585  -2.583  25.051  0.00  0.00    +0.144 A 
ATOM      8  C   UNL     1       4.041  -2.228  26.284  0.00  0.00    +0.047 A 
ATOM      9  C   UNL     1       3.098  -3.061  26.893  0.00  0.00    +0.004 A 
ATOM     10  C   UNL     1       2.696  -4.246  26.271  0.00  0.00    +0.002 A 
ATOM     11  C   UNL     1       3.206  -4.581  25.018  0.00  0.00    +0.027 A 
ATOM     12  O   UNL     1       5.520  -1.741  24.495  0.00  0.00    -0.465 OA
ENDROOT
BRANCH   1  16
ATOM     13  C   UNL     1       8.892   0.838  21.855  0.00  0.00    +0.117 A 
ATOM     14  C   UNL     1       9.244  -0.483  21.651  0.00  0.00    +0.046 A 
ATOM     15  C   UNL     1       8.425  -1.506  22.135  0.00  0.00    +0.012 A 
ATOM     16  C   UNL     1       7.211  -1.231  22.800  0.00  0.00    +0.009 A 
ATOM     17  C   UNL     1       6.872   0.128  22.974  0.00  0.00    +0.012 A 
ATOM     18  C   UNL     1       7.707   1.154  22.507  0.00  0.00    +0.046 A 
BRANCH  13  19
ATOM     19  O   UNL     1       9.755   1.797  21.419  0.00  0.00    -0.507 OA
ATOM     20  H   UNL     1       9.439   2.661  21.727  0.00  0.00    +0.292 HD
ENDBRANCH  13  19
ENDBRANCH   1  16
BRANCH   1  21
ATOM     21  C   UNL     1       7.429  -3.284  24.202  0.00  0.00    +0.009 A 
ATOM     22  C   UNL     1       7.777  -4.531  23.646  0.00  0.00    +0.012 A 
ATOM     23  C   UNL     1       8.748  -5.336  24.242  0.00  0.00    +0.046 A 
ATOM     24  C   UNL     1       9.396  -4.897  25.387  0.00  0.00    +0.117 A 
ATOM     25  C   UNL     1       9.082  -3.671  25.957  0.00  0.00    +0.046 A 
ATOM     26  C   UNL     1       8.109  -2.863  25.362  0.00  0.00    +0.012 A 
BRANCH  24  27
ATOM     27  O   UNL     1      10.352  -5.708  25.923  0.00  0.00    -0.507 OA
ATOM     28  H   UNL     1      10.030  -6.041  26.776  0.00  0.00    +0.292 HD
ENDBRANCH  24  27
ENDBRANCH   1  21
TORSDOF 4
ENDMDL
MODEL 2
REMARK VINA RESULT:      -7.4      2.804      6.479
REMARK  Name = 
REMARK  4 active torsions:
REMARK  status: ('A' for Active; 'I' for Inactive)
REMARK    1  A    between atoms: O_1  and  C_2
REMARK    2  A    between atoms: C_5  and  C_8
REMARK    3  A    between atoms: C_8  and  C_19
REMARK    4  A    between atoms: C_22  and  O_23
REMARK                            x       y       z     vdW  Elec       q    Type
REMARK                         _______ _______ _______ _____ _____    ______ ____
ROOT
ATOM      1  C   UNL     1       7.546  -4.281  25.151  0.00  0.00    +0.236 C 
ATOM      2  C   UNL     1       9.121  -4.422  25.207  0.00  0.00    +0.270 C 
ATOM      3  O   UNL     1       9.765  -5.384  25.624  0.00  0.00    -0.270 OA
ATOM      4  N   UNL     1       9.813  -3.392  24.612  0.00  0.00    -0.279 N 
ATOM      5  H   UNL     1      10.806  -3.517  24.480  0.00  0.00    +0.155 HD
ATOM      6  C   UNL     1       9.207  -2.162  24.390  0.00  0.00    +0.076 A 
ATOM      7  C   UNL     1       7.929  -1.932  24.901  0.00  0.00    +0.144 A 
ATOM      8  C   UNL     1       7.386  -0.651  24.835  0.00  0.00    +0.047 A 
ATOM      9  C   UNL     1       8.098   0.374  24.204  0.00  0.00    +0.004 A 
ATOM     10  C   UNL     1       9.352   0.120  23.642  0.00  0.00    +0.002 A 
ATOM     11  C   UNL     1       9.915  -1.151  23.745  0.00  0.00    +0.027 A 
ATOM     12  O   UNL     1       7.188  -2.913  25.519  0.00  0.00    -0.465 OA
ENDROOT
BRANCH   1  16
ATOM     13  C   UNL     1       5.205  -6.741  27.914  0.00  0.00    +0.117 A 
ATOM     14  C   UNL     1       4.889  -6.731  26.569  0.00  0.00    +0.046 A 
ATOM     15  C   UNL     1       5.661  -5.982  25.677  0.00  0.00    +0.012 A 
ATOM     16  C   UNL     1       6.794  -5.257  26.106  0.00  0.00    +0.009 A 
ATOM     17  C   UNL     1       7.098  -5.305  27.483  0.00  0.00    +0.012 A 
ATOM     18  C   UNL     1       6.309  -6.039  28.380  0.00  0.00    +0.046 A 
BRANCH  13  19
ATOM     19  O   UNL     1       4.384  -7.436  28.750  0.00  0.00    -0.507 OA
ATOM     20  H   UNL     1       3.732  -6.823  29.125  0.00  0.00    +0.292 HD
ENDBRANCH  13  19
ENDBRANCH   1  16
BRANCH   1  21
ATOM     21  C   UNL     1       7.028  -4.593  23.711  0.00  0.00    +0.009 A 
ATOM     22  C   UNL     1       6.058  -3.773  23.102  0.00  0.00    +0.012 A 
ATOM     23  C   UNL     1       5.635  -4.014  21.794  0.00  0.00    +0.046 A 
ATOM     24  C   UNL     1       6.189  -5.061  21.075  0.00  0.00    +0.117 A 
ATOM     25  C   UNL     1       7.152  -5.885  21.643  0.00  0.00    +0.046 A 
ATOM     26  C   UNL     1       7.577  -5.645  22.953  0.00  0.00    +0.012 A 
BRANCH  24  27
ATOM     27  O   UNL     1       5.761  -5.246  19.794  0.00  0.00    -0.507 OA
ATOM     28  H   UNL     1       4.823  -4.999  19.745  0.00  0.00    +0.292 HD
ENDBRANCH  24  27
ENDBRANCH   1  21
TORSDOF 4
ENDMDL
MODEL 3
REMARK VINA RESULT:      -7.3      2.724      6.428
REMARK  Name = 
REMARK  4 active torsions:
REMARK  status: ('A' for Active; 'I' for Inactive)
REMARK    1  A    between atoms: O_1  and  C_2
REMARK    2  A    between atoms: C_5  and  C_8
REMARK    3  A    between atoms: C_8  and  C_19
REMARK    4  A    between atoms: C_22  and  O_23
REMARK                            x       y       z     vdW  Elec       q    Type
REMARK                         _______ _______ _______ _____ _____    ______ ____
ROOT
ATOM      1  C   UNL     1       7.556  -3.978  24.968  0.00  0.00    +0.236 C 
ATOM      2  C   UNL     1       9.112  -4.212  25.140  0.00  0.00    +0.270 C 
ATOM      3  O   UNL     1       9.661  -5.169  25.682  0.00  0.00    -0.270 OA
ATOM      4  N   UNL     1       9.907  -3.287  24.502  0.00  0.00    -0.279 N 
ATOM      5  H   UNL     1      10.895  -3.487  24.448  0.00  0.00    +0.155 HD
ATOM      6  C   UNL     1       9.402  -2.048  24.133  0.00  0.00    +0.076 A 
ATOM      7  C   UNL     1       8.114  -1.691  24.536  0.00  0.00    +0.144 A 
ATOM      8  C   UNL     1       7.665  -0.390  24.321  0.00  0.00    +0.047 A 
ATOM      9  C   UNL     1       8.482   0.525  23.649  0.00  0.00    +0.004 A 
ATOM     10  C   UNL     1       9.747   0.142  23.196  0.00  0.00    +0.002 A 
ATOM     11  C   UNL     1      10.215  -1.147  23.448  0.00  0.00    +0.027 A 
ATOM     12  O   UNL     1       7.272  -2.562  25.188  0.00  0.00    -0.465 OA
ENDROOT
BRANCH   1  16
ATOM     13  C   UNL     1       5.351  -6.592  27.701  0.00  0.00    +0.117 A 
ATOM     14  C   UNL     1       6.273  -5.695  28.204  0.00  0.00    +0.046 A 
ATOM     15  C   UNL     1       6.947  -4.828  27.340  0.00  0.00    +0.012 A 
ATOM     16  C   UNL     1       6.682  -4.811  25.954  0.00  0.00    +0.009 A 
ATOM     17  C   UNL     1       5.721  -5.727  25.476  0.00  0.00    +0.012 A 
ATOM     18  C   UNL     1       5.062  -6.612  26.342  0.00  0.00    +0.046 A 
BRANCH  13  19
ATOM     19  O   UNL     1       4.768  -7.457  28.576  0.00  0.00    -0.507 OA
ATOM     20  H   UNL     1       4.220  -6.950  29.195  0.00  0.00    +0.292 HD
ENDBRANCH  13  19
ENDBRANCH   1  16
BRANCH   1  21
ATOM     21  C   UNL     1       7.105  -4.389  23.530  0.00  0.00    +0.009 A 
ATOM     22  C   UNL     1       7.609  -5.557  22.925  0.00  0.00    +0.012 A 
ATOM     23  C   UNL     1       7.165  -5.959  21.665  0.00  0.00    +0.046 A 
ATOM     24  C   UNL     1       6.203  -5.212  21.004  0.00  0.00    +0.117 A 
ATOM     25  C   UNL     1       5.681  -4.059  21.575  0.00  0.00    +0.046 A 
ATOM     26  C   UNL     1       6.124  -3.654  22.837  0.00  0.00    +0.012 A 
BRANCH  24  27
ATOM     27  O   UNL     1       5.785  -5.654  19.784  0.00  0.00    -0.507 OA
ATOM     28  H   UNL     1       6.402  -5.326  19.110  0.00  0.00    +0.292 HD
ENDBRANCH  24  27
ENDBRANCH   1  21
TORSDOF 4
ENDMDL
MODEL 4
REMARK VINA RESULT:      -6.6      2.599      5.402
REMARK  Name = 
REMARK  4 active torsions:
REMARK  status: ('A' for Active; 'I' for Inactive)
REMARK    1  A    between atoms: O_1  and  C_2
REMARK    2  A    between atoms: C_5  and  C_8
REMARK    3  A    between atoms: C_8  and  C_19
REMARK    4  A    between atoms: C_22  and  O_23
REMARK                            x       y       z     vdW  Elec       q    Type
REMARK                         _______ _______ _______ _____ _____    ______ ____
ROOT
ATOM      1  C   UNL     1       7.052  -1.769  24.539  0.00  0.00    +0.236 C 
ATOM      2  C   UNL     1       7.869  -2.264  25.801  0.00  0.00    +0.270 C 
ATOM      3  O   UNL     1       8.466  -3.332  25.924  0.00  0.00    -0.270 OA
ATOM      4  N   UNL     1       8.003  -1.331  26.803  0.00  0.00    -0.279 N 
ATOM      5  H   UNL     1       8.648  -1.544  27.551  0.00  0.00    +0.155 HD
ATOM      6  C   UNL     1       7.141  -0.244  26.885  0.00  0.00    +0.076 A 
ATOM      7  C   UNL     1       6.048  -0.178  26.019  0.00  0.00    +0.144 A 
ATOM      8  C   UNL     1       5.087   0.812  26.207  0.00  0.00    +0.047 A 
ATOM      9  C   UNL     1       5.257   1.764  27.217  0.00  0.00    +0.004 A 
ATOM     10  C   UNL     1       6.385   1.725  28.041  0.00  0.00    +0.002 A 
ATOM     11  C   UNL     1       7.327   0.710  27.882  0.00  0.00    +0.027 A 
ATOM     12  O   UNL     1       5.848  -1.085  25.004  0.00  0.00    -0.465 OA
ENDROOT
BRANCH   1  16
ATOM     13  C   UNL     1       5.935  -5.234  22.110  0.00  0.00    +0.117 A 
ATOM     14  C   UNL     1       4.976  -4.590  22.868  0.00  0.00    +0.046 A 
ATOM     15  C   UNL     1       5.318  -3.457  23.610  0.00  0.00    +0.012 A 
ATOM     16  C   UNL     1       6.622  -2.918  23.578  0.00  0.00    +0.009 A 
ATOM     17  C   UNL     1       7.572  -3.589  22.779  0.00  0.00    +0.012 A 
ATOM     18  C   UNL     1       7.232  -4.740  22.053  0.00  0.00    +0.046 A 
BRANCH  13  19
ATOM     19  O   UNL     1       5.565  -6.370  21.455  0.00  0.00    -0.507 OA
ATOM     20  H   UNL     1       4.704  -6.659  21.797  0.00  0.00    +0.292 HD
ENDBRANCH  13  19
ENDBRANCH   1  16
BRANCH   1  21
ATOM     21  C   UNL     1       7.920  -0.788  23.688  0.00  0.00    +0.009 A 
ATOM     22  C   UNL     1       7.313   0.150  22.830  0.00  0.00    +0.012 A 
ATOM     23  C   UNL     1       8.081   1.067  22.112  0.00  0.00    +0.046 A 
ATOM     24  C   UNL     1       9.460   1.070  22.256  0.00  0.00    +0.117 A 
ATOM     25  C   UNL     1      10.090   0.163  23.098  0.00  0.00    +0.046 A 
ATOM     26  C   UNL     1       9.321  -0.756  23.818  0.00  0.00    +0.012 A 
BRANCH  24  27
ATOM     27  O   UNL     1      10.169   1.996  21.551  0.00  0.00    -0.507 OA
ATOM     28  H   UNL     1      10.253   1.686  20.635  0.00  0.00    +0.292 HD
ENDBRANCH  24  27
ENDBRANCH   1  21
TORSDOF 4
ENDMDL
MODEL 5
REMARK VINA RESULT:      -6.6      2.906      6.716
REMARK  Name = 
REMARK  4 active torsions:
REMARK  status: ('A' for Active; 'I' for Inactive)
REMARK    1  A    between atoms: O_1  and  C_2
REMARK    2  A    between atoms: C_5  and  C_8
REMARK    3  A    between atoms: C_8  and  C_19
REMARK    4  A    between atoms: C_22  and  O_23
REMARK                            x       y       z     vdW  Elec       q    Type
REMARK                         _______ _______ _______ _____ _____    ______ ____
ROOT
ATOM      1  C   UNL     1       7.803  -1.428  24.883  0.00  0.00    +0.236 C 
ATOM      2  C   UNL     1       7.324  -1.419  23.375  0.00  0.00    +0.270 C 
ATOM      3  O   UNL     1       6.589  -2.239  22.827  0.00  0.00    -0.270 OA
ATOM      4  N   UNL     1       7.691  -0.302  22.660  0.00  0.00    -0.279 N 
ATOM      5  H   UNL     1       7.273  -0.178  21.749  0.00  0.00    +0.155 HD
ATOM      6  C   UNL     1       8.738   0.504  23.088  0.00  0.00    +0.076 A 
ATOM      7  C   UNL     1       9.508   0.097  24.179  0.00  0.00    +0.144 A 
ATOM      8  C   UNL     1      10.661   0.807  24.505  0.00  0.00    +0.047 A 
ATOM      9  C   UNL     1      11.001   1.953  23.779  0.00  0.00    +0.004 A 
ATOM     10  C   UNL     1      10.192   2.387  22.726  0.00  0.00    +0.002 A 
ATOM     11  C   UNL     1       9.061   1.654  22.371  0.00  0.00    +0.027 A 
ATOM     12  O   UNL     1       9.204  -1.016  24.928  0.00  0.00    -0.465 OA
ENDROOT
BRANCH   1  16
ATOM     13  C   UNL     1       7.578  -5.175  27.135  0.00  0.00    +0.117 A 
ATOM     14  C   UNL     1       6.462  -4.366  27.037  0.00  0.00    +0.046 A 
ATOM     15  C   UNL     1       6.517  -3.191  26.282  0.00  0.00    +0.012 A 
ATOM     16  C   UNL     1       7.680  -2.819  25.574  0.00  0.00    +0.009 A 
ATOM     17  C   UNL     1       8.794  -3.678  25.681  0.00  0.00    +0.012 A 
ATOM     18  C   UNL     1       8.745  -4.845  26.457  0.00  0.00    +0.046 A 
BRANCH  13  19
ATOM     19  O   UNL     1       7.492  -6.276  27.932  0.00  0.00    -0.507 OA
ATOM     20  H   UNL     1       8.226  -6.872  27.718  0.00  0.00    +0.292 HD
ENDBRANCH  13  19
ENDBRANCH   1  16
BRANCH   1  21
ATOM     21  C   UNL     1       6.936  -0.442  25.729  0.00  0.00    +0.009 A 
ATOM     22  C   UNL     1       7.415   0.072  26.950  0.00  0.00    +0.012 A 
ATOM     23  C   UNL     1       6.669   0.998  27.680  0.00  0.00    +0.046 A 
ATOM     24  C   UNL     1       5.447   1.435  27.191  0.00  0.00    +0.117 A 
ATOM     25  C   UNL     1       4.949   0.953  25.987  0.00  0.00    +0.046 A 
ATOM     26  C   UNL     1       5.695   0.026  25.255  0.00  0.00    +0.012 A 
BRANCH  24  27
ATOM     27  O   UNL     1       4.763   2.355  27.928  0.00  0.00    -0.507 OA
ATOM     28  H   UNL     1       3.944   1.944  28.249  0.00  0.00    +0.292 HD
ENDBRANCH  24  27
ENDBRANCH   1  21
TORSDOF 4
ENDMDL
MODEL 6
REMARK VINA RESULT:      -6.5      2.154      3.403
REMARK  Name = 
REMARK  4 active torsions:
REMARK  status: ('A' for Active; 'I' for Inactive)
REMARK    1  A    between atoms: O_1  and  C_2
REMARK    2  A    between atoms: C_5  and  C_8
REMARK    3  A    between atoms: C_8  and  C_19
REMARK    4  A    between atoms: C_22  and  O_23
REMARK                            x       y       z     vdW  Elec       q    Type
REMARK                         _______ _______ _______ _____ _____    ______ ____
ROOT
ATOM      1  C   UNL     1       7.126  -2.170  24.811  0.00  0.00    +0.236 C 
ATOM      2  C   UNL     1       5.773  -1.521  25.315  0.00  0.00    +0.270 C 
ATOM      3  O   UNL     1       5.364  -0.385  25.080  0.00  0.00    -0.270 OA
ATOM      4  N   UNL     1       4.937  -2.381  25.987  0.00  0.00    -0.279 N 
ATOM      5  H   UNL     1       4.000  -2.058  26.184  0.00  0.00    +0.155 HD
ATOM      6  C   UNL     1       5.423  -3.556  26.546  0.00  0.00    +0.076 A 
ATOM      7  C   UNL     1       6.799  -3.794  26.538  0.00  0.00    +0.144 A 
ATOM      8  C   UNL     1       7.309  -4.880  27.245  0.00  0.00    +0.047 A 
ATOM      9  C   UNL     1       6.437  -5.754  27.901  0.00  0.00    +0.004 A 
ATOM     10  C   UNL     1       5.057  -5.543  27.853  0.00  0.00    +0.002 A 
ATOM     11  C   UNL     1       4.547  -4.433  27.182  0.00  0.00    +0.027 A 
ATOM     12  O   UNL     1       7.692  -2.967  25.896  0.00  0.00    -0.465 OA
ENDROOT
BRANCH   1  16
ATOM     13  C   UNL     1       9.895   1.022  23.667  0.00  0.00    +0.117 A 
ATOM     14  C   UNL     1      10.010   0.426  24.908  0.00  0.00    +0.046 A 
ATOM     15  C   UNL     1       9.157  -0.623  25.260  0.00  0.00    +0.012 A 
ATOM     16  C   UNL     1       8.193  -1.128  24.360  0.00  0.00    +0.009 A 
ATOM     17  C   UNL     1       8.116  -0.509  23.094  0.00  0.00    +0.012 A 
ATOM     18  C   UNL     1       8.958   0.559  22.751  0.00  0.00    +0.046 A 
BRANCH  13  19
ATOM     19  O   UNL     1      10.708   2.080  23.396  0.00  0.00    -0.507 OA
ATOM     20  H   UNL     1      11.628   1.774  23.401  0.00  0.00    +0.292 HD
ENDBRANCH  13  19
ENDBRANCH   1  16
BRANCH   1  21
ATOM     21  C   UNL     1       6.855  -3.082  23.572  0.00  0.00    +0.009 A 
ATOM     22  C   UNL     1       7.584  -4.273  23.382  0.00  0.00    +0.012 A 
ATOM     23  C   UNL     1       7.305  -5.120  22.309  0.00  0.00    +0.046 A 
ATOM     24  C   UNL     1       6.287  -4.798  21.426  0.00  0.00    +0.117 A 
ATOM     25  C   UNL     1       5.545  -3.635  21.587  0.00  0.00    +0.046 A 
ATOM     26  C   UNL     1       5.823  -2.785  22.662  0.00  0.00    +0.012 A 
BRANCH  24  27
ATOM     27  O   UNL     1       6.037  -5.665  20.404  0.00  0.00    -0.507 OA
ATOM     28  H   UNL     1       5.508  -6.402  20.748  0.00  0.00    +0.292 HD
ENDBRANCH  24  27
ENDBRANCH   1  21
TORSDOF 4
ENDMDL
MODEL 7
REMARK VINA RESULT:      -6.5      2.723      4.239
REMARK  Name = 
REMARK  4 active torsions:
REMARK  status: ('A' for Active; 'I' for Inactive)
REMARK    1  A    between atoms: O_1  and  C_2
REMARK    2  A    between atoms: C_5  and  C_8
REMARK    3  A    between atoms: C_8  and  C_19
REMARK    4  A    between atoms: C_22  and  O_23
REMARK                            x       y       z     vdW  Elec       q    Type
REMARK                         _______ _______ _______ _____ _____    ______ ____
ROOT
ATOM      1  C   UNL     1       6.468  -3.346  25.526  0.00  0.00    +0.236 C 
ATOM      2  C   UNL     1       5.641  -2.265  26.335  0.00  0.00    +0.270 C 
ATOM      3  O   UNL     1       5.509  -1.074  26.058  0.00  0.00    -0.270 OA
ATOM      4  N   UNL     1       4.913  -2.768  27.388  0.00  0.00    -0.279 N 
ATOM      5  H   UNL     1       4.248  -2.148  27.829  0.00  0.00    +0.155 HD
ATOM      6  C   UNL     1       5.223  -4.002  27.945  0.00  0.00    +0.076 A 
ATOM      7  C   UNL     1       6.371  -4.671  27.516  0.00  0.00    +0.144 A 
ATOM      8  C   UNL     1       6.784  -5.819  28.187  0.00  0.00    +0.047 A 
ATOM      9  C   UNL     1       6.014  -6.325  29.239  0.00  0.00    +0.004 A 
ATOM     10  C   UNL     1       4.834  -5.682  29.623  0.00  0.00    +0.002 A 
ATOM     11  C   UNL     1       4.441  -4.508  28.981  0.00  0.00    +0.027 A 
ATOM     12  O   UNL     1       7.151  -4.217  26.478  0.00  0.00    -0.465 OA
ENDROOT
BRANCH   1  16
ATOM     13  C   UNL     1       9.473  -1.954  22.664  0.00  0.00    +0.117 A 
ATOM     14  C   UNL     1       8.132  -1.744  22.406  0.00  0.00    +0.046 A 
ATOM     15  C   UNL     1       7.172  -2.147  23.338  0.00  0.00    +0.012 A 
ATOM     16  C   UNL     1       7.535  -2.733  24.569  0.00  0.00    +0.009 A 
ATOM     17  C   UNL     1       8.914  -2.915  24.808  0.00  0.00    +0.012 A 
ATOM     18  C   UNL     1       9.875  -2.531  23.862  0.00  0.00    +0.046 A 
BRANCH  13  19
ATOM     19  O   UNL     1      10.365  -1.599  21.697  0.00  0.00    -0.507 OA
ATOM     20  H   UNL     1       9.973  -1.787  20.830  0.00  0.00    +0.292 HD
ENDBRANCH  13  19
ENDBRANCH   1  16
BRANCH   1  21
ATOM     21  C   UNL     1       5.511  -4.193  24.628  0.00  0.00    +0.009 A 
ATOM     22  C   UNL     1       5.930  -5.429  24.096  0.00  0.00    +0.012 A 
ATOM     23  C   UNL     1       5.060  -6.216  23.343  0.00  0.00    +0.046 A 
ATOM     24  C   UNL     1       3.758  -5.790  23.128  0.00  0.00    +0.117 A 
ATOM     25  C   UNL     1       3.311  -4.580  23.643  0.00  0.00    +0.046 A 
ATOM     26  C   UNL     1       4.182  -3.790  24.398  0.00  0.00    +0.012 A 
BRANCH  24  27
ATOM     27  O   UNL     1       2.937  -6.602  22.403  0.00  0.00    -0.507 OA
ATOM     28  H   UNL     1       2.469  -6.059  21.748  0.00  0.00    +0.292 HD
ENDBRANCH  24  27
ENDBRANCH   1  21
TORSDOF 4
ENDMDL
MODEL 8
REMARK VINA RESULT:      -6.5      2.483      4.196
REMARK  Name = 
REMARK  4 active torsions:
REMARK  status: ('A' for Active; 'I' for Inactive)
REMARK    1  A    between atoms: O_1  and  C_2
REMARK    2  A    between atoms: C_5  and  C_8
REMARK    3  A    between atoms: C_8  and  C_19
REMARK    4  A    between atoms: C_22  and  O_23
REMARK                            x       y       z     vdW  Elec       q    Type
REMARK                         _______ _______ _______ _____ _____    ______ ____
ROOT
ATOM      1  C   UNL     1       8.180  -1.566  23.589  0.00  0.00    +0.236 C 
ATOM      2  C   UNL     1       9.274  -2.647  23.964  0.00  0.00    +0.270 C 
ATOM      3  O   UNL     1      10.410  -2.435  24.387  0.00  0.00    -0.270 OA
ATOM      4  N   UNL     1       8.838  -3.950  23.911  0.00  0.00    -0.279 N 
ATOM      5  H   UNL     1       9.447  -4.658  24.296  0.00  0.00    +0.155 HD
ATOM      6  C   UNL     1       7.708  -4.294  23.181  0.00  0.00    +0.076 A 
ATOM      7  C   UNL     1       7.092  -3.326  22.386  0.00  0.00    +0.144 A 
ATOM      8  C   UNL     1       6.068  -3.702  21.520  0.00  0.00    +0.047 A 
ATOM      9  C   UNL     1       5.626  -5.028  21.501  0.00  0.00    +0.004 A 
ATOM     10  C   UNL     1       6.208  -5.978  22.344  0.00  0.00    +0.002 A 
ATOM     11  C   UNL     1       7.261  -5.614  23.180  0.00  0.00    +0.027 A 
ATOM     12  O   UNL     1       7.486  -2.008  22.382  0.00  0.00    -0.465 OA
ENDROOT
BRANCH   1  16
ATOM     13  C   UNL     1      10.159   2.272  22.874  0.00  0.00    +0.117 A 
ATOM     14  C   UNL     1       9.780   1.486  21.803  0.00  0.00    +0.046 A 
ATOM     15  C   UNL     1       9.108   0.281  22.025  0.00  0.00    +0.012 A 
ATOM     16  C   UNL     1       8.764  -0.146  23.326  0.00  0.00    +0.009 A 
ATOM     17  C   UNL     1       9.150   0.691  24.395  0.00  0.00    +0.012 A 
ATOM     18  C   UNL     1       9.844   1.889  24.171  0.00  0.00    +0.046 A 
BRANCH  13  19
ATOM     19  O   UNL     1      10.865   3.406  22.607  0.00  0.00    -0.507 OA
ATOM     20  H   UNL     1      10.402   4.161  23.002  0.00  0.00    +0.292 HD
ENDBRANCH  13  19
ENDBRANCH   1  16
BRANCH   1  21
ATOM     21  C   UNL     1       7.157  -1.408  24.758  0.00  0.00    +0.009 A 
ATOM     22  C   UNL     1       7.434  -1.939  26.034  0.00  0.00    +0.012 A 
ATOM     23  C   UNL     1       6.549  -1.750  27.096  0.00  0.00    +0.046 A 
ATOM     24  C   UNL     1       5.390  -1.015  26.902  0.00  0.00    +0.117 A 
ATOM     25  C   UNL     1       5.089  -0.473  25.659  0.00  0.00    +0.046 A 
ATOM     26  C   UNL     1       5.974  -0.661  24.594  0.00  0.00    +0.012 A 
BRANCH  24  27
ATOM     27  O   UNL     1       4.565  -0.839  27.973  0.00  0.00    -0.507 OA
ATOM     28  H   UNL     1       5.090  -0.491  28.712  0.00  0.00    +0.292 HD
ENDBRANCH  24  27
ENDBRANCH   1  21
TORSDOF 4
ENDMDL
MODEL 9
REMARK VINA RESULT:      -6.4      3.011      5.593
REMARK  Name = 
REMARK  4 active torsions:
REMARK  status: ('A' for Active; 'I' for Inactive)
REMARK    1  A    between atoms: O_1  and  C_2
REMARK    2  A    between atoms: C_5  and  C_8
REMARK    3  A    between atoms: C_8  and  C_19
REMARK    4  A    between atoms: C_22  and  O_23
REMARK                            x       y       z     vdW  Elec       q    Type
REMARK                         _______ _______ _______ _____ _____    ______ ____
ROOT
ATOM      1  C   UNL     1       7.154  -0.848  24.844  0.00  0.00    +0.236 C 
ATOM      2  C   UNL     1       7.906  -1.203  26.190  0.00  0.00    +0.270 C 
ATOM      3  O   UNL     1       8.527  -2.234  26.442  0.00  0.00    -0.270 OA
ATOM      4  N   UNL     1       7.949  -0.183  27.112  0.00  0.00    -0.279 N 
ATOM      5  H   UNL     1       8.554  -0.307  27.912  0.00  0.00    +0.155 HD
ATOM      6  C   UNL     1       7.052   0.875  27.047  0.00  0.00    +0.076 A 
ATOM      7  C   UNL     1       6.012   0.828  26.116  0.00  0.00    +0.144 A 
ATOM      8  C   UNL     1       5.011   1.795  26.159  0.00  0.00    +0.047 A 
ATOM      9  C   UNL     1       5.089   2.835  27.089  0.00  0.00    +0.004 A 
ATOM     10  C   UNL     1       6.165   2.909  27.978  0.00  0.00    +0.002 A 
ATOM     11  C   UNL     1       7.146   1.918  27.965  0.00  0.00    +0.027 A 
ATOM     12  O   UNL     1       5.903  -0.170  25.175  0.00  0.00    -0.465 OA
ENDROOT
BRANCH   1  16
ATOM     13  C   UNL     1       6.143  -4.101  22.095  0.00  0.00    +0.117 A 
ATOM     14  C   UNL     1       7.457  -3.695  22.223  0.00  0.00    +0.046 A 
ATOM     15  C   UNL     1       7.791  -2.688  23.132  0.00  0.00    +0.012 A 
ATOM     16  C   UNL     1       6.820  -2.090  23.964  0.00  0.00    +0.009 A 
ATOM     17  C   UNL     1       5.490  -2.543  23.821  0.00  0.00    +0.012 A 
ATOM     18  C   UNL     1       5.154  -3.538  22.892  0.00  0.00    +0.046 A 
BRANCH  13  19
ATOM     19  O   UNL     1       5.861  -5.043  21.152  0.00  0.00    -0.507 OA
ATOM     20  H   UNL     1       5.565  -4.594  20.345  0.00  0.00    +0.292 HD
ENDBRANCH  13  19
ENDBRANCH   1  16
BRANCH   1  21
ATOM     21  C   UNL     1       8.041   0.086  23.962  0.00  0.00    +0.009 A 
ATOM     22  C   UNL     1       9.417   0.234  24.228  0.00  0.00    +0.012 A 
ATOM     23  C   UNL     1      10.225   1.021  23.408  0.00  0.00    +0.046 A 
ATOM     24  C   UNL     1       9.675   1.653  22.304  0.00  0.00    +0.117 A 
ATOM     25  C   UNL     1       8.324   1.524  22.009  0.00  0.00    +0.046 A 
ATOM     26  C   UNL     1       7.513   0.736  22.830  0.00  0.00    +0.012 A 
BRANCH  24  27
ATOM     27  O   UNL     1      10.507   2.396  21.520  0.00  0.00    -0.507 OA
ATOM     28  H   UNL     1      11.182   2.802  22.086  0.00  0.00    +0.292 HD
ENDBRANCH  24  27
ENDBRANCH   1  21
TORSDOF 4
ENDMDL
