MODEL 1
REMARK VINA RESULT:      -6.7      0.000      0.000
REMARK  Name = 
REMARK  5 active torsions:
REMARK  status: ('A' for Active; 'I' for Inactive)
REMARK    1  A    between atoms: C_1  and  N_2
REMARK    2  A    between atoms: C_4  and  C_12
REMARK    3  A    between atoms: C_7  and  C_8
REMARK    4  A    between atoms: C_14  and  C_15
REMARK    5  A    between atoms: C_15  and  O_16
REMARK                            x       y       z     vdW  Elec       q    Type
REMARK                         _______ _______ _______ _____ _____    ______ ____
ROOT
ATOM      1  C   UNL     1       6.767  -2.732  23.932  0.00  0.00    +0.039 A 
ATOM      2  C   UNL     1       5.862  -3.447  23.145  0.00  0.00    +0.134 A 
ATOM      3  F   UNL     1       5.533  -3.035  21.913  0.00  0.00    -0.205 F 
ATOM      4  C   UNL     1       5.300  -4.646  23.574  0.00  0.00    +0.059 A 
ATOM      5  C   UNL     1       5.696  -5.211  24.783  0.00  0.00    +0.058 A 
ATOM      6 CL   UNL     1       4.924  -6.686  25.239  0.00  0.00    -0.083 Cl
ATOM      7  C   UNL     1       6.680  -4.579  25.551  0.00  0.00    +0.078 A 
ATOM      8  C   UNL     1       7.188  -3.325  25.135  0.00  0.00    +0.029 A 
ENDROOT
BRANCH   1  14
ATOM      9  C   UNL     1       6.672   1.904  22.562  0.00  0.00    +0.173 C 
ATOM     10  N   UNL     1       7.273   0.642  22.943  0.00  0.00    -0.261 N 
ATOM     11  C   UNL     1       8.602   0.336  22.997  0.00  0.00    +0.156 A 
ATOM     12  C   UNL     1       8.639  -1.018  23.238  0.00  0.00    +0.075 A 
ATOM     13 BR   UNL     1      10.196  -2.071  23.208  0.00  0.00    -0.046 Br
ATOM     14  C   UNL     1       7.301  -1.431  23.492  0.00  0.00    +0.110 A 
ATOM     15  N   UNL     1       6.470  -0.395  23.264  0.00  0.00    -0.170 NA
BRANCH  11  16
ATOM     16  C   UNL     1       9.692   1.310  22.823  0.00  0.00    +0.435 C 
ATOM     17  F   UNL     1      10.079   1.413  21.529  0.00  0.00    -0.164 F 
ATOM     18  F   UNL     1      10.789   0.953  23.539  0.00  0.00    -0.164 F 
ATOM     19  F   UNL     1       9.365   2.563  23.228  0.00  0.00    -0.164 F 
ENDBRANCH  11  16
ENDBRANCH   1  14
BRANCH   7  20
ATOM     20  C   UNL     1       7.237  -5.146  26.807  0.00  0.00    +0.338 C 
ATOM     21  O   UNL     1       6.809  -4.820  27.904  0.00  0.00    -0.245 OA
BRANCH  20  22
ATOM     22  O   UNL     1       8.307  -5.952  26.661  0.00  0.00    -0.477 OA
ATOM     23  H   UNL     1       8.730  -6.261  27.487  0.00  0.00    +0.295 HD
ENDBRANCH  20  22
ENDBRANCH   7  20
TORSDOF 4
ENDMDL
MODEL 2
REMARK VINA RESULT:      -6.6      4.666      7.018
REMARK  Name = 
REMARK  5 active torsions:
REMARK  status: ('A' for Active; 'I' for Inactive)
REMARK    1  A    between atoms: C_1  and  N_2
REMARK    2  A    between atoms: C_4  and  C_12
REMARK    3  A    between atoms: C_7  and  C_8
REMARK    4  A    between atoms: C_14  and  C_15
REMARK    5  A    between atoms: C_15  and  O_16
REMARK                            x       y       z     vdW  Elec       q    Type
REMARK                         _______ _______ _______ _____ _____    ______ ____
ROOT
ATOM      1  C   UNL     1       7.985  -1.891  23.301  0.00  0.00    +0.039 A 
ATOM      2  C   UNL     1       9.055  -1.991  24.194  0.00  0.00    +0.134 A 
ATOM      3  F   UNL     1       9.358  -3.151  24.792  0.00  0.00    -0.205 F 
ATOM      4  C   UNL     1       9.891  -0.912  24.464  0.00  0.00    +0.059 A 
ATOM      5  C   UNL     1       9.727   0.290  23.779  0.00  0.00    +0.058 A 
ATOM      6 CL   UNL     1      10.797   1.576  24.203  0.00  0.00    -0.083 Cl
ATOM      7  C   UNL     1       8.734   0.395  22.799  0.00  0.00    +0.078 A 
ATOM      8  C   UNL     1       7.847  -0.688  22.588  0.00  0.00    +0.029 A 
ENDROOT
BRANCH   1  14
ATOM      9  C   UNL     1       6.231  -5.866  21.180  0.00  0.00    +0.173 C 
ATOM     10  N   UNL     1       6.320  -4.822  22.180  0.00  0.00    -0.261 N 
ATOM     11  C   UNL     1       5.503  -4.628  23.256  0.00  0.00    +0.156 A 
ATOM     12  C   UNL     1       5.897  -3.418  23.780  0.00  0.00    +0.075 A 
ATOM     13 BR   UNL     1       5.002  -2.503  25.157  0.00  0.00    -0.046 Br
ATOM     14  C   UNL     1       7.070  -3.023  23.077  0.00  0.00    +0.110 A 
ATOM     15  N   UNL     1       7.288  -3.886  22.066  0.00  0.00    -0.170 NA
BRANCH  11  16
ATOM     16  C   UNL     1       4.453  -5.565  23.689  0.00  0.00    +0.435 C 
ATOM     17  F   UNL     1       4.908  -6.838  23.767  0.00  0.00    -0.164 F 
ATOM     18  F   UNL     1       3.409  -5.568  22.821  0.00  0.00    -0.164 F 
ATOM     19  F   UNL     1       3.934  -5.266  24.906  0.00  0.00    -0.164 F 
ENDBRANCH  11  16
ENDBRANCH   1  14
BRANCH   7  20
ATOM     20  C   UNL     1       8.538   1.599  21.950  0.00  0.00    +0.338 C 
ATOM     21  O   UNL     1       7.432   2.083  21.766  0.00  0.00    -0.245 OA
BRANCH  20  22
ATOM     22  O   UNL     1       9.637   2.051  21.314  0.00  0.00    -0.477 OA
ATOM     23  H   UNL     1      10.426   2.204  21.872  0.00  0.00    +0.295 HD
ENDBRANCH  20  22
ENDBRANCH   7  20
TORSDOF 4
ENDMDL
MODEL 3
REMARK VINA RESULT:      -6.5      2.339      2.882
REMARK  Name = 
REMARK  5 active torsions:
REMARK  status: ('A' for Active; 'I' for Inactive)
REMARK    1  A    between atoms: C_1  and  N_2
REMARK    2  A    between atoms: C_4  and  C_12
REMARK    3  A    between atoms: C_7  and  C_8
REMARK    4  A    between atoms: C_14  and  C_15
REMARK    5  A    between atoms: C_15  and  O_16
REMARK                            x       y       z     vdW  Elec       q    Type
REMARK                         _______ _______ _______ _____ _____    ______ ____
ROOT
ATOM      1  C   UNL     1       6.508  -2.167  23.121  0.00  0.00    +0.039 A 
ATOM      2  C   UNL     1       5.515  -2.277  24.096  0.00  0.00    +0.134 A 
ATOM      3  F   UNL     1       5.171  -1.232  24.862  0.00  0.00    -0.205 F 
ATOM      4  C   UNL     1       4.796  -3.453  24.285  0.00  0.00    +0.059 A 
ATOM      5  C   UNL     1       4.998  -4.541  23.439  0.00  0.00    +0.058 A 
ATOM      6 CL   UNL     1       4.076  -5.962  23.770  0.00  0.00    -0.083 Cl
ATOM      7  C   UNL     1       5.908  -4.433  22.382  0.00  0.00    +0.078 A 
ATOM      8  C   UNL     1       6.682  -3.255  22.249  0.00  0.00    +0.029 A 
ENDROOT
BRANCH   1  14
ATOM      9  C   UNL     1       7.394   2.511  22.279  0.00  0.00    +0.173 C 
ATOM     10  N   UNL     1       7.698   1.149  22.667  0.00  0.00    -0.261 N 
ATOM     11  C   UNL     1       8.910   0.640  23.034  0.00  0.00    +0.156 A 
ATOM     12  C   UNL     1       8.704  -0.717  23.129  0.00  0.00    +0.075 A 
ATOM     13 BR   UNL     1      10.060  -1.992  23.394  0.00  0.00    -0.046 Br
ATOM     14  C   UNL     1       7.306  -0.936  22.978  0.00  0.00    +0.110 A 
ATOM     15  N   UNL     1       6.711   0.228  22.652  0.00  0.00    -0.170 NA
BRANCH  11  16
ATOM     16  C   UNL     1      10.123   1.444  23.257  0.00  0.00    +0.435 C 
ATOM     17  F   UNL     1       9.885   2.512  24.055  0.00  0.00    -0.164 F 
ATOM     18  F   UNL     1      10.616   1.924  22.087  0.00  0.00    -0.164 F 
ATOM     19  F   UNL     1      11.132   0.747  23.837  0.00  0.00    -0.164 F 
ENDBRANCH  11  16
ENDBRANCH   1  14
BRANCH   7  20
ATOM     20  C   UNL     1       6.128  -5.499  21.371  0.00  0.00    +0.338 C 
ATOM     21  O   UNL     1       5.929  -5.309  20.181  0.00  0.00    -0.245 OA
BRANCH  20  22
ATOM     22  O   UNL     1       6.454  -6.712  21.862  0.00  0.00    -0.477 OA
ATOM     23  H   UNL     1       6.072  -7.483  21.395  0.00  0.00    +0.295 HD
ENDBRANCH  20  22
ENDBRANCH   7  20
TORSDOF 4
ENDMDL
MODEL 4
REMARK VINA RESULT:      -6.4      1.701      1.996
REMARK  Name = 
REMARK  5 active torsions:
REMARK  status: ('A' for Active; 'I' for Inactive)
REMARK    1  A    between atoms: C_1  and  N_2
REMARK    2  A    between atoms: C_4  and  C_12
REMARK    3  A    between atoms: C_7  and  C_8
REMARK    4  A    between atoms: C_14  and  C_15
REMARK    5  A    between atoms: C_15  and  O_16
REMARK                            x       y       z     vdW  Elec       q    Type
REMARK                         _______ _______ _______ _____ _____    ______ ____
ROOT
ATOM      1  C   UNL     1       6.601  -2.937  24.076  0.00  0.00    +0.039 A 
ATOM      2  C   UNL     1       5.561  -3.608  23.428  0.00  0.00    +0.134 A 
ATOM      3  F   UNL     1       5.107  -3.203  22.234  0.00  0.00    -0.205 F 
ATOM      4  C   UNL     1       4.985  -4.759  23.958  0.00  0.00    +0.059 A 
ATOM      5  C   UNL     1       5.494  -5.321  25.126  0.00  0.00    +0.058 A 
ATOM      6 CL   UNL     1       4.695  -6.733  25.717  0.00  0.00    -0.083 Cl
ATOM      7  C   UNL     1       6.603  -4.739  25.747  0.00  0.00    +0.078 A 
ATOM      8  C   UNL     1       7.131  -3.530  25.235  0.00  0.00    +0.029 A 
ENDROOT
BRANCH   1  14
ATOM      9  C   UNL     1       9.454  -0.105  21.388  0.00  0.00    +0.173 C 
ATOM     10  N   UNL     1       8.373  -0.422  22.300  0.00  0.00    -0.261 N 
ATOM     11  C   UNL     1       7.530   0.449  22.925  0.00  0.00    +0.156 A 
ATOM     12  C   UNL     1       6.815  -0.328  23.806  0.00  0.00    +0.075 A 
ATOM     13 BR   UNL     1       5.636   0.337  25.112  0.00  0.00    -0.046 Br
ATOM     14  C   UNL     1       7.154  -1.683  23.535  0.00  0.00    +0.110 A 
ATOM     15  N   UNL     1       8.150  -1.714  22.628  0.00  0.00    -0.170 NA
BRANCH  11  16
ATOM     16  C   UNL     1       7.468   1.895  22.653  0.00  0.00    +0.435 C 
ATOM     17  F   UNL     1       7.469   2.162  21.325  0.00  0.00    -0.164 F 
ATOM     18  F   UNL     1       8.534   2.542  23.190  0.00  0.00    -0.164 F 
ATOM     19  F   UNL     1       6.363   2.492  23.165  0.00  0.00    -0.164 F 
ENDBRANCH  11  16
ENDBRANCH   1  14
BRANCH   7  20
ATOM     20  C   UNL     1       7.276  -5.313  26.941  0.00  0.00    +0.338 C 
ATOM     21  O   UNL     1       6.838  -5.146  28.069  0.00  0.00    -0.245 OA
BRANCH  20  22
ATOM     22  O   UNL     1       8.451  -5.931  26.709  0.00  0.00    -0.477 OA
ATOM     23  H   UNL     1       8.826  -5.823  25.811  0.00  0.00    +0.295 HD
ENDBRANCH  20  22
ENDBRANCH   7  20
TORSDOF 4
ENDMDL
MODEL 5
REMARK VINA RESULT:      -6.4      5.612      7.556
REMARK  Name = 
REMARK  5 active torsions:
REMARK  status: ('A' for Active; 'I' for Inactive)
REMARK    1  A    between atoms: C_1  and  N_2
REMARK    2  A    between atoms: C_4  and  C_12
REMARK    3  A    between atoms: C_7  and  C_8
REMARK    4  A    between atoms: C_14  and  C_15
REMARK    5  A    between atoms: C_15  and  O_16
REMARK                            x       y       z     vdW  Elec       q    Type
REMARK                         _______ _______ _______ _____ _____    ______ ____
ROOT
ATOM      1  C   UNL     1       8.187   2.509  23.548  0.00  0.00    +0.039 A 
ATOM      2  C   UNL     1       6.997   2.741  22.855  0.00  0.00    +0.134 A 
ATOM      3  F   UNL     1       6.066   1.784  22.729  0.00  0.00    -0.205 F 
ATOM      4  C   UNL     1       6.692   3.985  22.310  0.00  0.00    +0.059 A 
ATOM      5  C   UNL     1       7.545   5.066  22.516  0.00  0.00    +0.058 A 
ATOM      6 CL   UNL     1       7.092   6.560  21.780  0.00  0.00    -0.083 Cl
ATOM      7  C   UNL     1       8.694   4.901  23.296  0.00  0.00    +0.078 A 
ATOM      8  C   UNL     1       9.025   3.613  23.782  0.00  0.00    +0.029 A 
ENDROOT
BRANCH   1  14
ATOM      9  C   UNL     1       8.791  -1.004  26.815  0.00  0.00    +0.173 C 
ATOM     10  N   UNL     1       8.735  -0.412  25.494  0.00  0.00    -0.261 N 
ATOM     11  C   UNL     1       9.000  -1.016  24.300  0.00  0.00    +0.156 A 
ATOM     12  C   UNL     1       8.980   0.006  23.379  0.00  0.00    +0.075 A 
ATOM     13 BR   UNL     1       9.486  -0.164  21.576  0.00  0.00    -0.046 Br
ATOM     14  C   UNL     1       8.524   1.169  24.060  0.00  0.00    +0.110 A 
ATOM     15  N   UNL     1       8.419   0.896  25.375  0.00  0.00    -0.170 NA
BRANCH  11  16
ATOM     16  C   UNL     1       9.243  -2.458  24.128  0.00  0.00    +0.435 C 
ATOM     17  F   UNL     1      10.499  -2.712  23.688  0.00  0.00    -0.164 F 
ATOM     18  F   UNL     1       8.388  -2.996  23.222  0.00  0.00    -0.164 F 
ATOM     19  F   UNL     1       9.084  -3.171  25.271  0.00  0.00    -0.164 F 
ENDBRANCH  11  16
ENDBRANCH   1  14
BRANCH   7  20
ATOM     20  C   UNL     1       9.617   6.010  23.652  0.00  0.00    +0.338 C 
ATOM     21  O   UNL     1       9.255   6.953  24.339  0.00  0.00    -0.245 OA
BRANCH  20  22
ATOM     22  O   UNL     1      10.836   5.961  23.080  0.00  0.00    -0.477 OA
ATOM     23  H   UNL     1      11.601   6.033  23.687  0.00  0.00    +0.295 HD
ENDBRANCH  20  22
ENDBRANCH   7  20
TORSDOF 4
ENDMDL
MODEL 6
REMARK VINA RESULT:      -6.4      4.034      5.430
REMARK  Name = 
REMARK  5 active torsions:
REMARK  status: ('A' for Active; 'I' for Inactive)
REMARK    1  A    between atoms: C_1  and  N_2
REMARK    2  A    between atoms: C_4  and  C_12
REMARK    3  A    between atoms: C_7  and  C_8
REMARK    4  A    between atoms: C_14  and  C_15
REMARK    5  A    between atoms: C_15  and  O_16
REMARK                            x       y       z     vdW  Elec       q    Type
REMARK                         _______ _______ _______ _____ _____    ______ ____
ROOT
ATOM      1  C   UNL     1       9.102   1.545  23.821  0.00  0.00    +0.039 A 
ATOM      2  C   UNL     1       9.771   0.828  22.826  0.00  0.00    +0.134 A 
ATOM      3  F   UNL     1      10.253   1.436  21.733  0.00  0.00    -0.205 F 
ATOM      4  C   UNL     1      10.020  -0.536  22.943  0.00  0.00    +0.059 A 
ATOM      5  C   UNL     1       9.673  -1.213  24.110  0.00  0.00    +0.058 A 
ATOM      6 CL   UNL     1      10.000  -2.907  24.148  0.00  0.00    -0.083 Cl
ATOM      7  C   UNL     1       9.098  -0.508  25.172  0.00  0.00    +0.078 A 
ATOM      8  C   UNL     1       8.786   0.863  25.009  0.00  0.00    +0.029 A 
ENDROOT
BRANCH   1  14
ATOM      9  C   UNL     1       9.879   6.317  23.783  0.00  0.00    +0.173 C 
ATOM     10  N   UNL     1       9.141   5.088  23.572  0.00  0.00    -0.261 N 
ATOM     11  C   UNL     1       7.862   4.954  23.117  0.00  0.00    +0.156 A 
ATOM     12  C   UNL     1       7.577   3.616  23.266  0.00  0.00    +0.075 A 
ATOM     13 BR   UNL     1       5.882   2.845  23.008  0.00  0.00    -0.046 Br
ATOM     14  C   UNL     1       8.788   2.974  23.652  0.00  0.00    +0.110 A 
ATOM     15  N   UNL     1       9.730   3.911  23.874  0.00  0.00    -0.170 NA
BRANCH  11  16
ATOM     16  C   UNL     1       7.039   6.058  22.597  0.00  0.00    +0.435 C 
ATOM     17  F   UNL     1       7.540   6.567  21.446  0.00  0.00    -0.164 F 
ATOM     18  F   UNL     1       6.968   7.080  23.487  0.00  0.00    -0.164 F 
ATOM     19  F   UNL     1       5.759   5.696  22.332  0.00  0.00    -0.164 F 
ENDBRANCH  11  16
ENDBRANCH   1  14
BRANCH   7  20
ATOM     20  C   UNL     1       8.777  -1.117  26.489  0.00  0.00    +0.338 C 
ATOM     21  O   UNL     1       8.057  -2.099  26.585  0.00  0.00    -0.245 OA
BRANCH  20  22
ATOM     22  O   UNL     1       9.240  -0.455  27.568  0.00  0.00    -0.477 OA
ATOM     23  H   UNL     1       8.640  -0.412  28.339  0.00  0.00    +0.295 HD
ENDBRANCH  20  22
ENDBRANCH   7  20
TORSDOF 4
ENDMDL
MODEL 7
REMARK VINA RESULT:      -6.3      2.916      3.399
REMARK  Name = 
REMARK  5 active torsions:
REMARK  status: ('A' for Active; 'I' for Inactive)
REMARK    1  A    between atoms: C_1  and  N_2
REMARK    2  A    between atoms: C_4  and  C_12
REMARK    3  A    between atoms: C_7  and  C_8
REMARK    4  A    between atoms: C_14  and  C_15
REMARK    5  A    between atoms: C_15  and  O_16
REMARK                            x       y       z     vdW  Elec       q    Type
REMARK                         _______ _______ _______ _____ _____    ______ ____
ROOT
ATOM      1  C   UNL     1       7.146  -3.767  24.853  0.00  0.00    +0.039 A 
ATOM      2  C   UNL     1       7.260  -4.518  26.026  0.00  0.00    +0.134 A 
ATOM      3  F   UNL     1       8.172  -4.216  26.960  0.00  0.00    -0.205 F 
ATOM      4  C   UNL     1       6.404  -5.578  26.309  0.00  0.00    +0.059 A 
ATOM      5  C   UNL     1       5.344  -5.868  25.453  0.00  0.00    +0.058 A 
ATOM      6 CL   UNL     1       4.352  -7.216  25.877  0.00  0.00    -0.083 Cl
ATOM      7  C   UNL     1       5.131  -5.071  24.323  0.00  0.00    +0.078 A 
ATOM      8  C   UNL     1       6.053  -4.043  24.013  0.00  0.00    +0.029 A 
ENDROOT
BRANCH   1  14
ATOM      9  C   UNL     1      10.630  -1.457  22.425  0.00  0.00    +0.173 C 
ATOM     10  N   UNL     1       9.603  -1.633  23.432  0.00  0.00    -0.261 N 
ATOM     11  C   UNL     1       9.242  -0.757  24.413  0.00  0.00    +0.156 A 
ATOM     12  C   UNL     1       8.360  -1.460  25.202  0.00  0.00    +0.075 A 
ATOM     13 BR   UNL     1       7.674  -0.856  26.845  0.00  0.00    -0.046 Br
ATOM     14  C   UNL     1       8.102  -2.692  24.538  0.00  0.00    +0.110 A 
ATOM     15  N   UNL     1       8.913  -2.794  23.467  0.00  0.00    -0.170 NA
BRANCH  11  16
ATOM     16  C   UNL     1       9.740   0.624  24.526  0.00  0.00    +0.435 C 
ATOM     17  F   UNL     1       9.873   1.217  23.316  0.00  0.00    -0.164 F 
ATOM     18  F   UNL     1      10.958   0.661  25.124  0.00  0.00    -0.164 F 
ATOM     19  F   UNL     1       8.932   1.429  25.262  0.00  0.00    -0.164 F 
ENDBRANCH  11  16
ENDBRANCH   1  14
BRANCH   7  20
ATOM     20  C   UNL     1       3.978  -5.239  23.401  0.00  0.00    +0.338 C 
ATOM     21  O   UNL     1       2.903  -4.698  23.609  0.00  0.00    -0.245 OA
BRANCH  20  22
ATOM     22  O   UNL     1       4.162  -6.109  22.387  0.00  0.00    -0.477 OA
ATOM     23  H   UNL     1       3.360  -6.559  22.054  0.00  0.00    +0.295 HD
ENDBRANCH  20  22
ENDBRANCH   7  20
TORSDOF 4
ENDMDL
MODEL 8
REMARK VINA RESULT:      -6.3      1.822      2.180
REMARK  Name = 
REMARK  5 active torsions:
REMARK  status: ('A' for Active; 'I' for Inactive)
REMARK    1  A    between atoms: C_1  and  N_2
REMARK    2  A    between atoms: C_4  and  C_12
REMARK    3  A    between atoms: C_7  and  C_8
REMARK    4  A    between atoms: C_14  and  C_15
REMARK    5  A    between atoms: C_15  and  O_16
REMARK                            x       y       z     vdW  Elec       q    Type
REMARK                         _______ _______ _______ _____ _____    ______ ____
ROOT
ATOM      1  C   UNL     1       7.901  -2.363  24.302  0.00  0.00    +0.039 A 
ATOM      2  C   UNL     1       7.272  -2.995  23.227  0.00  0.00    +0.134 A 
ATOM      3  F   UNL     1       7.419  -2.548  21.972  0.00  0.00    -0.205 F 
ATOM      4  C   UNL     1       6.510  -4.148  23.394  0.00  0.00    +0.059 A 
ATOM      5  C   UNL     1       6.422  -4.753  24.645  0.00  0.00    +0.058 A 
ATOM      6 CL   UNL     1       5.434  -6.163  24.756  0.00  0.00    -0.083 Cl
ATOM      7  C   UNL     1       7.125  -4.210  25.725  0.00  0.00    +0.078 A 
ATOM      8  C   UNL     1       7.837  -2.998  25.554  0.00  0.00    +0.029 A 
ENDROOT
BRANCH   1  14
ATOM      9  C   UNL     1      11.645   0.687  24.552  0.00  0.00    +0.173 C 
ATOM     10  N   UNL     1      10.324   0.232  24.170  0.00  0.00    -0.261 N 
ATOM     11  C   UNL     1       9.374   0.924  23.476  0.00  0.00    +0.156 A 
ATOM     12  C   UNL     1       8.253   0.127  23.529  0.00  0.00    +0.075 A 
ATOM     13 BR   UNL     1       6.545   0.637  22.931  0.00  0.00    -0.046 Br
ATOM     14  C   UNL     1       8.649  -1.107  24.118  0.00  0.00    +0.110 A 
ATOM     15  N   UNL     1       9.923  -1.003  24.543  0.00  0.00    -0.170 NA
BRANCH  11  16
ATOM     16  C   UNL     1       9.591   2.235  22.841  0.00  0.00    +0.435 C 
ATOM     17  F   UNL     1       8.467   2.703  22.247  0.00  0.00    -0.164 F 
ATOM     18  F   UNL     1      10.549   2.165  21.883  0.00  0.00    -0.164 F 
ATOM     19  F   UNL     1       9.994   3.194  23.712  0.00  0.00    -0.164 F 
ENDBRANCH  11  16
ENDBRANCH   1  14
BRANCH   7  20
ATOM     20  C   UNL     1       7.171  -4.830  27.075  0.00  0.00    +0.338 C 
ATOM     21  O   UNL     1       6.428  -4.469  27.975  0.00  0.00    -0.245 OA
BRANCH  20  22
ATOM     22  O   UNL     1       8.153  -5.733  27.270  0.00  0.00    -0.477 OA
ATOM     23  H   UNL     1       7.980  -6.419  27.946  0.00  0.00    +0.295 HD
ENDBRANCH  20  22
ENDBRANCH   7  20
TORSDOF 4
ENDMDL
MODEL 9
REMARK VINA RESULT:      -6.3      4.950      7.463
REMARK  Name = 
REMARK  5 active torsions:
REMARK  status: ('A' for Active; 'I' for Inactive)
REMARK    1  A    between atoms: C_1  and  N_2
REMARK    2  A    between atoms: C_4  and  C_12
REMARK    3  A    between atoms: C_7  and  C_8
REMARK    4  A    between atoms: C_14  and  C_15
REMARK    5  A    between atoms: C_15  and  O_16
REMARK                            x       y       z     vdW  Elec       q    Type
REMARK                         _______ _______ _______ _____ _____    ______ ____
ROOT
ATOM      1  C   UNL     1       9.087   1.537  23.997  0.00  0.00    +0.039 A 
ATOM      2  C   UNL     1      10.405   1.995  24.066  0.00  0.00    +0.134 A 
ATOM      3  F   UNL     1      11.430   1.148  24.230  0.00  0.00    -0.205 F 
ATOM      4  C   UNL     1      10.725   3.341  23.914  0.00  0.00    +0.059 A 
ATOM      5  C   UNL     1       9.731   4.266  23.604  0.00  0.00    +0.058 A 
ATOM      6 CL   UNL     1      10.225   5.914  23.459  0.00  0.00    -0.083 Cl
ATOM      7  C   UNL     1       8.415   3.830  23.420  0.00  0.00    +0.078 A 
ATOM      8  C   UNL     1       8.095   2.470  23.649  0.00  0.00    +0.029 A 
ENDROOT
BRANCH   1  14
ATOM      9  C   UNL     1       7.669  -2.379  26.452  0.00  0.00    +0.173 C 
ATOM     10  N   UNL     1       8.071  -1.611  25.292  0.00  0.00    -0.261 N 
ATOM     11  C   UNL     1       8.250  -2.062  24.017  0.00  0.00    +0.156 A 
ATOM     12  C   UNL     1       8.797  -0.995  23.342  0.00  0.00    +0.075 A 
ATOM     13 BR   UNL     1       9.467  -1.064  21.587  0.00  0.00    -0.046 Br
ATOM     14  C   UNL     1       8.758   0.120  24.227  0.00  0.00    +0.110 A 
ATOM     15  N   UNL     1       8.343  -0.296  25.440  0.00  0.00    -0.170 NA
BRANCH  11  16
ATOM     16  C   UNL     1       7.903  -3.415  23.551  0.00  0.00    +0.435 C 
ATOM     17  F   UNL     1       6.680  -3.803  23.985  0.00  0.00    -0.164 F 
ATOM     18  F   UNL     1       8.795  -4.333  24.002  0.00  0.00    -0.164 F 
ATOM     19  F   UNL     1       7.887  -3.531  22.200  0.00  0.00    -0.164 F 
ENDBRANCH  11  16
ENDBRANCH   1  14
BRANCH   7  20
ATOM     20  C   UNL     1       7.302   4.720  22.998  0.00  0.00    +0.338 C 
ATOM     21  O   UNL     1       6.347   4.944  23.725  0.00  0.00    -0.245 OA
BRANCH  20  22
ATOM     22  O   UNL     1       7.364   5.171  21.729  0.00  0.00    -0.477 OA
ATOM     23  H   UNL     1       6.643   5.769  21.449  0.00  0.00    +0.295 HD
ENDBRANCH  20  22
ENDBRANCH   7  20
TORSDOF 4
ENDMDL
