MODEL 1
REMARK VINA RESULT:      -6.7      0.000      0.000
REMARK  Name = 
REMARK  5 active torsions:
REMARK  status: ('A' for Active; 'I' for Inactive)
REMARK    1  A    between atoms: N_1  and  C_2
REMARK    2  A    between atoms: C_3  and  N_4
REMARK    3  A    between atoms: N_5  and  C_6
REMARK    4  A    between atoms: C_10  and  C_12
REMARK    5  A    between atoms: C_12  and  O_13
REMARK                            x       y       z     vdW  Elec       q    Type
REMARK                         _______ _______ _______ _____ _____    ______ ____
ROOT
ATOM      1  N   UNL     1       9.443  -1.017  23.142  0.00  0.00    -0.132 NA
ATOM      2  N   UNL     1       8.263  -1.303  22.855  0.00  0.00    -0.149 NA
ENDROOT
BRANCH   1   9
ATOM      3  C   UNL     1       9.594   1.288  22.182  0.00  0.00    +0.398 C 
ATOM      4  N   UNL     1      10.162   2.467  22.608  0.00  0.00    +0.195 NA
ATOM      5  N   UNL     1      10.690   2.321  23.739  0.00  0.00    +0.201 NA
ATOM      6  C   UNL     1      10.497   1.022  24.131  0.00  0.00    +0.446 C 
ATOM      7  N   UNL     1      10.928   0.580  25.261  0.00  0.00    -0.089 NA
ATOM      8  H   UNL     1      10.673  -0.409  25.358  0.00  0.00    +0.364 HD
ATOM      9  C   UNL     1       9.770   0.307  23.079  0.00  0.00    +0.280 C 
BRANCH   3  10
ATOM     10  N   UNL     1       8.947   1.149  20.968  0.00  0.00    -0.241 N 
ATOM     11  H   UNL     1       8.350   1.948  20.768  0.00  0.00    +0.289 HD
ATOM     12  H   UNL     1       9.583   0.911  20.210  0.00  0.00    +0.289 HD
ENDBRANCH   3  10
ENDBRANCH   1   9
BRANCH   2  13
ATOM     13  C   UNL     1       8.002  -2.686  22.934  0.00  0.00    +0.087 A 
ATOM     14  C   UNL     1       8.512  -3.392  24.029  0.00  0.00    +0.044 A 
ATOM     15  C   UNL     1       8.225  -4.754  24.202  0.00  0.00    +0.061 A 
ATOM     16  C   UNL     1       7.440  -5.427  23.260  0.00  0.00    +0.015 A 
ATOM     17  C   UNL     1       6.919  -4.728  22.169  0.00  0.00    +0.003 A 
ATOM     18  C   UNL     1       7.193  -3.367  22.014  0.00  0.00    +0.029 A 
BRANCH  15  19
ATOM     19  C   UNL     1       8.811  -5.441  25.380  0.00  0.00    +0.337 C 
ATOM     20  O   UNL     1       8.147  -5.764  26.350  0.00  0.00    -0.245 OA
BRANCH  19  21
ATOM     21  O   UNL     1      10.126  -5.717  25.262  0.00  0.00    -0.477 OA
ATOM     22  H   UNL     1      10.351  -6.657  25.143  0.00  0.00    +0.295 HD
ENDBRANCH  19  21
ENDBRANCH  15  19
ENDBRANCH   2  13
TORSDOF 5
ENDMDL
MODEL 2
REMARK VINA RESULT:      -6.7      4.894      7.769
REMARK  Name = 
REMARK  5 active torsions:
REMARK  status: ('A' for Active; 'I' for Inactive)
REMARK    1  A    between atoms: N_1  and  C_2
REMARK    2  A    between atoms: C_3  and  N_4
REMARK    3  A    between atoms: N_5  and  C_6
REMARK    4  A    between atoms: C_10  and  C_12
REMARK    5  A    between atoms: C_12  and  O_13
REMARK                            x       y       z     vdW  Elec       q    Type
REMARK                         _______ _______ _______ _____ _____    ______ ____
ROOT
ATOM      1  N   UNL     1      10.369   1.314  23.690  0.00  0.00    -0.132 NA
ATOM      2  N   UNL     1       9.517   2.146  24.062  0.00  0.00    -0.149 NA
ENDROOT
BRANCH   1   9
ATOM      3  C   UNL     1       9.854  -0.973  22.818  0.00  0.00    +0.398 C 
ATOM      4  N   UNL     1       9.382  -2.132  23.392  0.00  0.00    +0.195 NA
ATOM      5  N   UNL     1       9.205  -1.975  24.626  0.00  0.00    +0.201 NA
ATOM      6  C   UNL     1       9.557  -0.690  24.943  0.00  0.00    +0.446 C 
ATOM      7  N   UNL     1       9.484  -0.241  26.148  0.00  0.00    -0.089 NA
ATOM      8  H   UNL     1       9.798   0.735  26.165  0.00  0.00    +0.364 HD
ATOM      9  C   UNL     1       9.983   0.005  23.726  0.00  0.00    +0.280 C 
BRANCH   3  10
ATOM     10  N   UNL     1      10.134  -0.850  21.470  0.00  0.00    -0.241 N 
ATOM     11  H   UNL     1      10.578   0.041  21.260  0.00  0.00    +0.289 HD
ATOM     12  H   UNL     1      10.633  -1.655  21.098  0.00  0.00    +0.289 HD
ENDBRANCH   3  10
ENDBRANCH   1   9
BRANCH   2  13
ATOM     13  C   UNL     1       9.989   3.473  24.005  0.00  0.00    +0.087 A 
ATOM     14  C   UNL     1      11.234   3.706  23.411  0.00  0.00    +0.044 A 
ATOM     15  C   UNL     1      11.724   5.011  23.257  0.00  0.00    +0.061 A 
ATOM     16  C   UNL     1      10.975   6.097  23.724  0.00  0.00    +0.015 A 
ATOM     17  C   UNL     1       9.728   5.875  24.309  0.00  0.00    +0.003 A 
ATOM     18  C   UNL     1       9.237   4.573  24.441  0.00  0.00    +0.029 A 
BRANCH  15  19
ATOM     19  C   UNL     1      13.059   5.180  22.630  0.00  0.00    +0.337 C 
ATOM     20  O   UNL     1      13.202   5.594  21.492  0.00  0.00    -0.245 OA
BRANCH  19  21
ATOM     21  O   UNL     1      14.093   4.883  23.442  0.00  0.00    -0.477 OA
ATOM     22  H   UNL     1      13.857   4.486  24.300  0.00  0.00    +0.295 HD
ENDBRANCH  19  21
ENDBRANCH  15  19
ENDBRANCH   2  13
TORSDOF 5
ENDMDL
MODEL 3
REMARK VINA RESULT:      -6.5      0.193      1.802
REMARK  Name = 
REMARK  5 active torsions:
REMARK  status: ('A' for Active; 'I' for Inactive)
REMARK    1  A    between atoms: N_1  and  C_2
REMARK    2  A    between atoms: C_3  and  N_4
REMARK    3  A    between atoms: N_5  and  C_6
REMARK    4  A    between atoms: C_10  and  C_12
REMARK    5  A    between atoms: C_12  and  O_13
REMARK                            x       y       z     vdW  Elec       q    Type
REMARK                         _______ _______ _______ _____ _____    ______ ____
ROOT
ATOM      1  N   UNL     1       9.574  -0.977  23.117  0.00  0.00    -0.132 NA
ATOM      2  N   UNL     1       8.348  -1.211  23.151  0.00  0.00    -0.149 NA
ENDROOT
BRANCH   1   9
ATOM      3  C   UNL     1      10.600   1.129  23.992  0.00  0.00    +0.398 C 
ATOM      4  N   UNL     1      10.657   2.427  23.537  0.00  0.00    +0.195 NA
ATOM      5  N   UNL     1      10.077   2.533  22.427  0.00  0.00    +0.201 NA
ATOM      6  C   UNL     1       9.600   1.296  22.080  0.00  0.00    +0.446 C 
ATOM      7  N   UNL     1       8.961   1.096  20.980  0.00  0.00    -0.089 NA
ATOM      8  H   UNL     1       8.701   0.106  20.914  0.00  0.00    +0.364 HD
ATOM      9  C   UNL     1       9.933   0.339  23.138  0.00  0.00    +0.280 C 
BRANCH   3  10
ATOM     10  N   UNL     1      11.149   0.718  25.193  0.00  0.00    -0.241 N 
ATOM     11  H   UNL     1      10.476   0.777  25.953  0.00  0.00    +0.289 HD
ATOM     12  H   UNL     1      11.611  -0.187  25.122  0.00  0.00    +0.289 HD
ENDBRANCH   3  10
ENDBRANCH   1   9
BRANCH   2  13
ATOM     13  C   UNL     1       8.055  -2.589  23.118  0.00  0.00    +0.087 A 
ATOM     14  C   UNL     1       8.500  -3.385  24.178  0.00  0.00    +0.044 A 
ATOM     15  C   UNL     1       8.176  -4.748  24.240  0.00  0.00    +0.061 A 
ATOM     16  C   UNL     1       7.419  -5.331  23.218  0.00  0.00    +0.015 A 
ATOM     17  C   UNL     1       6.961  -4.543  22.161  0.00  0.00    +0.003 A 
ATOM     18  C   UNL     1       7.271  -3.182  22.117  0.00  0.00    +0.029 A 
BRANCH  15  19
ATOM     19  C   UNL     1       8.695  -5.532  25.388  0.00  0.00    +0.337 C 
ATOM     20  O   UNL     1       8.009  -5.811  26.356  0.00  0.00    -0.245 OA
BRANCH  19  21
ATOM     21  O   UNL     1       9.970  -5.947  25.244  0.00  0.00    -0.477 OA
ATOM     22  H   UNL     1      10.613  -5.258  24.997  0.00  0.00    +0.295 HD
ENDBRANCH  19  21
ENDBRANCH  15  19
ENDBRANCH   2  13
TORSDOF 5
ENDMDL
MODEL 4
REMARK VINA RESULT:      -6.4      2.018      2.614
REMARK  Name = 
REMARK  5 active torsions:
REMARK  status: ('A' for Active; 'I' for Inactive)
REMARK    1  A    between atoms: N_1  and  C_2
REMARK    2  A    between atoms: C_3  and  N_4
REMARK    3  A    between atoms: N_5  and  C_6
REMARK    4  A    between atoms: C_10  and  C_12
REMARK    5  A    between atoms: C_12  and  O_13
REMARK                            x       y       z     vdW  Elec       q    Type
REMARK                         _______ _______ _______ _____ _____    ______ ____
ROOT
ATOM      1  N   UNL     1       8.808  -0.794  23.230  0.00  0.00    -0.132 NA
ATOM      2  N   UNL     1       9.543  -1.740  23.583  0.00  0.00    -0.149 NA
ENDROOT
BRANCH   1   9
ATOM      3  C   UNL     1       9.468   1.388  22.200  0.00  0.00    +0.398 C 
ATOM      4  N   UNL     1      10.265   2.435  22.604  0.00  0.00    +0.195 NA
ATOM      5  N   UNL     1      10.724   2.223  23.754  0.00  0.00    +0.201 NA
ATOM      6  C   UNL     1      10.249   1.012  24.183  0.00  0.00    +0.446 C 
ATOM      7  N   UNL     1      10.551   0.532  25.339  0.00  0.00    -0.089 NA
ATOM      8  H   UNL     1      10.088  -0.375  25.460  0.00  0.00    +0.364 HD
ATOM      9  C   UNL     1       9.411   0.427  23.133  0.00  0.00    +0.280 C 
BRANCH   3  10
ATOM     10  N   UNL     1       8.834   1.342  20.972  0.00  0.00    -0.241 N 
ATOM     11  H   UNL     1       8.307   0.480  20.854  0.00  0.00    +0.289 HD
ATOM     12  H   UNL     1       8.293   2.183  20.779  0.00  0.00    +0.289 HD
ENDBRANCH   3  10
ENDBRANCH   1   9
BRANCH   2  13
ATOM     13  C   UNL     1       8.850  -2.964  23.668  0.00  0.00    +0.087 A 
ATOM     14  C   UNL     1       7.877  -3.241  22.703  0.00  0.00    +0.044 A 
ATOM     15  C   UNL     1       7.206  -4.473  22.690  0.00  0.00    +0.061 A 
ATOM     16  C   UNL     1       7.493  -5.433  23.667  0.00  0.00    +0.015 A 
ATOM     17  C   UNL     1       8.470  -5.170  24.629  0.00  0.00    +0.003 A 
ATOM     18  C   UNL     1       9.148  -3.948  24.623  0.00  0.00    +0.029 A 
BRANCH  15  19
ATOM     19  C   UNL     1       6.176  -4.691  21.644  0.00  0.00    +0.337 C 
ATOM     20  O   UNL     1       5.700  -3.778  20.992  0.00  0.00    -0.245 OA
BRANCH  19  21
ATOM     21  O   UNL     1       5.851  -5.985  21.449  0.00  0.00    -0.477 OA
ATOM     22  H   UNL     1       5.862  -6.288  20.523  0.00  0.00    +0.295 HD
ENDBRANCH  19  21
ENDBRANCH  15  19
ENDBRANCH   2  13
TORSDOF 5
ENDMDL
MODEL 5
REMARK VINA RESULT:      -6.4      2.094      3.234
REMARK  Name = 
REMARK  5 active torsions:
REMARK  status: ('A' for Active; 'I' for Inactive)
REMARK    1  A    between atoms: N_1  and  C_2
REMARK    2  A    between atoms: C_3  and  N_4
REMARK    3  A    between atoms: N_5  and  C_6
REMARK    4  A    between atoms: C_10  and  C_12
REMARK    5  A    between atoms: C_12  and  O_13
REMARK                            x       y       z     vdW  Elec       q    Type
REMARK                         _______ _______ _______ _____ _____    ______ ____
ROOT
ATOM      1  N   UNL     1       8.899  -0.781  23.340  0.00  0.00    -0.132 NA
ATOM      2  N   UNL     1       9.594  -1.781  23.615  0.00  0.00    -0.149 NA
ENDROOT
BRANCH   1   9
ATOM      3  C   UNL     1      10.344   1.086  24.167  0.00  0.00    +0.398 C 
ATOM      4  N   UNL     1      10.729   2.300  23.647  0.00  0.00    +0.195 NA
ATOM      5  N   UNL     1      10.251   2.461  22.496  0.00  0.00    +0.201 NA
ATOM      6  C   UNL     1       9.516   1.347  22.185  0.00  0.00    +0.446 C 
ATOM      7  N   UNL     1       8.907   1.226  21.056  0.00  0.00    -0.089 NA
ATOM      8  H   UNL     1       8.425   0.321  21.027  0.00  0.00    +0.364 HD
ATOM      9  C   UNL     1       9.556   0.415  23.314  0.00  0.00    +0.280 C 
BRANCH   3  10
ATOM     10  N   UNL     1      10.716   0.642  25.423  0.00  0.00    -0.241 N 
ATOM     11  H   UNL     1      11.718   0.731  25.570  0.00  0.00    +0.289 HD
ATOM     12  H   UNL     1      10.153   1.052  26.166  0.00  0.00    +0.289 HD
ENDBRANCH   3  10
ENDBRANCH   1   9
BRANCH   2  13
ATOM     13  C   UNL     1       8.847  -2.976  23.631  0.00  0.00    +0.087 A 
ATOM     14  C   UNL     1       7.883  -3.166  22.636  0.00  0.00    +0.044 A 
ATOM     15  C   UNL     1       7.159  -4.365  22.555  0.00  0.00    +0.061 A 
ATOM     16  C   UNL     1       7.383  -5.379  23.493  0.00  0.00    +0.015 A 
ATOM     17  C   UNL     1       8.351  -5.203  24.483  0.00  0.00    +0.003 A 
ATOM     18  C   UNL     1       9.081  -4.014  24.545  0.00  0.00    +0.029 A 
BRANCH  15  19
ATOM     19  C   UNL     1       6.143  -4.489  21.481  0.00  0.00    +0.337 C 
ATOM     20  O   UNL     1       5.910  -5.544  20.916  0.00  0.00    -0.245 OA
BRANCH  19  21
ATOM     21  O   UNL     1       5.470  -3.349  21.221  0.00  0.00    -0.477 OA
ATOM     22  H   UNL     1       4.508  -3.383  21.367  0.00  0.00    +0.295 HD
ENDBRANCH  19  21
ENDBRANCH  15  19
ENDBRANCH   2  13
TORSDOF 5
ENDMDL
MODEL 6
REMARK VINA RESULT:      -6.3      1.946      2.387
REMARK  Name = 
REMARK  5 active torsions:
REMARK  status: ('A' for Active; 'I' for Inactive)
REMARK    1  A    between atoms: N_1  and  C_2
REMARK    2  A    between atoms: C_3  and  N_4
REMARK    3  A    between atoms: N_5  and  C_6
REMARK    4  A    between atoms: C_10  and  C_12
REMARK    5  A    between atoms: C_12  and  O_13
REMARK                            x       y       z     vdW  Elec       q    Type
REMARK                         _______ _______ _______ _____ _____    ______ ____
ROOT
ATOM      1  N   UNL     1       7.131  -0.482  22.902  0.00  0.00    -0.132 NA
ATOM      2  N   UNL     1       8.217  -1.084  22.774  0.00  0.00    -0.149 NA
ENDROOT
BRANCH   1   9
ATOM      3  C   UNL     1       7.939   1.683  21.945  0.00  0.00    +0.398 C 
ATOM      4  N   UNL     1       7.542   2.994  22.074  0.00  0.00    +0.195 NA
ATOM      5  N   UNL     1       6.538   3.080  22.825  0.00  0.00    +0.201 NA
ATOM      6  C   UNL     1       6.209   1.816  23.238  0.00  0.00    +0.446 C 
ATOM      7  N   UNL     1       5.209   1.593  24.019  0.00  0.00    -0.089 NA
ATOM      8  H   UNL     1       5.137   0.585  24.197  0.00  0.00    +0.364 HD
ATOM      9  C   UNL     1       7.159   0.861  22.663  0.00  0.00    +0.280 C 
BRANCH   3  10
ATOM     10  N   UNL     1       9.023   1.286  21.183  0.00  0.00    -0.241 N 
ATOM     11  H   UNL     1       9.005   1.708  20.258  0.00  0.00    +0.289 HD
ATOM     12  H   UNL     1       9.908   1.404  21.671  0.00  0.00    +0.289 HD
ENDBRANCH   3  10
ENDBRANCH   1   9
BRANCH   2  13
ATOM     13  C   UNL     1       8.111  -2.463  23.044  0.00  0.00    +0.087 A 
ATOM     14  C   UNL     1       8.783  -2.971  24.161  0.00  0.00    +0.044 A 
ATOM     15  C   UNL     1       8.657  -4.320  24.524  0.00  0.00    +0.061 A 
ATOM     16  C   UNL     1       7.869  -5.179  23.750  0.00  0.00    +0.015 A 
ATOM     17  C   UNL     1       7.187  -4.679  22.640  0.00  0.00    +0.003 A 
ATOM     18  C   UNL     1       7.302  -3.330  22.296  0.00  0.00    +0.029 A 
BRANCH  15  19
ATOM     19  C   UNL     1       9.410  -4.791  25.713  0.00  0.00    +0.337 C 
ATOM     20  O   UNL     1       9.048  -4.559  26.854  0.00  0.00    -0.245 OA
BRANCH  19  21
ATOM     21  O   UNL     1      10.496  -5.534  25.421  0.00  0.00    -0.477 OA
ATOM     22  H   UNL     1      11.053  -5.202  24.694  0.00  0.00    +0.295 HD
ENDBRANCH  19  21
ENDBRANCH  15  19
ENDBRANCH   2  13
TORSDOF 5
ENDMDL
MODEL 7
REMARK VINA RESULT:      -6.3      4.269      6.631
REMARK  Name = 
REMARK  5 active torsions:
REMARK  status: ('A' for Active; 'I' for Inactive)
REMARK    1  A    between atoms: N_1  and  C_2
REMARK    2  A    between atoms: C_3  and  N_4
REMARK    3  A    between atoms: N_5  and  C_6
REMARK    4  A    between atoms: C_10  and  C_12
REMARK    5  A    between atoms: C_12  and  O_13
REMARK                            x       y       z     vdW  Elec       q    Type
REMARK                         _______ _______ _______ _____ _____    ______ ____
ROOT
ATOM      1  N   UNL     1       8.621  -2.912  24.725  0.00  0.00    -0.132 NA
ATOM      2  N   UNL     1       8.743  -1.720  25.074  0.00  0.00    -0.149 NA
ENDROOT
BRANCH   1   9
ATOM      3  C   UNL     1       8.765  -4.977  26.128  0.00  0.00    +0.398 C 
ATOM      4  N   UNL     1       8.027  -5.474  27.179  0.00  0.00    +0.195 NA
ATOM      5  N   UNL     1       7.104  -4.679  27.487  0.00  0.00    +0.201 NA
ATOM      6  C   UNL     1       7.181  -3.597  26.649  0.00  0.00    +0.446 C 
ATOM      7  N   UNL     1       6.359  -2.609  26.734  0.00  0.00    -0.089 NA
ATOM      8  H   UNL     1       6.597  -1.909  26.023  0.00  0.00    +0.364 HD
ATOM      9  C   UNL     1       8.291  -3.793  25.713  0.00  0.00    +0.280 C 
BRANCH   3  10
ATOM     10  N   UNL     1       9.842  -5.643  25.572  0.00  0.00    -0.241 N 
ATOM     11  H   UNL     1      10.518  -5.919  26.280  0.00  0.00    +0.289 HD
ATOM     12  H   UNL     1       9.557  -6.402  24.957  0.00  0.00    +0.289 HD
ENDBRANCH   3  10
ENDBRANCH   1   9
BRANCH   2  13
ATOM     13  C   UNL     1       9.091  -0.872  24.003  0.00  0.00    +0.087 A 
ATOM     14  C   UNL     1       9.311   0.482  24.276  0.00  0.00    +0.044 A 
ATOM     15  C   UNL     1       9.731   1.360  23.267  0.00  0.00    +0.061 A 
ATOM     16  C   UNL     1       9.912   0.888  21.962  0.00  0.00    +0.015 A 
ATOM     17  C   UNL     1       9.704  -0.464  21.682  0.00  0.00    +0.003 A 
ATOM     18  C   UNL     1       9.304  -1.336  22.697  0.00  0.00    +0.029 A 
BRANCH  15  19
ATOM     19  C   UNL     1       9.932   2.786  23.628  0.00  0.00    +0.337 C 
ATOM     20  O   UNL     1       9.294   3.336  24.509  0.00  0.00    -0.245 OA
BRANCH  19  21
ATOM     21  O   UNL     1      10.910   3.400  22.933  0.00  0.00    -0.477 OA
ATOM     22  H   UNL     1      11.817   3.098  23.120  0.00  0.00    +0.295 HD
ENDBRANCH  19  21
ENDBRANCH  15  19
ENDBRANCH   2  13
TORSDOF 5
ENDMDL
MODEL 8
REMARK VINA RESULT:      -6.2      1.443      2.116
REMARK  Name = 
REMARK  5 active torsions:
REMARK  status: ('A' for Active; 'I' for Inactive)
REMARK    1  A    between atoms: N_1  and  C_2
REMARK    2  A    between atoms: C_3  and  N_4
REMARK    3  A    between atoms: N_5  and  C_6
REMARK    4  A    between atoms: C_10  and  C_12
REMARK    5  A    between atoms: C_12  and  O_13
REMARK                            x       y       z     vdW  Elec       q    Type
REMARK                         _______ _______ _______ _____ _____    ______ ____
ROOT
ATOM      1  N   UNL     1       8.518   0.166  23.458  0.00  0.00    -0.132 NA
ATOM      2  N   UNL     1       8.828  -0.687  24.316  0.00  0.00    -0.149 NA
ENDROOT
BRANCH   1   9
ATOM      3  C   UNL     1       8.602   2.257  24.828  0.00  0.00    +0.398 C 
ATOM      4  N   UNL     1       9.088   3.526  24.609  0.00  0.00    +0.195 NA
ATOM      5  N   UNL     1       9.617   3.607  23.473  0.00  0.00    +0.201 NA
ATOM      6  C   UNL     1       9.513   2.382  22.869  0.00  0.00    +0.446 C 
ATOM      7  N   UNL     1       9.977   2.162  21.688  0.00  0.00    -0.089 NA
ATOM      8  H   UNL     1       9.801   1.185  21.432  0.00  0.00    +0.364 HD
ATOM      9  C   UNL     1       8.813   1.462  23.769  0.00  0.00    +0.280 C 
BRANCH   3  10
ATOM     10  N   UNL     1       7.961   1.877  25.993  0.00  0.00    -0.241 N 
ATOM     11  H   UNL     1       8.473   2.179  26.818  0.00  0.00    +0.289 HD
ATOM     12  H   UNL     1       6.977   2.138  26.002  0.00  0.00    +0.289 HD
ENDBRANCH   3  10
ENDBRANCH   1   9
BRANCH   2  13
ATOM     13  C   UNL     1       8.486  -1.998  23.928  0.00  0.00    +0.087 A 
ATOM     14  C   UNL     1       8.778  -3.045  24.808  0.00  0.00    +0.044 A 
ATOM     15  C   UNL     1       8.397  -4.361  24.512  0.00  0.00    +0.061 A 
ATOM     16  C   UNL     1       7.735  -4.642  23.311  0.00  0.00    +0.015 A 
ATOM     17  C   UNL     1       7.431  -3.603  22.431  0.00  0.00    +0.003 A 
ATOM     18  C   UNL     1       7.797  -2.291  22.742  0.00  0.00    +0.029 A 
BRANCH  15  19
ATOM     19  C   UNL     1       8.753  -5.422  25.488  0.00  0.00    +0.337 C 
ATOM     20  O   UNL     1       7.997  -5.778  26.375  0.00  0.00    -0.245 OA
BRANCH  19  21
ATOM     21  O   UNL     1       9.959  -5.985  25.276  0.00  0.00    -0.477 OA
ATOM     22  H   UNL     1      10.612  -5.427  24.816  0.00  0.00    +0.295 HD
ENDBRANCH  19  21
ENDBRANCH  15  19
ENDBRANCH   2  13
TORSDOF 5
ENDMDL
MODEL 9
REMARK VINA RESULT:      -6.1      4.398      6.564
REMARK  Name = 
REMARK  5 active torsions:
REMARK  status: ('A' for Active; 'I' for Inactive)
REMARK    1  A    between atoms: N_1  and  C_2
REMARK    2  A    between atoms: C_3  and  N_4
REMARK    3  A    between atoms: N_5  and  C_6
REMARK    4  A    between atoms: C_10  and  C_12
REMARK    5  A    between atoms: C_12  and  O_13
REMARK                            x       y       z     vdW  Elec       q    Type
REMARK                         _______ _______ _______ _____ _____    ______ ____
ROOT
ATOM      1  N   UNL     1       8.454  -2.930  24.892  0.00  0.00    -0.132 NA
ATOM      2  N   UNL     1       7.631  -2.129  24.402  0.00  0.00    -0.149 NA
ENDROOT
BRANCH   1   9
ATOM      3  C   UNL     1       6.988  -3.664  26.780  0.00  0.00    +0.398 C 
ATOM      4  N   UNL     1       6.963  -4.771  27.599  0.00  0.00    +0.195 NA
ATOM      5  N   UNL     1       7.876  -5.575  27.284  0.00  0.00    +0.201 NA
ATOM      6  C   UNL     1       8.562  -5.041  26.225  0.00  0.00    +0.446 C 
ATOM      7  N   UNL     1       9.557  -5.652  25.680  0.00  0.00    -0.089 NA
ATOM      8  H   UNL     1       9.920  -5.084  24.906  0.00  0.00    +0.364 HD
ATOM      9  C   UNL     1       7.982  -3.740  25.884  0.00  0.00    +0.280 C 
BRANCH   3  10
ATOM     10  N   UNL     1       6.102  -2.609  26.899  0.00  0.00    -0.241 N 
ATOM     11  H   UNL     1       6.577  -1.712  26.825  0.00  0.00    +0.289 HD
ATOM     12  H   UNL     1       5.299  -2.701  26.281  0.00  0.00    +0.289 HD
ENDBRANCH   3  10
ENDBRANCH   1   9
BRANCH   2  13
ATOM     13  C   UNL     1       8.192  -1.322  23.391  0.00  0.00    +0.087 A 
ATOM     14  C   UNL     1       7.682  -0.032  23.216  0.00  0.00    +0.044 A 
ATOM     15  C   UNL     1       8.246   0.843  22.277  0.00  0.00    +0.061 A 
ATOM     16  C   UNL     1       9.319   0.419  21.485  0.00  0.00    +0.015 A 
ATOM     17  C   UNL     1       9.841  -0.864  21.659  0.00  0.00    +0.003 A 
ATOM     18  C   UNL     1       9.286  -1.723  22.611  0.00  0.00    +0.029 A 
BRANCH  15  19
ATOM     19  C   UNL     1       7.643   2.193  22.137  0.00  0.00    +0.337 C 
ATOM     20  O   UNL     1       6.439   2.380  22.169  0.00  0.00    -0.245 OA
BRANCH  19  21
ATOM     21  O   UNL     1       8.543   3.191  22.022  0.00  0.00    -0.477 OA
ATOM     22  H   UNL     1       9.477   2.917  21.995  0.00  0.00    +0.295 HD
ENDBRANCH  19  21
ENDBRANCH  15  19
ENDBRANCH   2  13
TORSDOF 5
ENDMDL
