MODEL 1
REMARK VINA RESULT:      -5.2      0.000      0.000
REMARK  Name = 
REMARK  9 active torsions:
REMARK  status: ('A' for Active; 'I' for Inactive)
REMARK    1  A    between atoms: N_1  and  C_2
REMARK    2  A    between atoms: C_4  and  O_6
REMARK    3  A    between atoms: C_8  and  C_10
REMARK    4  A    between atoms: C_10  and  O_11
REMARK    5  A    between atoms: O_11  and  P_12
REMARK    6  A    between atoms: P_12  and  O_13
REMARK    7  A    between atoms: P_12  and  O_14
REMARK    8  A    between atoms: C_16  and  O_18
REMARK    9  A    between atoms: C_19  and  O_21
REMARK                            x       y       z     vdW  Elec       q    Type
REMARK                         _______ _______ _______ _____ _____    ______ ____
ROOT
ATOM      1  C   UNL     1       9.825   0.462  21.930  0.00  0.00    +0.139 C 
ATOM      2  C   UNL     1       9.533  -1.043  21.792  0.00  0.00    +0.167 C 
ATOM      3  C   UNL     1       8.245  -1.441  22.524  0.00  0.00    +0.176 C 
ATOM      4  C   UNL     1       8.232  -0.927  23.981  0.00  0.00    +0.178 C 
ATOM      5  O   UNL     1       8.554   0.467  24.052  0.00  0.00    -0.342 OA
ATOM      6  C   UNL     1       9.789   0.845  23.438  0.00  0.00    +0.267 C 
ENDROOT
BRANCH   1   7
ATOM      7  N   UNL     1       8.882   1.266  21.120  0.00  0.00    -0.321 NA
ATOM      8  H   UNL     1       8.862   0.899  20.166  0.00  0.00    +0.119 HD
ATOM      9  H   UNL     1       7.936   1.109  21.475  0.00  0.00    +0.119 HD
ENDBRANCH   1   7
BRANCH   2  10
ATOM     10  O   UNL     1      10.642  -1.793  22.327  0.00  0.00    -0.387 OA
ATOM     11  H   UNL     1      10.272  -2.284  23.088  0.00  0.00    +0.210 HD
ENDBRANCH   2  10
BRANCH   3  12
ATOM     12  O   UNL     1       8.074  -2.859  22.417  0.00  0.00    -0.387 OA
ATOM     13  H   UNL     1       7.258  -3.008  21.903  0.00  0.00    +0.210 HD
ENDBRANCH   3  12
BRANCH   6  14
ATOM     14  O   UNL     1      10.905   0.348  24.155  0.00  0.00    -0.366 OA
ATOM     15  H   UNL     1      11.335  -0.324  23.588  0.00  0.00    +0.213 HD
ENDBRANCH   6  14
BRANCH   4  16
ATOM     16  C   UNL     1       9.020  -1.768  24.999  0.00  0.00    +0.206 C 
BRANCH  16  17
ATOM     17  O   UNL     1       8.207  -2.837  25.460  0.00  0.00    -0.284 OA
BRANCH  17  18
ATOM     18  P   UNL     1       8.738  -4.315  25.182  0.00  0.00    +0.472 P 
ATOM     19  O   UNL     1       7.858  -5.250  24.436  0.00  0.00    -0.228 OA
BRANCH  18  20
ATOM     20  O   UNL     1       9.326  -4.812  26.577  0.00  0.00    -0.303 OA
ATOM     21  H   UNL     1      10.119  -5.362  26.426  0.00  0.00    +0.222 HD
ENDBRANCH  18  20
BRANCH  18  22
ATOM     22  O   UNL     1      10.104  -4.009  24.407  0.00  0.00    -0.303 OA
ATOM     23  H   UNL     1      10.224  -4.665  23.696  0.00  0.00    +0.222 HD
ENDBRANCH  18  22
ENDBRANCH  17  18
ENDBRANCH  16  17
ENDBRANCH   4  16
TORSDOF 9
ENDMDL
MODEL 2
REMARK VINA RESULT:      -5.0      1.306      2.632
REMARK  Name = 
REMARK  9 active torsions:
REMARK  status: ('A' for Active; 'I' for Inactive)
REMARK    1  A    between atoms: N_1  and  C_2
REMARK    2  A    between atoms: C_4  and  O_6
REMARK    3  A    between atoms: C_8  and  C_10
REMARK    4  A    between atoms: C_10  and  O_11
REMARK    5  A    between atoms: O_11  and  P_12
REMARK    6  A    between atoms: P_12  and  O_13
REMARK    7  A    between atoms: P_12  and  O_14
REMARK    8  A    between atoms: C_16  and  O_18
REMARK    9  A    between atoms: C_19  and  O_21
REMARK                            x       y       z     vdW  Elec       q    Type
REMARK                         _______ _______ _______ _____ _____    ______ ____
ROOT
ATOM      1  C   UNL     1       8.994   0.956  21.895  0.00  0.00    +0.139 C 
ATOM      2  C   UNL     1       8.334   1.262  23.252  0.00  0.00    +0.167 C 
ATOM      3  C   UNL     1       9.312   1.063  24.417  0.00  0.00    +0.176 C 
ATOM      4  C   UNL     1      10.011  -0.314  24.350  0.00  0.00    +0.178 C 
ATOM      5  O   UNL     1      10.566  -0.562  23.054  0.00  0.00    -0.342 OA
ATOM      6  C   UNL     1       9.651  -0.454  21.961  0.00  0.00    +0.267 C 
ENDROOT
BRANCH   1   7
ATOM      7  N   UNL     1       9.961   2.013  21.522  0.00  0.00    -0.321 NA
ATOM      8  H   UNL     1       9.890   2.194  20.518  0.00  0.00    +0.119 HD
ATOM      9  H   UNL     1       9.670   2.889  21.962  0.00  0.00    +0.119 HD
ENDBRANCH   1   7
BRANCH   2  10
ATOM     10  O   UNL     1       7.193   0.398  23.430  0.00  0.00    -0.387 OA
ATOM     11  H   UNL     1       6.552   0.928  23.945  0.00  0.00    +0.210 HD
ENDBRANCH   2  10
BRANCH   3  12
ATOM     12  O   UNL     1       8.615   1.292  25.647  0.00  0.00    -0.387 OA
ATOM     13  H   UNL     1       8.523   2.259  25.745  0.00  0.00    +0.210 HD
ENDBRANCH   3  12
BRANCH   6  14
ATOM     14  O   UNL     1       8.697  -1.501  21.971  0.00  0.00    -0.366 OA
ATOM     15  H   UNL     1       9.161  -2.315  21.686  0.00  0.00    +0.213 HD
ENDBRANCH   6  14
BRANCH   4  16
ATOM     16  C   UNL     1       9.201  -1.506  24.884  0.00  0.00    +0.206 C 
BRANCH  16  17
ATOM     17  O   UNL     1       9.817  -2.719  24.476  0.00  0.00    -0.284 OA
BRANCH  17  18
ATOM     18  P   UNL     1       9.028  -4.068  24.794  0.00  0.00    +0.472 P 
ATOM     19  O   UNL     1       8.016  -4.051  25.880  0.00  0.00    -0.228 OA
BRANCH  18  20
ATOM     20  O   UNL     1      10.148  -5.199  24.849  0.00  0.00    -0.303 OA
ATOM     21  H   UNL     1      11.026  -4.793  24.982  0.00  0.00    +0.222 HD
ENDBRANCH  18  20
BRANCH  18  22
ATOM     22  O   UNL     1       8.388  -4.392  23.364  0.00  0.00    -0.303 OA
ATOM     23  H   UNL     1       8.156  -5.339  23.323  0.00  0.00    +0.222 HD
ENDBRANCH  18  22
ENDBRANCH  17  18
ENDBRANCH  16  17
ENDBRANCH   4  16
TORSDOF 9
ENDMDL
MODEL 3
REMARK VINA RESULT:      -5.0      3.696      6.045
REMARK  Name = 
REMARK  9 active torsions:
REMARK  status: ('A' for Active; 'I' for Inactive)
REMARK    1  A    between atoms: N_1  and  C_2
REMARK    2  A    between atoms: C_4  and  O_6
REMARK    3  A    between atoms: C_8  and  C_10
REMARK    4  A    between atoms: C_10  and  O_11
REMARK    5  A    between atoms: O_11  and  P_12
REMARK    6  A    between atoms: P_12  and  O_13
REMARK    7  A    between atoms: P_12  and  O_14
REMARK    8  A    between atoms: C_16  and  O_18
REMARK    9  A    between atoms: C_19  and  O_21
REMARK                            x       y       z     vdW  Elec       q    Type
REMARK                         _______ _______ _______ _____ _____    ______ ____
ROOT
ATOM      1  C   UNL     1       9.056  -0.637  21.808  0.00  0.00    +0.139 C 
ATOM      2  C   UNL     1       9.517   0.793  21.471  0.00  0.00    +0.167 C 
ATOM      3  C   UNL     1      10.217   1.459  22.662  0.00  0.00    +0.176 C 
ATOM      4  C   UNL     1       9.373   1.356  23.954  0.00  0.00    +0.178 C 
ATOM      5  O   UNL     1       8.935   0.013  24.192  0.00  0.00    -0.342 OA
ATOM      6  C   UNL     1       8.216  -0.599  23.118  0.00  0.00    +0.267 C 
ENDROOT
BRANCH   1   7
ATOM      7  N   UNL     1      10.208  -1.561  21.902  0.00  0.00    -0.321 NA
ATOM      8  H   UNL     1      10.926  -1.143  22.500  0.00  0.00    +0.119 HD
ATOM      9  H   UNL     1       9.911  -2.399  22.405  0.00  0.00    +0.119 HD
ENDBRANCH   1   7
BRANCH   2  10
ATOM     10  O   UNL     1       8.374   1.581  21.082  0.00  0.00    -0.387 OA
ATOM     11  H   UNL     1       8.711   2.497  21.008  0.00  0.00    +0.210 HD
ENDBRANCH   2  10
BRANCH   3  12
ATOM     12  O   UNL     1      10.552   2.805  22.305  0.00  0.00    -0.387 OA
ATOM     13  H   UNL     1      10.588   2.839  21.330  0.00  0.00    +0.210 HD
ENDBRANCH   3  12
BRANCH   6  14
ATOM     14  O   UNL     1       6.943  -0.006  22.934  0.00  0.00    -0.366 OA
ATOM     15  H   UNL     1       6.627   0.276  23.817  0.00  0.00    +0.213 HD
ENDBRANCH   6  14
BRANCH   4  16
ATOM     16  C   UNL     1       8.239   2.382  24.100  0.00  0.00    +0.206 C 
BRANCH  16  17
ATOM     17  O   UNL     1       8.788   3.654  24.412  0.00  0.00    -0.284 OA
BRANCH  17  18
ATOM     18  P   UNL     1       8.261   4.893  23.557  0.00  0.00    +0.472 P 
ATOM     19  O   UNL     1       7.312   5.838  24.199  0.00  0.00    -0.228 OA
BRANCH  18  20
ATOM     20  O   UNL     1       7.846   4.278  22.148  0.00  0.00    -0.303 OA
ATOM     21  H   UNL     1       7.593   3.341  22.256  0.00  0.00    +0.222 HD
ENDBRANCH  18  20
BRANCH  18  22
ATOM     22  O   UNL     1       9.641   5.594  23.150  0.00  0.00    -0.303 OA
ATOM     23  H   UNL     1      10.118   5.859  23.958  0.00  0.00    +0.222 HD
ENDBRANCH  18  22
ENDBRANCH  17  18
ENDBRANCH  16  17
ENDBRANCH   4  16
TORSDOF 9
ENDMDL
MODEL 4
REMARK VINA RESULT:      -5.0      2.860      4.911
REMARK  Name = 
REMARK  9 active torsions:
REMARK  status: ('A' for Active; 'I' for Inactive)
REMARK    1  A    between atoms: N_1  and  C_2
REMARK    2  A    between atoms: C_4  and  O_6
REMARK    3  A    between atoms: C_8  and  C_10
REMARK    4  A    between atoms: C_10  and  O_11
REMARK    5  A    between atoms: O_11  and  P_12
REMARK    6  A    between atoms: P_12  and  O_13
REMARK    7  A    between atoms: P_12  and  O_14
REMARK    8  A    between atoms: C_16  and  O_18
REMARK    9  A    between atoms: C_19  and  O_21
REMARK                            x       y       z     vdW  Elec       q    Type
REMARK                         _______ _______ _______ _____ _____    ______ ____
ROOT
ATOM      1  C   UNL     1       7.452  -3.159  23.275  0.00  0.00    +0.139 C 
ATOM      2  C   UNL     1       7.725  -2.012  22.286  0.00  0.00    +0.167 C 
ATOM      3  C   UNL     1       9.222  -1.870  21.981  0.00  0.00    +0.176 C 
ATOM      4  C   UNL     1      10.067  -1.804  23.274  0.00  0.00    +0.178 C 
ATOM      5  O   UNL     1       9.738  -2.867  24.174  0.00  0.00    -0.342 OA
ATOM      6  C   UNL     1       8.356  -2.970  24.527  0.00  0.00    +0.267 C 
ENDROOT
BRANCH   1   7
ATOM      7  N   UNL     1       7.648  -4.477  22.631  0.00  0.00    -0.321 NA
ATOM      8  H   UNL     1       7.963  -4.337  21.668  0.00  0.00    +0.119 HD
ATOM      9  H   UNL     1       8.429  -4.950  23.091  0.00  0.00    +0.119 HD
ENDBRANCH   1   7
BRANCH   2  10
ATOM     10  O   UNL     1       7.228  -0.778  22.841  0.00  0.00    -0.387 OA
ATOM     11  H   UNL     1       7.107  -0.960  23.795  0.00  0.00    +0.210 HD
ENDBRANCH   2  10
BRANCH   3  12
ATOM     12  O   UNL     1       9.410  -0.744  21.117  0.00  0.00    -0.387 OA
ATOM     13  H   UNL     1       8.884  -0.912  20.312  0.00  0.00    +0.210 HD
ENDBRANCH   3  12
BRANCH   6  14
ATOM     14  O   UNL     1       7.942  -1.887  25.342  0.00  0.00    -0.366 OA
ATOM     15  H   UNL     1       8.717  -1.615  25.875  0.00  0.00    +0.213 HD
ENDBRANCH   6  14
BRANCH   4  16
ATOM     16  C   UNL     1      10.122  -0.435  23.971  0.00  0.00    +0.206 C 
BRANCH  16  17
ATOM     17  O   UNL     1      10.731   0.513  23.107  0.00  0.00    -0.284 OA
BRANCH  17  18
ATOM     18  P   UNL     1      10.076   1.967  23.061  0.00  0.00    +0.472 P 
ATOM     19  O   UNL     1      10.828   3.096  23.664  0.00  0.00    -0.228 OA
BRANCH  18  20
ATOM     20  O   UNL     1       8.567   1.756  23.525  0.00  0.00    -0.303 OA
ATOM     21  H   UNL     1       7.959   2.157  22.874  0.00  0.00    +0.222 HD
ENDBRANCH  18  20
BRANCH  18  22
ATOM     22  O   UNL     1       9.851   2.152  21.487  0.00  0.00    -0.303 OA
ATOM     23  H   UNL     1      10.717   2.167  21.038  0.00  0.00    +0.222 HD
ENDBRANCH  18  22
ENDBRANCH  17  18
ENDBRANCH  16  17
ENDBRANCH   4  16
TORSDOF 9
ENDMDL
MODEL 5
REMARK VINA RESULT:      -4.9      3.727      5.666
REMARK  Name = 
REMARK  9 active torsions:
REMARK  status: ('A' for Active; 'I' for Inactive)
REMARK    1  A    between atoms: N_1  and  C_2
REMARK    2  A    between atoms: C_4  and  O_6
REMARK    3  A    between atoms: C_8  and  C_10
REMARK    4  A    between atoms: C_10  and  O_11
REMARK    5  A    between atoms: O_11  and  P_12
REMARK    6  A    between atoms: P_12  and  O_13
REMARK    7  A    between atoms: P_12  and  O_14
REMARK    8  A    between atoms: C_16  and  O_18
REMARK    9  A    between atoms: C_19  and  O_21
REMARK                            x       y       z     vdW  Elec       q    Type
REMARK                         _______ _______ _______ _____ _____    ______ ____
ROOT
ATOM      1  C   UNL     1      10.154  -0.184  22.046  0.00  0.00    +0.139 C 
ATOM      2  C   UNL     1      10.402  -0.024  23.556  0.00  0.00    +0.167 C 
ATOM      3  C   UNL     1       9.091  -0.051  24.353  0.00  0.00    +0.176 C 
ATOM      4  C   UNL     1       8.050   0.936  23.776  0.00  0.00    +0.178 C 
ATOM      5  O   UNL     1       7.895   0.772  22.362  0.00  0.00    -0.342 OA
ATOM      6  C   UNL     1       9.098   0.867  21.595  0.00  0.00    +0.267 C 
ENDROOT
BRANCH   1   7
ATOM      7  N   UNL     1       9.751  -1.568  21.714  0.00  0.00    -0.321 NA
ATOM      8  H   UNL     1       9.890  -2.164  22.534  0.00  0.00    +0.119 HD
ATOM      9  H   UNL     1       8.741  -1.582  21.555  0.00  0.00    +0.119 HD
ENDBRANCH   1   7
BRANCH   2  10
ATOM     10  O   UNL     1      11.086   1.223  23.796  0.00  0.00    -0.387 OA
ATOM     11  H   UNL     1      11.220   1.256  24.765  0.00  0.00    +0.210 HD
ENDBRANCH   2  10
BRANCH   3  12
ATOM     12  O   UNL     1       9.388   0.176  25.735  0.00  0.00    -0.387 OA
ATOM     13  H   UNL     1       8.756  -0.359  26.252  0.00  0.00    +0.210 HD
ENDBRANCH   3  12
BRANCH   6  14
ATOM     14  O   UNL     1       9.610   2.188  21.585  0.00  0.00    -0.366 OA
ATOM     15  H   UNL     1       9.142   2.684  22.288  0.00  0.00    +0.213 HD
ENDBRANCH   6  14
BRANCH   4  16
ATOM     16  C   UNL     1       8.219   2.408  24.185  0.00  0.00    +0.206 C 
BRANCH  16  17
ATOM     17  O   UNL     1       6.978   3.084  24.045  0.00  0.00    -0.284 OA
BRANCH  17  18
ATOM     18  P   UNL     1       6.905   4.225  22.932  0.00  0.00    +0.472 P 
ATOM     19  O   UNL     1       6.057   5.414  23.201  0.00  0.00    -0.228 OA
BRANCH  18  20
ATOM     20  O   UNL     1       6.673   3.451  21.559  0.00  0.00    -0.303 OA
ATOM     21  H   UNL     1       7.521   3.351  21.087  0.00  0.00    +0.222 HD
ENDBRANCH  18  20
BRANCH  18  22
ATOM     22  O   UNL     1       8.452   4.598  22.773  0.00  0.00    -0.303 OA
ATOM     23  H   UNL     1       8.629   4.847  21.846  0.00  0.00    +0.222 HD
ENDBRANCH  18  22
ENDBRANCH  17  18
ENDBRANCH  16  17
ENDBRANCH   4  16
TORSDOF 9
ENDMDL
MODEL 6
REMARK VINA RESULT:      -4.9      1.024      1.935
REMARK  Name = 
REMARK  9 active torsions:
REMARK  status: ('A' for Active; 'I' for Inactive)
REMARK    1  A    between atoms: N_1  and  C_2
REMARK    2  A    between atoms: C_4  and  O_6
REMARK    3  A    between atoms: C_8  and  C_10
REMARK    4  A    between atoms: C_10  and  O_11
REMARK    5  A    between atoms: O_11  and  P_12
REMARK    6  A    between atoms: P_12  and  O_13
REMARK    7  A    between atoms: P_12  and  O_14
REMARK    8  A    between atoms: C_16  and  O_18
REMARK    9  A    between atoms: C_19  and  O_21
REMARK                            x       y       z     vdW  Elec       q    Type
REMARK                         _______ _______ _______ _____ _____    ______ ____
ROOT
ATOM      1  C   UNL     1       9.149   1.699  22.714  0.00  0.00    +0.139 C 
ATOM      2  C   UNL     1      10.187   0.581  22.509  0.00  0.00    +0.167 C 
ATOM      3  C   UNL     1       9.536  -0.714  22.007  0.00  0.00    +0.176 C 
ATOM      4  C   UNL     1       8.330  -1.126  22.883  0.00  0.00    +0.178 C 
ATOM      5  O   UNL     1       7.422  -0.035  23.077  0.00  0.00    -0.342 OA
ATOM      6  C   UNL     1       7.999   1.158  23.613  0.00  0.00    +0.267 C 
ENDROOT
BRANCH   1   7
ATOM      7  N   UNL     1       8.657   2.215  21.418  0.00  0.00    -0.321 NA
ATOM      8  H   UNL     1       8.878   1.540  20.682  0.00  0.00    +0.119 HD
ATOM      9  H   UNL     1       7.635   2.240  21.445  0.00  0.00    +0.119 HD
ENDBRANCH   1   7
BRANCH   2  10
ATOM     10  O   UNL     1      10.864   0.327  23.756  0.00  0.00    -0.387 OA
ATOM     11  H   UNL     1      10.208   0.541  24.449  0.00  0.00    +0.210 HD
ENDBRANCH   2  10
BRANCH   3  12
ATOM     12  O   UNL     1      10.543  -1.728  21.909  0.00  0.00    -0.387 OA
ATOM     13  H   UNL     1      10.667  -2.092  22.806  0.00  0.00    +0.210 HD
ENDBRANCH   3  12
BRANCH   6  14
ATOM     14  O   UNL     1       8.394   0.988  24.963  0.00  0.00    -0.366 OA
ATOM     15  H   UNL     1       8.945   1.762  25.201  0.00  0.00    +0.213 HD
ENDBRANCH   6  14
BRANCH   4  16
ATOM     16  C   UNL     1       8.668  -1.853  24.194  0.00  0.00    +0.206 C 
BRANCH  16  17
ATOM     17  O   UNL     1       9.127  -3.165  23.902  0.00  0.00    -0.284 OA
BRANCH  17  18
ATOM     18  P   UNL     1       9.056  -4.230  25.088  0.00  0.00    +0.472 P 
ATOM     19  O   UNL     1       8.747  -3.741  26.455  0.00  0.00    -0.228 OA
BRANCH  18  20
ATOM     20  O   UNL     1      10.353  -5.138  24.907  0.00  0.00    -0.303 OA
ATOM     21  H   UNL     1      10.138  -5.920  24.364  0.00  0.00    +0.222 HD
ENDBRANCH  18  20
BRANCH  18  22
ATOM     22  O   UNL     1       7.944  -5.236  24.531  0.00  0.00    -0.303 OA
ATOM     23  H   UNL     1       8.368  -6.077  24.278  0.00  0.00    +0.222 HD
ENDBRANCH  18  22
ENDBRANCH  17  18
ENDBRANCH  16  17
ENDBRANCH   4  16
TORSDOF 9
ENDMDL
MODEL 7
REMARK VINA RESULT:      -4.8      2.505      3.727
REMARK  Name = 
REMARK  9 active torsions:
REMARK  status: ('A' for Active; 'I' for Inactive)
REMARK    1  A    between atoms: N_1  and  C_2
REMARK    2  A    between atoms: C_4  and  O_6
REMARK    3  A    between atoms: C_8  and  C_10
REMARK    4  A    between atoms: C_10  and  O_11
REMARK    5  A    between atoms: O_11  and  P_12
REMARK    6  A    between atoms: P_12  and  O_13
REMARK    7  A    between atoms: P_12  and  O_14
REMARK    8  A    between atoms: C_16  and  O_18
REMARK    9  A    between atoms: C_19  and  O_21
REMARK                            x       y       z     vdW  Elec       q    Type
REMARK                         _______ _______ _______ _____ _____    ______ ____
ROOT
ATOM      1  C   UNL     1       9.346   3.904  24.110  0.00  0.00    +0.139 C 
ATOM      2  C   UNL     1      10.059   2.850  23.245  0.00  0.00    +0.167 C 
ATOM      3  C   UNL     1       9.113   2.233  22.207  0.00  0.00    +0.176 C 
ATOM      4  C   UNL     1       7.799   1.736  22.852  0.00  0.00    +0.178 C 
ATOM      5  O   UNL     1       7.205   2.742  23.680  0.00  0.00    -0.342 OA
ATOM      6  C   UNL     1       8.050   3.277  24.702  0.00  0.00    +0.267 C 
ENDROOT
BRANCH   1   7
ATOM      7  N   UNL     1       9.074   5.136  23.335  0.00  0.00    -0.321 NA
ATOM      8  H   UNL     1       9.774   5.843  23.573  0.00  0.00    +0.119 HD
ATOM      9  H   UNL     1       9.235   4.937  22.345  0.00  0.00    +0.119 HD
ENDBRANCH   1   7
BRANCH   2  10
ATOM     10  O   UNL     1      10.581   1.810  24.097  0.00  0.00    -0.387 OA
ATOM     11  H   UNL     1      10.705   2.236  24.969  0.00  0.00    +0.210 HD
ENDBRANCH   2  10
BRANCH   3  12
ATOM     12  O   UNL     1       9.818   1.213  21.490  0.00  0.00    -0.387 OA
ATOM     13  H   UNL     1       9.195   0.846  20.834  0.00  0.00    +0.210 HD
ENDBRANCH   3  12
BRANCH   6  14
ATOM     14  O   UNL     1       8.318   2.322  25.714  0.00  0.00    -0.366 OA
ATOM     15  H   UNL     1       9.118   2.625  26.191  0.00  0.00    +0.213 HD
ENDBRANCH   6  14
BRANCH   4  16
ATOM     16  C   UNL     1       7.865   0.365  23.544  0.00  0.00    +0.206 C 
BRANCH  16  17
ATOM     17  O   UNL     1       8.073  -0.647  22.569  0.00  0.00    -0.284 OA
BRANCH  17  18
ATOM     18  P   UNL     1       9.215  -1.717  22.878  0.00  0.00    +0.472 P 
ATOM     19  O   UNL     1       8.806  -3.074  23.319  0.00  0.00    -0.228 OA
BRANCH  18  20
ATOM     20  O   UNL     1      10.278  -0.941  23.776  0.00  0.00    -0.303 OA
ATOM     21  H   UNL     1       9.891  -0.108  24.105  0.00  0.00    +0.222 HD
ENDBRANCH  18  20
BRANCH  18  22
ATOM     22  O   UNL     1      10.002  -1.736  21.485  0.00  0.00    -0.303 OA
ATOM     23  H   UNL     1      10.889  -2.118  21.622  0.00  0.00    +0.222 HD
ENDBRANCH  18  22
ENDBRANCH  17  18
ENDBRANCH  16  17
ENDBRANCH   4  16
TORSDOF 9
ENDMDL
MODEL 8
REMARK VINA RESULT:      -4.7      2.464      4.121
REMARK  Name = 
REMARK  9 active torsions:
REMARK  status: ('A' for Active; 'I' for Inactive)
REMARK    1  A    between atoms: N_1  and  C_2
REMARK    2  A    between atoms: C_4  and  O_6
REMARK    3  A    between atoms: C_8  and  C_10
REMARK    4  A    between atoms: C_10  and  O_11
REMARK    5  A    between atoms: O_11  and  P_12
REMARK    6  A    between atoms: P_12  and  O_13
REMARK    7  A    between atoms: P_12  and  O_14
REMARK    8  A    between atoms: C_16  and  O_18
REMARK    9  A    between atoms: C_19  and  O_21
REMARK                            x       y       z     vdW  Elec       q    Type
REMARK                         _______ _______ _______ _____ _____    ______ ____
ROOT
ATOM      1  C   UNL     1       7.556   3.194  22.411  0.00  0.00    +0.139 C 
ATOM      2  C   UNL     1       7.149   2.867  23.859  0.00  0.00    +0.167 C 
ATOM      3  C   UNL     1       8.366   2.814  24.792  0.00  0.00    +0.176 C 
ATOM      4  C   UNL     1       9.480   1.902  24.229  0.00  0.00    +0.178 C 
ATOM      5  O   UNL     1       9.785   2.221  22.866  0.00  0.00    -0.342 OA
ATOM      6  C   UNL     1       8.673   2.204  21.967  0.00  0.00    +0.267 C 
ENDROOT
BRANCH   1   7
ATOM      7  N   UNL     1       7.969   4.609  22.278  0.00  0.00    -0.321 NA
ATOM      8  H   UNL     1       8.171   4.988  23.207  0.00  0.00    +0.119 HD
ATOM      9  H   UNL     1       8.866   4.640  21.788  0.00  0.00    +0.119 HD
ENDBRANCH   1   7
BRANCH   2  10
ATOM     10  O   UNL     1       6.466   1.598  23.887  0.00  0.00    -0.387 OA
ATOM     11  H   UNL     1       6.639   1.199  23.010  0.00  0.00    +0.210 HD
ENDBRANCH   2  10
BRANCH   3  12
ATOM     12  O   UNL     1       7.926   2.435  26.101  0.00  0.00    -0.387 OA
ATOM     13  H   UNL     1       7.632   1.506  26.044  0.00  0.00    +0.210 HD
ENDBRANCH   3  12
BRANCH   6  14
ATOM     14  O   UNL     1       8.188   0.890  21.758  0.00  0.00    -0.366 OA
ATOM     15  H   UNL     1       8.959   0.331  21.530  0.00  0.00    +0.213 HD
ENDBRANCH   6  14
BRANCH   4  16
ATOM     16  C   UNL     1       9.294   0.393  24.454  0.00  0.00    +0.206 C 
BRANCH  16  17
ATOM     17  O   UNL     1      10.281  -0.321  23.724  0.00  0.00    -0.284 OA
BRANCH  17  18
ATOM     18  P   UNL     1       9.844  -1.728  23.113  0.00  0.00    +0.472 P 
ATOM     19  O   UNL     1      10.318  -2.964  23.785  0.00  0.00    -0.228 OA
BRANCH  18  20
ATOM     20  O   UNL     1      10.101  -1.597  21.546  0.00  0.00    -0.303 OA
ATOM     21  H   UNL     1       9.481  -0.949  21.160  0.00  0.00    +0.222 HD
ENDBRANCH  18  20
BRANCH  18  22
ATOM     22  O   UNL     1       8.250  -1.591  23.137  0.00  0.00    -0.303 OA
ATOM     23  H   UNL     1       8.006  -0.653  23.026  0.00  0.00    +0.222 HD
ENDBRANCH  18  22
ENDBRANCH  17  18
ENDBRANCH  16  17
ENDBRANCH   4  16
TORSDOF 9
ENDMDL
MODEL 9
REMARK VINA RESULT:      -4.7      1.918      2.772
REMARK  Name = 
REMARK  9 active torsions:
REMARK  status: ('A' for Active; 'I' for Inactive)
REMARK    1  A    between atoms: N_1  and  C_2
REMARK    2  A    between atoms: C_4  and  O_6
REMARK    3  A    between atoms: C_8  and  C_10
REMARK    4  A    between atoms: C_10  and  O_11
REMARK    5  A    between atoms: O_11  and  P_12
REMARK    6  A    between atoms: P_12  and  O_13
REMARK    7  A    between atoms: P_12  and  O_14
REMARK    8  A    between atoms: C_16  and  O_18
REMARK    9  A    between atoms: C_19  and  O_21
REMARK                            x       y       z     vdW  Elec       q    Type
REMARK                         _______ _______ _______ _____ _____    ______ ____
ROOT
ATOM      1  C   UNL     1      10.084  -0.513  24.568  0.00  0.00    +0.139 C 
ATOM      2  C   UNL     1      10.337  -0.609  23.053  0.00  0.00    +0.167 C 
ATOM      3  C   UNL     1       9.049  -0.392  22.247  0.00  0.00    +0.176 C 
ATOM      4  C   UNL     1       7.898  -1.291  22.754  0.00  0.00    +0.178 C 
ATOM      5  O   UNL     1       7.739  -1.195  24.173  0.00  0.00    -0.342 OA
ATOM      6  C   UNL     1       8.913  -1.466  24.944  0.00  0.00    +0.267 C 
ENDROOT
BRANCH   1   7
ATOM      7  N   UNL     1       9.828   0.886  24.979  0.00  0.00    -0.321 NA
ATOM      8  H   UNL     1      10.694   1.424  24.897  0.00  0.00    +0.119 HD
ATOM      9  H   UNL     1       9.195   1.313  24.298  0.00  0.00    +0.119 HD
ENDBRANCH   1   7
BRANCH   2  10
ATOM     10  O   UNL     1      10.885  -1.907  22.744  0.00  0.00    -0.387 OA
ATOM     11  H   UNL     1      10.114  -2.509  22.727  0.00  0.00    +0.210 HD
ENDBRANCH   2  10
BRANCH   3  12
ATOM     12  O   UNL     1       9.342  -0.567  20.856  0.00  0.00    -0.387 OA
ATOM     13  H   UNL     1      10.015   0.099  20.622  0.00  0.00    +0.210 HD
ENDBRANCH   3  12
BRANCH   6  14
ATOM     14  O   UNL     1       9.278  -2.833  24.879  0.00  0.00    -0.366 OA
ATOM     15  H   UNL     1       8.570  -3.298  24.388  0.00  0.00    +0.213 HD
ENDBRANCH   6  14
BRANCH   4  16
ATOM     16  C   UNL     1       7.913  -2.746  22.258  0.00  0.00    +0.206 C 
BRANCH  16  17
ATOM     17  O   UNL     1       6.981  -3.511  23.008  0.00  0.00    -0.284 OA
BRANCH  17  18
ATOM     18  P   UNL     1       7.108  -5.098  22.906  0.00  0.00    +0.472 P 
ATOM     19  O   UNL     1       7.130  -5.716  21.556  0.00  0.00    -0.228 OA
BRANCH  18  20
ATOM     20  O   UNL     1       6.055  -5.666  23.958  0.00  0.00    -0.303 OA
ATOM     21  H   UNL     1       6.073  -5.126  24.771  0.00  0.00    +0.222 HD
ENDBRANCH  18  20
BRANCH  18  22
ATOM     22  O   UNL     1       8.463  -5.349  23.718  0.00  0.00    -0.303 OA
ATOM     23  H   UNL     1       8.263  -5.392  24.672  0.00  0.00    +0.222 HD
ENDBRANCH  18  22
ENDBRANCH  17  18
ENDBRANCH  16  17
ENDBRANCH   4  16
TORSDOF 9
ENDMDL
