MODEL 1
REMARK VINA RESULT:      -6.4      0.000      0.000
REMARK  Name = 
REMARK  9 active torsions:
REMARK  status: ('A' for Active; 'I' for Inactive)
REMARK    1  A    between atoms: C_2  and  C_14
REMARK    2  A    between atoms: C_7  and  C_9
REMARK    3  A    between atoms: C_9  and  C_10
REMARK    4  A    between atoms: C_10  and  C_11
REMARK    5  A    between atoms: C_11  and  C_12
REMARK    6  A    between atoms: C_11  and  C_13
REMARK    7  A    between atoms: N_16  and  C_17
REMARK    8  A    between atoms: C_17  and  C_18
REMARK    9  A    between atoms: C_21  and  C_24
REMARK                            x       y       z     vdW  Elec       q    Type
REMARK                         _______ _______ _______ _____ _____    ______ ____
ROOT
ATOM      1  C   UNL     1       8.150  -3.068  23.470  0.00  0.00    +0.234 C 
ATOM      2  N   UNL     1       9.399  -2.562  23.751  0.00  0.00    -0.310 N 
ATOM      3  H   UNL     1       9.764  -2.678  24.689  0.00  0.00    +0.149 HD
ATOM      4  O   UNL     1       7.640  -3.005  22.353  0.00  0.00    -0.274 OA
ENDROOT
BRANCH   1   5
ATOM      5  C   UNL     1       7.346  -3.574  24.688  0.00  0.00    +0.162 C 
ATOM      6  N   UNL     1       5.950  -3.116  24.708  0.00  0.00    -0.290 N 
ATOM      7  C   UNL     1       5.484  -1.936  25.258  0.00  0.00    +0.216 C 
ATOM      8  O   UNL     1       4.279  -1.740  25.417  0.00  0.00    -0.276 OA
ATOM      9  C   UNL     1       5.026  -4.204  24.433  0.00  0.00    +0.108 C 
ATOM     10  C   UNL     1       5.897  -5.364  23.980  0.00  0.00    +0.021 C 
ATOM     11  C   UNL     1       7.230  -5.100  24.670  0.00  0.00    +0.033 C 
BRANCH   7  12
ATOM     12  C   UNL     1       6.528  -0.887  25.619  0.00  0.00    +0.096 C 
BRANCH  12  13
ATOM     13  C   UNL     1       6.818   0.072  24.458  0.00  0.00    +0.012 C 
BRANCH  13  14
ATOM     14  C   UNL     1       6.528   1.550  24.785  0.00  0.00    -0.017 C 
ATOM     15  C   UNL     1       6.528   2.378  23.498  0.00  0.00    +0.007 C 
ATOM     16  C   UNL     1       7.537   2.138  25.772  0.00  0.00    +0.007 C 
ENDBRANCH  13  14
ENDBRANCH  12  13
ENDBRANCH   7  12
ENDBRANCH   1   5
BRANCH   2  17
ATOM     17  C   UNL     1      10.223  -1.922  22.748  0.00  0.00    +0.139 C 
BRANCH  17  18
ATOM     18  C   UNL     1      10.228  -0.418  22.898  0.00  0.00    -0.030 A 
ATOM     19  C   UNL     1      10.678   0.176  24.087  0.00  0.00    +0.006 A 
ATOM     20  C   UNL     1      10.735   1.568  24.220  0.00  0.00    +0.016 A 
ATOM     21  C   UNL     1      10.347   2.389  23.157  0.00  0.00    +0.065 A 
ATOM     22  C   UNL     1       9.868   1.807  21.977  0.00  0.00    +0.016 A 
ATOM     23  C   UNL     1       9.817   0.414  21.846  0.00  0.00    +0.006 A 
BRANCH  21  24
ATOM     24  C   UNL     1      10.463   3.870  23.283  0.00  0.00    +0.308 C 
ATOM     25  N   UNL     1      11.597   4.493  23.232  0.00  0.00    -0.099 NA
ATOM     26  H   UNL     1      12.380   3.839  23.151  0.00  0.00    +0.363 HD
ATOM     27  N   UNL     1       9.358   4.645  23.468  0.00  0.00    -0.247 N 
ATOM     28  H   UNL     1       9.578   5.630  23.334  0.00  0.00    +0.288 HD
ATOM     29  H   UNL     1       8.525   4.361  22.970  0.00  0.00    +0.288 HD
ENDBRANCH  21  24
ENDBRANCH  17  18
ENDBRANCH   2  17
TORSDOF 7
ENDMDL
MODEL 2
REMARK VINA RESULT:      -6.4      1.841      4.151
REMARK  Name = 
REMARK  9 active torsions:
REMARK  status: ('A' for Active; 'I' for Inactive)
REMARK    1  A    between atoms: C_2  and  C_14
REMARK    2  A    between atoms: C_7  and  C_9
REMARK    3  A    between atoms: C_9  and  C_10
REMARK    4  A    between atoms: C_10  and  C_11
REMARK    5  A    between atoms: C_11  and  C_12
REMARK    6  A    between atoms: C_11  and  C_13
REMARK    7  A    between atoms: N_16  and  C_17
REMARK    8  A    between atoms: C_17  and  C_18
REMARK    9  A    between atoms: C_21  and  C_24
REMARK                            x       y       z     vdW  Elec       q    Type
REMARK                         _______ _______ _______ _____ _____    ______ ____
ROOT
ATOM      1  C   UNL     1       6.826  -1.129  24.634  0.00  0.00    +0.234 C 
ATOM      2  N   UNL     1       5.950  -0.224  24.076  0.00  0.00    -0.310 N 
ATOM      3  H   UNL     1       5.542  -0.445  23.177  0.00  0.00    +0.149 HD
ATOM      4  O   UNL     1       7.345  -0.964  25.736  0.00  0.00    -0.274 OA
ENDROOT
BRANCH   1   5
ATOM      5  C   UNL     1       7.257  -2.293  23.715  0.00  0.00    +0.162 C 
ATOM      6  N   UNL     1       8.711  -2.500  23.663  0.00  0.00    -0.290 N 
ATOM      7  C   UNL     1       9.596  -1.877  22.802  0.00  0.00    +0.216 C 
ATOM      8  O   UNL     1      10.756  -2.271  22.688  0.00  0.00    -0.276 OA
ATOM      9  C   UNL     1       9.102  -3.721  24.349  0.00  0.00    +0.108 C 
ATOM     10  C   UNL     1       7.853  -4.188  25.078  0.00  0.00    +0.021 C 
ATOM     11  C   UNL     1       6.715  -3.627  24.233  0.00  0.00    +0.033 C 
BRANCH   7  12
ATOM     12  C   UNL     1       9.074  -0.668  22.038  0.00  0.00    +0.096 C 
BRANCH  12  13
ATOM     13  C   UNL     1      10.013   0.539  22.144  0.00  0.00    +0.012 C 
BRANCH  13  14
ATOM     14  C   UNL     1       9.801   1.381  23.417  0.00  0.00    -0.017 C 
ATOM     15  C   UNL     1      10.470   2.749  23.255  0.00  0.00    +0.007 C 
ATOM     16  C   UNL     1      10.344   0.693  24.670  0.00  0.00    +0.007 C 
ENDBRANCH  13  14
ENDBRANCH  12  13
ENDBRANCH   7  12
ENDBRANCH   1   5
BRANCH   2  17
ATOM     17  C   UNL     1       5.558   0.994  24.751  0.00  0.00    +0.139 C 
BRANCH  17  18
ATOM     18  C   UNL     1       6.222   2.211  24.149  0.00  0.00    -0.030 A 
ATOM     19  C   UNL     1       6.321   2.352  22.757  0.00  0.00    +0.006 A 
ATOM     20  C   UNL     1       6.888   3.497  22.187  0.00  0.00    +0.016 A 
ATOM     21  C   UNL     1       7.363   4.524  23.007  0.00  0.00    +0.065 A 
ATOM     22  C   UNL     1       7.298   4.381  24.398  0.00  0.00    +0.016 A 
ATOM     23  C   UNL     1       6.724   3.237  24.964  0.00  0.00    +0.006 A 
BRANCH  21  24
ATOM     24  C   UNL     1       7.916   5.767  22.395  0.00  0.00    +0.308 C 
ATOM     25  N   UNL     1       7.351   6.371  21.398  0.00  0.00    -0.099 NA
ATOM     26  H   UNL     1       6.528   5.860  21.068  0.00  0.00    +0.363 HD
ATOM     27  N   UNL     1       9.067   6.325  22.864  0.00  0.00    -0.247 N 
ATOM     28  H   UNL     1       9.199   7.260  22.482  0.00  0.00    +0.288 HD
ATOM     29  H   UNL     1       9.204   6.291  23.864  0.00  0.00    +0.288 HD
ENDBRANCH  21  24
ENDBRANCH  17  18
ENDBRANCH   2  17
TORSDOF 7
ENDMDL
MODEL 3
REMARK VINA RESULT:      -6.4      1.351      1.842
REMARK  Name = 
REMARK  9 active torsions:
REMARK  status: ('A' for Active; 'I' for Inactive)
REMARK    1  A    between atoms: C_2  and  C_14
REMARK    2  A    between atoms: C_7  and  C_9
REMARK    3  A    between atoms: C_9  and  C_10
REMARK    4  A    between atoms: C_10  and  C_11
REMARK    5  A    between atoms: C_11  and  C_12
REMARK    6  A    between atoms: C_11  and  C_13
REMARK    7  A    between atoms: N_16  and  C_17
REMARK    8  A    between atoms: C_17  and  C_18
REMARK    9  A    between atoms: C_21  and  C_24
REMARK                            x       y       z     vdW  Elec       q    Type
REMARK                         _______ _______ _______ _____ _____    ______ ____
ROOT
ATOM      1  C   UNL     1       8.988  -3.002  23.653  0.00  0.00    +0.234 C 
ATOM      2  N   UNL     1       8.543  -2.217  22.613  0.00  0.00    -0.310 N 
ATOM      3  H   UNL     1       7.547  -2.180  22.433  0.00  0.00    +0.149 HD
ATOM      4  O   UNL     1      10.174  -3.083  23.969  0.00  0.00    -0.274 OA
ENDROOT
BRANCH   1   5
ATOM      5  C   UNL     1       7.925  -3.916  24.301  0.00  0.00    +0.162 C 
ATOM      6  N   UNL     1       6.545  -3.582  23.923  0.00  0.00    -0.290 N 
ATOM      7  C   UNL     1       5.722  -2.667  24.554  0.00  0.00    +0.216 C 
ATOM      8  O   UNL     1       4.519  -2.612  24.300  0.00  0.00    -0.276 OA
ATOM      9  C   UNL     1       5.973  -4.588  23.043  0.00  0.00    +0.108 C 
ATOM     10  C   UNL     1       7.135  -5.487  22.654  0.00  0.00    +0.021 C 
ATOM     11  C   UNL     1       8.092  -5.363  23.834  0.00  0.00    +0.033 C 
BRANCH   7  12
ATOM     12  C   UNL     1       6.383  -1.717  25.544  0.00  0.00    +0.096 C 
BRANCH  12  13
ATOM     13  C   UNL     1       6.597  -0.317  24.956  0.00  0.00    +0.012 C 
BRANCH  13  14
ATOM     14  C   UNL     1       7.714   0.485  25.651  0.00  0.00    -0.017 C 
ATOM     15  C   UNL     1       8.628  -0.463  26.431  0.00  0.00    +0.007 C 
ATOM     16  C   UNL     1       7.164   1.556  26.594  0.00  0.00    +0.007 C 
ENDBRANCH  13  14
ENDBRANCH  12  13
ENDBRANCH   7  12
ENDBRANCH   1   5
BRANCH   2  17
ATOM     17  C   UNL     1       9.436  -1.411  21.810  0.00  0.00    +0.139 C 
BRANCH  17  18
ATOM     18  C   UNL     1       9.514   0.013  22.309  0.00  0.00    -0.030 A 
ATOM     19  C   UNL     1       8.595   0.974  21.860  0.00  0.00    +0.006 A 
ATOM     20  C   UNL     1       8.625   2.284  22.352  0.00  0.00    +0.016 A 
ATOM     21  C   UNL     1       9.576   2.650  23.309  0.00  0.00    +0.065 A 
ATOM     22  C   UNL     1      10.516   1.707  23.742  0.00  0.00    +0.016 A 
ATOM     23  C   UNL     1      10.480   0.397  23.251  0.00  0.00    +0.006 A 
BRANCH  21  24
ATOM     24  C   UNL     1       9.568   4.031  23.872  0.00  0.00    +0.308 C 
ATOM     25  N   UNL     1      10.318   4.982  23.412  0.00  0.00    -0.099 NA
ATOM     26  H   UNL     1      10.934   4.646  22.668  0.00  0.00    +0.363 HD
ATOM     27  N   UNL     1       8.761   4.355  24.921  0.00  0.00    -0.247 N 
ATOM     28  H   UNL     1       8.723   5.363  25.053  0.00  0.00    +0.288 HD
ATOM     29  H   UNL     1       7.845   3.927  24.927  0.00  0.00    +0.288 HD
ENDBRANCH  21  24
ENDBRANCH  17  18
ENDBRANCH   2  17
TORSDOF 7
ENDMDL
MODEL 4
REMARK VINA RESULT:      -6.3      1.090      1.448
REMARK  Name = 
REMARK  9 active torsions:
REMARK  status: ('A' for Active; 'I' for Inactive)
REMARK    1  A    between atoms: C_2  and  C_14
REMARK    2  A    between atoms: C_7  and  C_9
REMARK    3  A    between atoms: C_9  and  C_10
REMARK    4  A    between atoms: C_10  and  C_11
REMARK    5  A    between atoms: C_11  and  C_12
REMARK    6  A    between atoms: C_11  and  C_13
REMARK    7  A    between atoms: N_16  and  C_17
REMARK    8  A    between atoms: C_17  and  C_18
REMARK    9  A    between atoms: C_21  and  C_24
REMARK                            x       y       z     vdW  Elec       q    Type
REMARK                         _______ _______ _______ _____ _____    ______ ____
ROOT
ATOM      1  C   UNL     1       8.612  -3.208  24.132  0.00  0.00    +0.234 C 
ATOM      2  N   UNL     1       9.804  -2.533  23.992  0.00  0.00    -0.310 N 
ATOM      3  H   UNL     1      10.445  -2.526  24.775  0.00  0.00    +0.149 HD
ATOM      4  O   UNL     1       7.787  -3.301  23.225  0.00  0.00    -0.274 OA
ENDROOT
BRANCH   1   5
ATOM      5  C   UNL     1       8.290  -3.703  25.559  0.00  0.00    +0.162 C 
ATOM      6  N   UNL     1       6.965  -3.290  26.044  0.00  0.00    -0.290 N 
ATOM      7  C   UNL     1       6.665  -2.110  26.699  0.00  0.00    +0.216 C 
ATOM      8  O   UNL     1       5.579  -1.949  27.255  0.00  0.00    -0.276 OA
ATOM      9  C   UNL     1       6.048  -4.416  26.118  0.00  0.00    +0.108 C 
ATOM     10  C   UNL     1       6.761  -5.560  25.417  0.00  0.00    +0.021 C 
ATOM     11  C   UNL     1       8.237  -5.231  25.608  0.00  0.00    +0.033 C 
BRANCH   7  12
ATOM     12  C   UNL     1       7.725  -1.017  26.666  0.00  0.00    +0.096 C 
BRANCH  12  13
ATOM     13  C   UNL     1       7.136   0.357  26.326  0.00  0.00    +0.012 C 
BRANCH  13  14
ATOM     14  C   UNL     1       7.396   0.802  24.874  0.00  0.00    -0.017 C 
ATOM     15  C   UNL     1       7.095   2.296  24.726  0.00  0.00    +0.007 C 
ATOM     16  C   UNL     1       6.564   0.011  23.863  0.00  0.00    +0.007 C 
ENDBRANCH  13  14
ENDBRANCH  12  13
ENDBRANCH   7  12
ENDBRANCH   1   5
BRANCH   2  17
ATOM     17  C   UNL     1      10.190  -1.885  22.757  0.00  0.00    +0.139 C 
BRANCH  17  18
ATOM     18  C   UNL     1      10.238  -0.381  22.900  0.00  0.00    -0.030 A 
ATOM     19  C   UNL     1      10.782   0.206  24.052  0.00  0.00    +0.006 A 
ATOM     20  C   UNL     1      10.878   1.597  24.174  0.00  0.00    +0.016 A 
ATOM     21  C   UNL     1      10.433   2.423  23.138  0.00  0.00    +0.065 A 
ATOM     22  C   UNL     1       9.860   1.848  21.997  0.00  0.00    +0.016 A 
ATOM     23  C   UNL     1       9.771   0.456  21.876  0.00  0.00    +0.006 A 
BRANCH  21  24
ATOM     24  C   UNL     1      10.588   3.902  23.249  0.00  0.00    +0.308 C 
ATOM     25  N   UNL     1       9.583   4.706  23.394  0.00  0.00    -0.099 NA
ATOM     26  H   UNL     1       8.693   4.201  23.368  0.00  0.00    +0.363 HD
ATOM     27  N   UNL     1      11.820   4.482  23.192  0.00  0.00    -0.247 N 
ATOM     28  H   UNL     1      11.776   5.457  23.480  0.00  0.00    +0.288 HD
ATOM     29  H   UNL     1      12.571   3.977  23.642  0.00  0.00    +0.288 HD
ENDBRANCH  21  24
ENDBRANCH  17  18
ENDBRANCH   2  17
TORSDOF 7
ENDMDL
MODEL 5
REMARK VINA RESULT:      -6.3      2.693      4.464
REMARK  Name = 
REMARK  9 active torsions:
REMARK  status: ('A' for Active; 'I' for Inactive)
REMARK    1  A    between atoms: C_2  and  C_14
REMARK    2  A    between atoms: C_7  and  C_9
REMARK    3  A    between atoms: C_9  and  C_10
REMARK    4  A    between atoms: C_10  and  C_11
REMARK    5  A    between atoms: C_11  and  C_12
REMARK    6  A    between atoms: C_11  and  C_13
REMARK    7  A    between atoms: N_16  and  C_17
REMARK    8  A    between atoms: C_17  and  C_18
REMARK    9  A    between atoms: C_21  and  C_24
REMARK                            x       y       z     vdW  Elec       q    Type
REMARK                         _______ _______ _______ _____ _____    ______ ____
ROOT
ATOM      1  C   UNL     1       7.429  -4.800  25.986  0.00  0.00    +0.234 C 
ATOM      2  N   UNL     1       7.856  -3.709  25.263  0.00  0.00    -0.310 N 
ATOM      3  H   UNL     1       7.204  -2.950  25.112  0.00  0.00    +0.149 HD
ATOM      4  O   UNL     1       8.161  -5.754  26.249  0.00  0.00    -0.274 OA
ENDROOT
BRANCH   1   5
ATOM      5  C   UNL     1       5.920  -4.840  26.306  0.00  0.00    +0.162 C 
ATOM      6  N   UNL     1       5.290  -6.139  26.035  0.00  0.00    -0.290 N 
ATOM      7  C   UNL     1       4.749  -6.552  24.831  0.00  0.00    +0.216 C 
ATOM      8  O   UNL     1       4.056  -7.566  24.759  0.00  0.00    -0.276 OA
ATOM      9  C   UNL     1       4.934  -6.828  27.266  0.00  0.00    +0.108 C 
ATOM     10  C   UNL     1       5.589  -6.025  28.377  0.00  0.00    +0.021 C 
ATOM     11  C   UNL     1       5.672  -4.617  27.800  0.00  0.00    +0.033 C 
BRANCH   7  12
ATOM     12  C   UNL     1       5.083  -5.713  23.605  0.00  0.00    +0.096 C 
BRANCH  12  13
ATOM     13  C   UNL     1       6.383  -6.161  22.928  0.00  0.00    +0.012 C 
BRANCH  13  14
ATOM     14  C   UNL     1       6.788  -5.290  21.722  0.00  0.00    -0.017 C 
ATOM     15  C   UNL     1       6.421  -3.828  21.989  0.00  0.00    +0.007 C 
ATOM     16  C   UNL     1       6.131  -5.752  20.421  0.00  0.00    +0.007 C 
ENDBRANCH  13  14
ENDBRANCH  12  13
ENDBRANCH   7  12
ENDBRANCH   1   5
BRANCH   2  17
ATOM     17  C   UNL     1       9.208  -3.588  24.762  0.00  0.00    +0.139 C 
BRANCH  17  18
ATOM     18  C   UNL     1       9.500  -2.194  24.257  0.00  0.00    -0.030 A 
ATOM     19  C   UNL     1       9.871  -1.986  22.920  0.00  0.00    +0.006 A 
ATOM     20  C   UNL     1      10.096  -0.696  22.427  0.00  0.00    +0.016 A 
ATOM     21  C   UNL     1       9.946   0.411  23.268  0.00  0.00    +0.065 A 
ATOM     22  C   UNL     1       9.605   0.213  24.612  0.00  0.00    +0.016 A 
ATOM     23  C   UNL     1       9.376  -1.079  25.100  0.00  0.00    +0.006 A 
BRANCH  21  24
ATOM     24  C   UNL     1      10.131   1.787  22.724  0.00  0.00    +0.308 C 
ATOM     25  N   UNL     1       9.806   2.114  21.513  0.00  0.00    -0.099 NA
ATOM     26  H   UNL     1       9.466   1.306  20.985  0.00  0.00    +0.363 HD
ATOM     27  N   UNL     1      10.667   2.776  23.492  0.00  0.00    -0.247 N 
ATOM     28  H   UNL     1      10.542   3.685  23.053  0.00  0.00    +0.288 HD
ATOM     29  H   UNL     1      10.404   2.776  24.468  0.00  0.00    +0.288 HD
ENDBRANCH  21  24
ENDBRANCH  17  18
ENDBRANCH   2  17
TORSDOF 7
ENDMDL
MODEL 6
REMARK VINA RESULT:      -6.2      1.939      3.592
REMARK  Name = 
REMARK  9 active torsions:
REMARK  status: ('A' for Active; 'I' for Inactive)
REMARK    1  A    between atoms: C_2  and  C_14
REMARK    2  A    between atoms: C_7  and  C_9
REMARK    3  A    between atoms: C_9  and  C_10
REMARK    4  A    between atoms: C_10  and  C_11
REMARK    5  A    between atoms: C_11  and  C_12
REMARK    6  A    between atoms: C_11  and  C_13
REMARK    7  A    between atoms: N_16  and  C_17
REMARK    8  A    between atoms: C_17  and  C_18
REMARK    9  A    between atoms: C_21  and  C_24
REMARK                            x       y       z     vdW  Elec       q    Type
REMARK                         _______ _______ _______ _____ _____    ______ ____
ROOT
ATOM      1  C   UNL     1       6.329  -2.494  25.961  0.00  0.00    +0.234 C 
ATOM      2  N   UNL     1       7.511  -2.055  26.516  0.00  0.00    -0.310 N 
ATOM      3  H   UNL     1       8.296  -2.693  26.535  0.00  0.00    +0.149 HD
ATOM      4  O   UNL     1       5.333  -1.780  25.861  0.00  0.00    -0.274 OA
ENDROOT
BRANCH   1   5
ATOM      5  C   UNL     1       6.270  -3.999  25.622  0.00  0.00    +0.162 C 
ATOM      6  N   UNL     1       7.580  -4.664  25.644  0.00  0.00    -0.290 N 
ATOM      7  C   UNL     1       8.468  -4.758  24.587  0.00  0.00    +0.216 C 
ATOM      8  O   UNL     1       9.438  -5.514  24.637  0.00  0.00    -0.276 OA
ATOM      9  C   UNL     1       7.706  -5.561  26.781  0.00  0.00    +0.108 C 
ATOM     10  C   UNL     1       6.499  -5.270  27.656  0.00  0.00    +0.021 C 
ATOM     11  C   UNL     1       5.455  -4.763  26.668  0.00  0.00    +0.033 C 
BRANCH   7  12
ATOM     12  C   UNL     1       8.204  -3.860  23.387  0.00  0.00    +0.096 C 
BRANCH  12  13
ATOM     13  C   UNL     1       9.128  -2.636  23.359  0.00  0.00    +0.012 C 
BRANCH  13  14
ATOM     14  C   UNL     1       8.476  -1.378  22.754  0.00  0.00    -0.017 C 
ATOM     15  C   UNL     1       6.966  -1.592  22.610  0.00  0.00    +0.007 C 
ATOM     16  C   UNL     1       9.070  -1.008  21.394  0.00  0.00    +0.007 C 
ENDBRANCH  13  14
ENDBRANCH  12  13
ENDBRANCH   7  12
ENDBRANCH   1   5
BRANCH   2  17
ATOM     17  C   UNL     1       7.681  -0.710  27.018  0.00  0.00    +0.139 C 
BRANCH  17  18
ATOM     18  C   UNL     1       8.372   0.184  26.014  0.00  0.00    -0.030 A 
ATOM     19  C   UNL     1       9.724  -0.016  25.697  0.00  0.00    +0.006 A 
ATOM     20  C   UNL     1      10.363   0.772  24.734  0.00  0.00    +0.016 A 
ATOM     21  C   UNL     1       9.651   1.774  24.066  0.00  0.00    +0.065 A 
ATOM     22  C   UNL     1       8.310   2.002  24.396  0.00  0.00    +0.016 A 
ATOM     23  C   UNL     1       7.674   1.208  25.357  0.00  0.00    +0.006 A 
BRANCH  21  24
ATOM     24  C   UNL     1      10.320   2.574  22.999  0.00  0.00    +0.308 C 
ATOM     25  N   UNL     1      11.038   3.622  23.253  0.00  0.00    -0.099 NA
ATOM     26  H   UNL     1      11.036   3.845  24.252  0.00  0.00    +0.363 HD
ATOM     27  N   UNL     1      10.194   2.233  21.687  0.00  0.00    -0.247 N 
ATOM     28  H   UNL     1      10.860   2.745  21.113  0.00  0.00    +0.288 HD
ATOM     29  H   UNL     1      10.184   1.243  21.482  0.00  0.00    +0.288 HD
ENDBRANCH  21  24
ENDBRANCH  17  18
ENDBRANCH   2  17
TORSDOF 7
ENDMDL
MODEL 7
REMARK VINA RESULT:      -6.2      1.805      3.484
REMARK  Name = 
REMARK  9 active torsions:
REMARK  status: ('A' for Active; 'I' for Inactive)
REMARK    1  A    between atoms: C_2  and  C_14
REMARK    2  A    between atoms: C_7  and  C_9
REMARK    3  A    between atoms: C_9  and  C_10
REMARK    4  A    between atoms: C_10  and  C_11
REMARK    5  A    between atoms: C_11  and  C_12
REMARK    6  A    between atoms: C_11  and  C_13
REMARK    7  A    between atoms: N_16  and  C_17
REMARK    8  A    between atoms: C_17  and  C_18
REMARK    9  A    between atoms: C_21  and  C_24
REMARK                            x       y       z     vdW  Elec       q    Type
REMARK                         _______ _______ _______ _____ _____    ______ ____
ROOT
ATOM      1  C   UNL     1       8.357  -4.433  24.123  0.00  0.00    +0.234 C 
ATOM      2  N   UNL     1       8.614  -3.108  23.850  0.00  0.00    -0.310 N 
ATOM      3  H   UNL     1       7.826  -2.482  23.732  0.00  0.00    +0.149 HD
ATOM      4  O   UNL     1       9.248  -5.259  24.315  0.00  0.00    -0.274 OA
ENDROOT
BRANCH   1   5
ATOM      5  C   UNL     1       6.879  -4.864  24.004  0.00  0.00    +0.162 C 
ATOM      6  N   UNL     1       5.937  -3.739  23.928  0.00  0.00    -0.290 N 
ATOM      7  C   UNL     1       5.358  -3.084  24.999  0.00  0.00    +0.216 C 
ATOM      8  O   UNL     1       4.422  -2.300  24.835  0.00  0.00    -0.276 OA
ATOM      9  C   UNL     1       5.359  -3.615  22.600  0.00  0.00    +0.108 C 
ATOM     10  C   UNL     1       6.157  -4.567  21.725  0.00  0.00    +0.021 C 
ATOM     11  C   UNL     1       6.638  -5.633  22.703  0.00  0.00    +0.033 C 
BRANCH   7  12
ATOM     12  C   UNL     1       5.955  -3.352  26.374  0.00  0.00    +0.096 C 
BRANCH  12  13
ATOM     13  C   UNL     1       5.010  -4.156  27.274  0.00  0.00    +0.012 C 
BRANCH  13  14
ATOM     14  C   UNL     1       5.524  -5.569  27.610  0.00  0.00    -0.017 C 
ATOM     15  C   UNL     1       7.052  -5.604  27.517  0.00  0.00    +0.007 C 
ATOM     16  C   UNL     1       4.932  -6.640  26.693  0.00  0.00    +0.007 C 
ENDBRANCH  13  14
ENDBRANCH  12  13
ENDBRANCH   7  12
ENDBRANCH   1   5
BRANCH   2  17
ATOM     17  C   UNL     1       9.956  -2.574  23.779  0.00  0.00    +0.139 C 
BRANCH  17  18
ATOM     18  C   UNL     1       9.959  -1.071  23.619  0.00  0.00    -0.030 A 
ATOM     19  C   UNL     1       9.972  -0.237  24.747  0.00  0.00    +0.006 A 
ATOM     20  C   UNL     1      10.024   1.155  24.613  0.00  0.00    +0.016 A 
ATOM     21  C   UNL     1      10.071   1.734  23.341  0.00  0.00    +0.065 A 
ATOM     22  C   UNL     1      10.028   0.912  22.208  0.00  0.00    +0.016 A 
ATOM     23  C   UNL     1       9.980  -0.480  22.347  0.00  0.00    +0.006 A 
BRANCH  21  24
ATOM     24  C   UNL     1      10.184   3.215  23.203  0.00  0.00    +0.308 C 
ATOM     25  N   UNL     1      11.322   3.834  23.184  0.00  0.00    -0.099 NA
ATOM     26  H   UNL     1      12.103   3.188  23.326  0.00  0.00    +0.363 HD
ATOM     27  N   UNL     1       9.072   3.994  23.098  0.00  0.00    -0.247 N 
ATOM     28  H   UNL     1       9.317   4.940  22.813  0.00  0.00    +0.288 HD
ATOM     29  H   UNL     1       8.308   3.611  22.558  0.00  0.00    +0.288 HD
ENDBRANCH  21  24
ENDBRANCH  17  18
ENDBRANCH   2  17
TORSDOF 7
ENDMDL
MODEL 8
REMARK VINA RESULT:      -6.1      2.529      7.590
REMARK  Name = 
REMARK  9 active torsions:
REMARK  status: ('A' for Active; 'I' for Inactive)
REMARK    1  A    between atoms: C_2  and  C_14
REMARK    2  A    between atoms: C_7  and  C_9
REMARK    3  A    between atoms: C_9  and  C_10
REMARK    4  A    between atoms: C_10  and  C_11
REMARK    5  A    between atoms: C_11  and  C_12
REMARK    6  A    between atoms: C_11  and  C_13
REMARK    7  A    between atoms: N_16  and  C_17
REMARK    8  A    between atoms: C_17  and  C_18
REMARK    9  A    between atoms: C_21  and  C_24
REMARK                            x       y       z     vdW  Elec       q    Type
REMARK                         _______ _______ _______ _____ _____    ______ ____
ROOT
ATOM      1  C   UNL     1       7.141  -1.466  22.556  0.00  0.00    +0.234 C 
ATOM      2  N   UNL     1       5.873  -1.979  22.711  0.00  0.00    -0.310 N 
ATOM      3  H   UNL     1       5.165  -1.388  23.130  0.00  0.00    +0.149 HD
ATOM      4  O   UNL     1       8.056  -2.095  22.027  0.00  0.00    -0.274 OA
ENDROOT
BRANCH   1   5
ATOM      5  C   UNL     1       7.399  -0.107  23.243  0.00  0.00    +0.162 C 
ATOM      6  N   UNL     1       8.731   0.005  23.854  0.00  0.00    -0.290 N 
ATOM      7  C   UNL     1       9.078  -0.379  25.136  0.00  0.00    +0.216 C 
ATOM      8  O   UNL     1      10.157  -0.050  25.629  0.00  0.00    -0.276 OA
ATOM      9  C   UNL     1       9.583   0.922  23.114  0.00  0.00    +0.108 C 
ATOM     10  C   UNL     1       8.827   1.225  21.831  0.00  0.00    +0.021 C 
ATOM     11  C   UNL     1       7.367   1.034  22.224  0.00  0.00    +0.033 C 
BRANCH   7  12
ATOM     12  C   UNL     1       8.081  -1.253  25.885  0.00  0.00    +0.096 C 
BRANCH  12  13
ATOM     13  C   UNL     1       8.688  -2.591  26.320  0.00  0.00    +0.012 C 
BRANCH  13  14
ATOM     14  C   UNL     1       7.970  -3.821  25.729  0.00  0.00    -0.017 C 
ATOM     15  C   UNL     1       7.830  -4.906  26.800  0.00  0.00    +0.007 C 
ATOM     16  C   UNL     1       8.699  -4.394  24.513  0.00  0.00    +0.007 C 
ENDBRANCH  13  14
ENDBRANCH  12  13
ENDBRANCH   7  12
ENDBRANCH   1   5
BRANCH   2  17
ATOM     17  C   UNL     1       5.508  -3.301  22.252  0.00  0.00    +0.139 C 
BRANCH  17  18
ATOM     18  C   UNL     1       5.112  -4.207  23.395  0.00  0.00    -0.030 A 
ATOM     19  C   UNL     1       5.347  -5.588  23.321  0.00  0.00    +0.006 A 
ATOM     20  C   UNL     1       5.032  -6.431  24.392  0.00  0.00    +0.016 A 
ATOM     21  C   UNL     1       4.480  -5.899  25.562  0.00  0.00    +0.065 A 
ATOM     22  C   UNL     1       4.214  -4.526  25.635  0.00  0.00    +0.016 A 
ATOM     23  C   UNL     1       4.535  -3.686  24.563  0.00  0.00    +0.006 A 
BRANCH  21  24
ATOM     24  C   UNL     1       4.197  -6.792  26.722  0.00  0.00    +0.308 C 
ATOM     25  N   UNL     1       5.121  -7.206  27.532  0.00  0.00    -0.099 NA
ATOM     26  H   UNL     1       6.047  -6.885  27.239  0.00  0.00    +0.363 HD
ATOM     27  N   UNL     1       2.932  -7.226  26.979  0.00  0.00    -0.247 N 
ATOM     28  H   UNL     1       2.875  -7.652  27.902  0.00  0.00    +0.288 HD
ATOM     29  H   UNL     1       2.190  -6.561  26.811  0.00  0.00    +0.288 HD
ENDBRANCH  21  24
ENDBRANCH  17  18
ENDBRANCH   2  17
TORSDOF 7
ENDMDL
MODEL 9
REMARK VINA RESULT:      -5.9      2.339      7.696
REMARK  Name = 
REMARK  9 active torsions:
REMARK  status: ('A' for Active; 'I' for Inactive)
REMARK    1  A    between atoms: C_2  and  C_14
REMARK    2  A    between atoms: C_7  and  C_9
REMARK    3  A    between atoms: C_9  and  C_10
REMARK    4  A    between atoms: C_10  and  C_11
REMARK    5  A    between atoms: C_11  and  C_12
REMARK    6  A    between atoms: C_11  and  C_13
REMARK    7  A    between atoms: N_16  and  C_17
REMARK    8  A    between atoms: C_17  and  C_18
REMARK    9  A    between atoms: C_21  and  C_24
REMARK                            x       y       z     vdW  Elec       q    Type
REMARK                         _______ _______ _______ _____ _____    ______ ____
ROOT
ATOM      1  C   UNL     1       7.316   0.162  24.504  0.00  0.00    +0.234 C 
ATOM      2  N   UNL     1       6.786  -0.504  25.586  0.00  0.00    -0.310 N 
ATOM      3  H   UNL     1       7.397  -0.713  26.366  0.00  0.00    +0.149 HD
ATOM      4  O   UNL     1       6.644   0.488  23.527  0.00  0.00    -0.274 OA
ENDROOT
BRANCH   1   5
ATOM      5  C   UNL     1       8.850   0.328  24.509  0.00  0.00    +0.162 C 
ATOM      6  N   UNL     1       9.512  -0.236  23.324  0.00  0.00    -0.290 N 
ATOM      7  C   UNL     1       9.945  -1.541  23.172  0.00  0.00    +0.216 C 
ATOM      8  O   UNL     1      10.676  -1.864  22.236  0.00  0.00    -0.276 OA
ATOM      9  C   UNL     1      10.026   0.807  22.451  0.00  0.00    +0.108 C 
ATOM     10  C   UNL     1       9.451   2.104  22.995  0.00  0.00    +0.021 C 
ATOM     11  C   UNL     1       9.239   1.808  24.475  0.00  0.00    +0.033 C 
BRANCH   7  12
ATOM     12  C   UNL     1       9.446  -2.554  24.194  0.00  0.00    +0.096 C 
BRANCH  12  13
ATOM     13  C   UNL     1       8.145  -3.235  23.753  0.00  0.00    +0.012 C 
BRANCH  13  14
ATOM     14  C   UNL     1       8.196  -4.774  23.818  0.00  0.00    -0.017 C 
ATOM     15  C   UNL     1       6.872  -5.360  23.321  0.00  0.00    +0.007 C 
ATOM     16  C   UNL     1       8.485  -5.289  25.229  0.00  0.00    +0.007 C 
ENDBRANCH  13  14
ENDBRANCH  12  13
ENDBRANCH   7  12
ENDBRANCH   1   5
BRANCH   2  17
ATOM     17  C   UNL     1       5.387  -0.866  25.669  0.00  0.00    +0.139 C 
BRANCH  17  18
ATOM     18  C   UNL     1       5.201  -2.333  25.981  0.00  0.00    -0.030 A 
ATOM     19  C   UNL     1       4.319  -3.114  25.220  0.00  0.00    +0.006 A 
ATOM     20  C   UNL     1       4.174  -4.484  25.467  0.00  0.00    +0.016 A 
ATOM     21  C   UNL     1       4.919  -5.095  26.481  0.00  0.00    +0.065 A 
ATOM     22  C   UNL     1       5.780  -4.318  27.266  0.00  0.00    +0.016 A 
ATOM     23  C   UNL     1       5.925  -2.949  27.012  0.00  0.00    +0.006 A 
BRANCH  21  24
ATOM     24  C   UNL     1       4.804  -6.565  26.703  0.00  0.00    +0.308 C 
ATOM     25  N   UNL     1       5.309  -7.161  27.736  0.00  0.00    -0.099 NA
ATOM     26  H   UNL     1       5.827  -6.508  28.330  0.00  0.00    +0.363 HD
ATOM     27  N   UNL     1       4.157  -7.359  25.806  0.00  0.00    -0.247 N 
ATOM     28  H   UNL     1       3.993  -8.286  26.193  0.00  0.00    +0.288 HD
ATOM     29  H   UNL     1       3.332  -6.966  25.376  0.00  0.00    +0.288 HD
ENDBRANCH  21  24
ENDBRANCH  17  18
ENDBRANCH   2  17
TORSDOF 7
ENDMDL
