MODEL 1
REMARK VINA RESULT:      -4.6      0.000      0.000
REMARK  Name = 
REMARK  7 active torsions:
REMARK  status: ('A' for Active; 'I' for Inactive)
REMARK    1  A    between atoms: O_1  and  C_2
REMARK    2  A    between atoms: C_2  and  C_3
REMARK    3  A    between atoms: C_6  and  O_7
REMARK    4  A    between atoms: C_6  and  C_8
REMARK    5  A    between atoms: C_8  and  O_9
REMARK    6  A    between atoms: C_10  and  O_12
REMARK    7  A    between atoms: C_13  and  O_15
REMARK                            x       y       z     vdW  Elec       q    Type
REMARK                         _______ _______ _______ _____ _____    ______ ____
ROOT
ATOM      1  C   UNL     1       9.659   1.201  23.479  0.00  0.00    +0.178 C 
ATOM      2  C   UNL     1       9.907   0.905  21.997  0.00  0.00    +0.179 C 
ATOM      3  C   UNL     1       9.285  -0.473  21.759  0.00  0.00    +0.207 C 
ATOM      4  C   UNL     1       8.604  -0.817  23.099  0.00  0.00    +0.220 C 
ATOM      5  O   UNL     1       8.514   0.403  23.839  0.00  0.00    -0.336 OA
ENDROOT
BRANCH   2   6
ATOM      6  O   UNL     1       9.207   1.860  21.178  0.00  0.00    -0.386 OA
ATOM      7  H   UNL     1       9.461   1.713  20.248  0.00  0.00    +0.210 HD
ENDBRANCH   2   6
BRANCH   3   8
ATOM      8  O   UNL     1      10.283  -1.457  21.444  0.00  0.00    -0.384 OA
ATOM      9  H   UNL     1       9.920  -1.971  20.695  0.00  0.00    +0.210 HD
ENDBRANCH   3   8
BRANCH   4  10
ATOM     10  O   UNL     1       9.399  -1.771  23.823  0.00  0.00    -0.361 OA
ATOM     11  H   UNL     1      10.317  -1.436  23.757  0.00  0.00    +0.213 HD
ENDBRANCH   4  10
BRANCH   1  12
ATOM     12  C   UNL     1      10.854   0.868  24.382  0.00  0.00    +0.190 C 
BRANCH  12  13
ATOM     13  O   UNL     1      10.415   0.437  25.665  0.00  0.00    -0.392 OA
ATOM     14  H   UNL     1      10.636  -0.508  25.736  0.00  0.00    +0.210 HD
ENDBRANCH  12  13
ENDBRANCH   1  12
BRANCH   4  15
ATOM     15  C   UNL     1       7.221  -1.452  22.909  0.00  0.00    +0.223 C 
BRANCH  15  16
ATOM     16  O   UNL     1       7.321  -2.620  22.088  0.00  0.00    -0.390 OA
ATOM     17  H   UNL     1       8.126  -3.077  22.404  0.00  0.00    +0.210 HD
ENDBRANCH  15  16
ENDBRANCH   4  15
TORSDOF 7
ENDMDL
MODEL 2
REMARK VINA RESULT:      -4.6      1.699      3.839
REMARK  Name = 
REMARK  7 active torsions:
REMARK  status: ('A' for Active; 'I' for Inactive)
REMARK    1  A    between atoms: O_1  and  C_2
REMARK    2  A    between atoms: C_2  and  C_3
REMARK    3  A    between atoms: C_6  and  O_7
REMARK    4  A    between atoms: C_6  and  C_8
REMARK    5  A    between atoms: C_8  and  O_9
REMARK    6  A    between atoms: C_10  and  O_12
REMARK    7  A    between atoms: C_13  and  O_15
REMARK                            x       y       z     vdW  Elec       q    Type
REMARK                         _______ _______ _______ _____ _____    ______ ____
ROOT
ATOM      1  C   UNL     1       8.633  -0.043  23.259  0.00  0.00    +0.178 C 
ATOM      2  C   UNL     1       9.802   0.905  23.542  0.00  0.00    +0.179 C 
ATOM      3  C   UNL     1       9.499   2.164  22.726  0.00  0.00    +0.207 C 
ATOM      4  C   UNL     1       8.102   1.899  22.129  0.00  0.00    +0.220 C 
ATOM      5  O   UNL     1       7.540   0.810  22.864  0.00  0.00    -0.336 OA
ENDROOT
BRANCH   2   6
ATOM      6  O   UNL     1       9.818   1.267  24.936  0.00  0.00    -0.386 OA
ATOM      7  H   UNL     1      10.732   1.188  25.264  0.00  0.00    +0.210 HD
ENDBRANCH   2   6
BRANCH   3   8
ATOM      8  O   UNL     1      10.458   2.356  21.674  0.00  0.00    -0.384 OA
ATOM      9  H   UNL     1      10.499   1.504  21.195  0.00  0.00    +0.210 HD
ENDBRANCH   3   8
BRANCH   4  10
ATOM     10  O   UNL     1       8.221   1.542  20.741  0.00  0.00    -0.361 OA
ATOM     11  H   UNL     1       8.074   0.574  20.716  0.00  0.00    +0.213 HD
ENDBRANCH   4  10
BRANCH   1  12
ATOM     12  C   UNL     1       8.931  -1.077  22.165  0.00  0.00    +0.190 C 
BRANCH  12  13
ATOM     13  O   UNL     1      10.116  -0.737  21.455  0.00  0.00    -0.392 OA
ATOM     14  H   UNL     1       9.862  -0.094  20.772  0.00  0.00    +0.210 HD
ENDBRANCH  12  13
ENDBRANCH   1  12
BRANCH   4  15
ATOM     15  C   UNL     1       7.195   3.134  22.188  0.00  0.00    +0.223 C 
BRANCH  15  16
ATOM     16  O   UNL     1       7.979   4.329  22.123  0.00  0.00    -0.390 OA
ATOM     17  H   UNL     1       7.630   4.894  22.842  0.00  0.00    +0.210 HD
ENDBRANCH  15  16
ENDBRANCH   4  15
TORSDOF 7
ENDMDL
MODEL 3
REMARK VINA RESULT:      -4.3      1.294      3.753
REMARK  Name = 
REMARK  7 active torsions:
REMARK  status: ('A' for Active; 'I' for Inactive)
REMARK    1  A    between atoms: O_1  and  C_2
REMARK    2  A    between atoms: C_2  and  C_3
REMARK    3  A    between atoms: C_6  and  O_7
REMARK    4  A    between atoms: C_6  and  C_8
REMARK    5  A    between atoms: C_8  and  O_9
REMARK    6  A    between atoms: C_10  and  O_12
REMARK    7  A    between atoms: C_13  and  O_15
REMARK                            x       y       z     vdW  Elec       q    Type
REMARK                         _______ _______ _______ _____ _____    ______ ____
ROOT
ATOM      1  C   UNL     1       8.790  -0.937  23.397  0.00  0.00    +0.178 C 
ATOM      2  C   UNL     1       9.116  -0.705  21.919  0.00  0.00    +0.179 C 
ATOM      3  C   UNL     1       9.503   0.773  21.825  0.00  0.00    +0.207 C 
ATOM      4  C   UNL     1       9.497   1.258  23.288  0.00  0.00    +0.220 C 
ATOM      5  O   UNL     1       9.510   0.089  24.110  0.00  0.00    -0.336 OA
ENDROOT
BRANCH   2   6
ATOM      6  O   UNL     1      10.260  -1.493  21.537  0.00  0.00    -0.386 OA
ATOM      7  H   UNL     1      10.790  -1.674  22.334  0.00  0.00    +0.210 HD
ENDBRANCH   2   6
BRANCH   3   8
ATOM      8  O   UNL     1       8.552   1.520  21.052  0.00  0.00    -0.384 OA
ATOM      9  H   UNL     1       8.978   2.382  20.871  0.00  0.00    +0.210 HD
ENDBRANCH   3   8
BRANCH   4  10
ATOM     10  O   UNL     1       8.308   2.024  23.547  0.00  0.00    -0.361 OA
ATOM     11  H   UNL     1       8.271   2.112  24.521  0.00  0.00    +0.213 HD
ENDBRANCH   4  10
BRANCH   1  12
ATOM     12  C   UNL     1       7.291  -0.862  23.716  0.00  0.00    +0.190 C 
BRANCH  12  13
ATOM     13  O   UNL     1       6.574  -0.268  22.640  0.00  0.00    -0.392 OA
ATOM     14  H   UNL     1       6.587  -0.905  21.905  0.00  0.00    +0.210 HD
ENDBRANCH  12  13
ENDBRANCH   1  12
BRANCH   4  15
ATOM     15  C   UNL     1      10.685   2.173  23.609  0.00  0.00    +0.223 C 
BRANCH  15  16
ATOM     16  O   UNL     1      10.804   3.198  22.617  0.00  0.00    -0.390 OA
ATOM     17  H   UNL     1      10.871   4.030  23.128  0.00  0.00    +0.210 HD
ENDBRANCH  15  16
ENDBRANCH   4  15
TORSDOF 7
ENDMDL
MODEL 4
REMARK VINA RESULT:      -4.3      1.583      2.388
REMARK  Name = 
REMARK  7 active torsions:
REMARK  status: ('A' for Active; 'I' for Inactive)
REMARK    1  A    between atoms: O_1  and  C_2
REMARK    2  A    between atoms: C_2  and  C_3
REMARK    3  A    between atoms: C_6  and  O_7
REMARK    4  A    between atoms: C_6  and  C_8
REMARK    5  A    between atoms: C_8  and  O_9
REMARK    6  A    between atoms: C_10  and  O_12
REMARK    7  A    between atoms: C_13  and  O_15
REMARK                            x       y       z     vdW  Elec       q    Type
REMARK                         _______ _______ _______ _____ _____    ______ ____
ROOT
ATOM      1  C   UNL     1       8.523   1.573  23.423  0.00  0.00    +0.178 C 
ATOM      2  C   UNL     1       7.906   0.746  22.291  0.00  0.00    +0.179 C 
ATOM      3  C   UNL     1       8.611  -0.611  22.361  0.00  0.00    +0.207 C 
ATOM      4  C   UNL     1       9.497  -0.511  23.619  0.00  0.00    +0.220 C 
ATOM      5  O   UNL     1       9.020   0.608  24.370  0.00  0.00    -0.336 OA
ENDROOT
BRANCH   2   6
ATOM      6  O   UNL     1       6.503   0.536  22.541  0.00  0.00    -0.386 OA
ATOM      7  H   UNL     1       6.360   0.529  23.505  0.00  0.00    +0.210 HD
ENDBRANCH   2   6
BRANCH   3   8
ATOM      8  O   UNL     1       9.423  -0.845  21.201  0.00  0.00    -0.384 OA
ATOM      9  H   UNL     1       9.924  -1.665  21.390  0.00  0.00    +0.210 HD
ENDBRANCH   3   8
BRANCH   4  10
ATOM     10  O   UNL     1      10.867  -0.296  23.238  0.00  0.00    -0.361 OA
ATOM     11  H   UNL     1      11.143   0.505  23.730  0.00  0.00    +0.213 HD
ENDBRANCH   4  10
BRANCH   1  12
ATOM     12  C   UNL     1       9.652   2.504  22.959  0.00  0.00    +0.190 C 
BRANCH  12  13
ATOM     13  O   UNL     1      10.036   2.207  21.622  0.00  0.00    -0.392 OA
ATOM     14  H   UNL     1       9.363   1.605  21.262  0.00  0.00    +0.210 HD
ENDBRANCH  12  13
ENDBRANCH   1  12
BRANCH   4  15
ATOM     15  C   UNL     1       9.472  -1.794  24.459  0.00  0.00    +0.223 C 
BRANCH  15  16
ATOM     16  O   UNL     1      10.050  -2.878  23.726  0.00  0.00    -0.390 OA
ATOM     17  H   UNL     1      10.491  -2.454  22.963  0.00  0.00    +0.210 HD
ENDBRANCH  15  16
ENDBRANCH   4  15
TORSDOF 7
ENDMDL
MODEL 5
REMARK VINA RESULT:      -4.3      1.566      2.335
REMARK  Name = 
REMARK  7 active torsions:
REMARK  status: ('A' for Active; 'I' for Inactive)
REMARK    1  A    between atoms: O_1  and  C_2
REMARK    2  A    between atoms: C_2  and  C_3
REMARK    3  A    between atoms: C_6  and  O_7
REMARK    4  A    between atoms: C_6  and  C_8
REMARK    5  A    between atoms: C_8  and  O_9
REMARK    6  A    between atoms: C_10  and  O_12
REMARK    7  A    between atoms: C_13  and  O_15
REMARK                            x       y       z     vdW  Elec       q    Type
REMARK                         _______ _______ _______ _____ _____    ______ ____
ROOT
ATOM      1  C   UNL     1       8.308   1.496  23.085  0.00  0.00    +0.178 C 
ATOM      2  C   UNL     1       9.791   1.870  23.010  0.00  0.00    +0.179 C 
ATOM      3  C   UNL     1      10.542   0.588  23.379  0.00  0.00    +0.207 C 
ATOM      4  C   UNL     1       9.432  -0.473  23.515  0.00  0.00    +0.220 C 
ATOM      5  O   UNL     1       8.265   0.069  22.892  0.00  0.00    -0.336 OA
ENDROOT
BRANCH   2   6
ATOM      6  O   UNL     1      10.144   2.222  21.658  0.00  0.00    -0.386 OA
ATOM      7  H   UNL     1      10.529   3.117  21.664  0.00  0.00    +0.210 HD
ENDBRANCH   2   6
BRANCH   3   8
ATOM      8  O   UNL     1      11.248   0.728  24.621  0.00  0.00    -0.384 OA
ATOM      9  H   UNL     1      10.916   0.009  25.196  0.00  0.00    +0.210 HD
ENDBRANCH   3   8
BRANCH   4  10
ATOM     10  O   UNL     1       9.169  -0.732  24.905  0.00  0.00    -0.361 OA
ATOM     11  H   UNL     1       8.440  -1.387  24.906  0.00  0.00    +0.213 HD
ENDBRANCH   4  10
BRANCH   1  12
ATOM     12  C   UNL     1       7.643   1.880  24.414  0.00  0.00    +0.190 C 
BRANCH  12  13
ATOM     13  O   UNL     1       8.620   2.261  25.377  0.00  0.00    -0.392 OA
ATOM     14  H   UNL     1       9.378   1.663  25.262  0.00  0.00    +0.210 HD
ENDBRANCH  12  13
ENDBRANCH   1  12
BRANCH   4  15
ATOM     15  C   UNL     1       9.823  -1.816  22.886  0.00  0.00    +0.223 C 
BRANCH  15  16
ATOM     16  O   UNL     1      10.236  -1.626  21.529  0.00  0.00    -0.390 OA
ATOM     17  H   UNL     1       9.923  -0.727  21.298  0.00  0.00    +0.210 HD
ENDBRANCH  15  16
ENDBRANCH   4  15
TORSDOF 7
ENDMDL
MODEL 6
REMARK VINA RESULT:      -4.3      3.707      5.152
REMARK  Name = 
REMARK  7 active torsions:
REMARK  status: ('A' for Active; 'I' for Inactive)
REMARK    1  A    between atoms: O_1  and  C_2
REMARK    2  A    between atoms: C_2  and  C_3
REMARK    3  A    between atoms: C_6  and  O_7
REMARK    4  A    between atoms: C_6  and  C_8
REMARK    5  A    between atoms: C_8  and  O_9
REMARK    6  A    between atoms: C_10  and  O_12
REMARK    7  A    between atoms: C_13  and  O_15
REMARK                            x       y       z     vdW  Elec       q    Type
REMARK                         _______ _______ _______ _____ _____    ______ ____
ROOT
ATOM      1  C   UNL     1       7.849  -2.917  24.152  0.00  0.00    +0.178 C 
ATOM      2  C   UNL     1       8.052  -4.323  23.581  0.00  0.00    +0.179 C 
ATOM      3  C   UNL     1       8.220  -5.227  24.805  0.00  0.00    +0.207 C 
ATOM      4  C   UNL     1       7.972  -4.290  26.004  0.00  0.00    +0.220 C 
ATOM      5  O   UNL     1       7.339  -3.118  25.485  0.00  0.00    -0.336 OA
ENDROOT
BRANCH   2   6
ATOM      6  O   UNL     1       6.871  -4.744  22.873  0.00  0.00    -0.386 OA
ATOM      7  H   UNL     1       6.940  -4.439  21.949  0.00  0.00    +0.210 HD
ENDBRANCH   2   6
BRANCH   3   8
ATOM      8  O   UNL     1       9.544  -5.780  24.875  0.00  0.00    -0.384 OA
ATOM      9  H   UNL     1       9.427  -6.710  25.156  0.00  0.00    +0.210 HD
ENDBRANCH   3   8
BRANCH   4  10
ATOM     10  O   UNL     1       9.222  -3.939  26.620  0.00  0.00    -0.361 OA
ATOM     11  H   UNL     1       9.903  -4.411  26.097  0.00  0.00    +0.213 HD
ENDBRANCH   4  10
BRANCH   1  12
ATOM     12  C   UNL     1       9.133  -2.076  24.188  0.00  0.00    +0.190 C 
BRANCH  12  13
ATOM     13  O   UNL     1      10.264  -2.865  23.839  0.00  0.00    -0.392 OA
ATOM     14  H   UNL     1       9.941  -3.768  23.681  0.00  0.00    +0.210 HD
ENDBRANCH  12  13
ENDBRANCH   1  12
BRANCH   4  15
ATOM     15  C   UNL     1       7.115  -4.946  27.093  0.00  0.00    +0.223 C 
BRANCH  15  16
ATOM     16  O   UNL     1       7.791  -6.083  27.639  0.00  0.00    -0.390 OA
ATOM     17  H   UNL     1       7.074  -6.681  27.931  0.00  0.00    +0.210 HD
ENDBRANCH  15  16
ENDBRANCH   4  15
TORSDOF 7
ENDMDL
MODEL 7
REMARK VINA RESULT:      -4.2      1.453      3.445
REMARK  Name = 
REMARK  7 active torsions:
REMARK  status: ('A' for Active; 'I' for Inactive)
REMARK    1  A    between atoms: O_1  and  C_2
REMARK    2  A    between atoms: C_2  and  C_3
REMARK    3  A    between atoms: C_6  and  O_7
REMARK    4  A    between atoms: C_6  and  C_8
REMARK    5  A    between atoms: C_8  and  O_9
REMARK    6  A    between atoms: C_10  and  O_12
REMARK    7  A    between atoms: C_13  and  O_15
REMARK                            x       y       z     vdW  Elec       q    Type
REMARK                         _______ _______ _______ _____ _____    ______ ____
ROOT
ATOM      1  C   UNL     1       8.068  -1.576  23.723  0.00  0.00    +0.178 C 
ATOM      2  C   UNL     1       8.901  -0.665  24.629  0.00  0.00    +0.179 C 
ATOM      3  C   UNL     1       9.612   0.299  23.676  0.00  0.00    +0.207 C 
ATOM      4  C   UNL     1       9.033  -0.046  22.289  0.00  0.00    +0.220 C 
ATOM      5  O   UNL     1       7.852  -0.819  22.517  0.00  0.00    -0.336 OA
ENDROOT
BRANCH   2   6
ATOM      6  O   UNL     1       8.034   0.107  25.482  0.00  0.00    -0.386 OA
ATOM      7  H   UNL     1       7.916   0.989  25.085  0.00  0.00    +0.210 HD
ENDBRANCH   2   6
BRANCH   3   8
ATOM      8  O   UNL     1      11.033   0.098  23.683  0.00  0.00    -0.384 OA
ATOM      9  H   UNL     1      11.392   0.719  23.018  0.00  0.00    +0.210 HD
ENDBRANCH   3   8
BRANCH   4  10
ATOM     10  O   UNL     1       9.986  -0.819  21.539  0.00  0.00    -0.361 OA
ATOM     11  H   UNL     1      10.427  -0.173  20.950  0.00  0.00    +0.213 HD
ENDBRANCH   4  10
BRANCH   1  12
ATOM     12  C   UNL     1       8.750  -2.914  23.404  0.00  0.00    +0.190 C 
BRANCH  12  13
ATOM     13  O   UNL     1      10.107  -2.906  23.832  0.00  0.00    -0.392 OA
ATOM     14  H   UNL     1      10.234  -2.094  24.352  0.00  0.00    +0.210 HD
ENDBRANCH  12  13
ENDBRANCH   1  12
BRANCH   4  15
ATOM     15  C   UNL     1       8.726   1.202  21.453  0.00  0.00    +0.223 C 
BRANCH  15  16
ATOM     16  O   UNL     1       9.838   2.103  21.480  0.00  0.00    -0.390 OA
ATOM     17  H   UNL     1       9.773   2.602  20.641  0.00  0.00    +0.210 HD
ENDBRANCH  15  16
ENDBRANCH   4  15
TORSDOF 7
ENDMDL
MODEL 8
REMARK VINA RESULT:      -4.2      2.434      4.753
REMARK  Name = 
REMARK  7 active torsions:
REMARK  status: ('A' for Active; 'I' for Inactive)
REMARK    1  A    between atoms: O_1  and  C_2
REMARK    2  A    between atoms: C_2  and  C_3
REMARK    3  A    between atoms: C_6  and  O_7
REMARK    4  A    between atoms: C_6  and  C_8
REMARK    5  A    between atoms: C_8  and  O_9
REMARK    6  A    between atoms: C_10  and  O_12
REMARK    7  A    between atoms: C_13  and  O_15
REMARK                            x       y       z     vdW  Elec       q    Type
REMARK                         _______ _______ _______ _____ _____    ______ ____
ROOT
ATOM      1  C   UNL     1       8.457   1.742  24.624  0.00  0.00    +0.178 C 
ATOM      2  C   UNL     1       9.749   1.253  23.965  0.00  0.00    +0.179 C 
ATOM      3  C   UNL     1      10.296   2.469  23.213  0.00  0.00    +0.207 C 
ATOM      4  C   UNL     1       9.339   3.614  23.603  0.00  0.00    +0.220 C 
ATOM      5  O   UNL     1       8.610   3.169  24.749  0.00  0.00    -0.336 OA
ENDROOT
BRANCH   2   6
ATOM      6  O   UNL     1      10.708   0.881  24.973  0.00  0.00    -0.386 OA
ATOM      7  H   UNL     1      10.293   0.991  25.849  0.00  0.00    +0.210 HD
ENDBRANCH   2   6
BRANCH   3   8
ATOM      8  O   UNL     1      10.272   2.267  21.792  0.00  0.00    -0.384 OA
ATOM      9  H   UNL     1      11.052   1.711  21.591  0.00  0.00    +0.210 HD
ENDBRANCH   3   8
BRANCH   4  10
ATOM     10  O   UNL     1       8.432   3.885  22.521  0.00  0.00    -0.361 OA
ATOM     11  H   UNL     1       8.053   3.014  22.285  0.00  0.00    +0.213 HD
ENDBRANCH   4  10
BRANCH   1  12
ATOM     12  C   UNL     1       7.192   1.404  23.824  0.00  0.00    +0.190 C 
BRANCH  12  13
ATOM     13  O   UNL     1       7.527   0.883  22.543  0.00  0.00    -0.392 OA
ATOM     14  H   UNL     1       7.549   1.637  21.929  0.00  0.00    +0.210 HD
ENDBRANCH  12  13
ENDBRANCH   1  12
BRANCH   4  15
ATOM     15  C   UNL     1      10.080   4.925  23.893  0.00  0.00    +0.223 C 
BRANCH  15  16
ATOM     16  O   UNL     1      11.207   5.061  23.021  0.00  0.00    -0.390 OA
ATOM     17  H   UNL     1      11.061   4.394  22.320  0.00  0.00    +0.210 HD
ENDBRANCH  15  16
ENDBRANCH   4  15
TORSDOF 7
ENDMDL
MODEL 9
REMARK VINA RESULT:      -4.2      1.350      3.743
REMARK  Name = 
REMARK  7 active torsions:
REMARK  status: ('A' for Active; 'I' for Inactive)
REMARK    1  A    between atoms: O_1  and  C_2
REMARK    2  A    between atoms: C_2  and  C_3
REMARK    3  A    between atoms: C_6  and  O_7
REMARK    4  A    between atoms: C_6  and  C_8
REMARK    5  A    between atoms: C_8  and  O_9
REMARK    6  A    between atoms: C_10  and  O_12
REMARK    7  A    between atoms: C_13  and  O_15
REMARK                            x       y       z     vdW  Elec       q    Type
REMARK                         _______ _______ _______ _____ _____    ______ ____
ROOT
ATOM      1  C   UNL     1       7.640  -1.218  23.495  0.00  0.00    +0.178 C 
ATOM      2  C   UNL     1       8.929  -1.706  24.162  0.00  0.00    +0.179 C 
ATOM      3  C   UNL     1      10.061  -1.116  23.317  0.00  0.00    +0.207 C 
ATOM      4  C   UNL     1       9.339  -0.218  22.293  0.00  0.00    +0.220 C 
ATOM      5  O   UNL     1       8.011  -0.020  22.784  0.00  0.00    -0.336 OA
ENDROOT
BRANCH   2   6
ATOM      6  O   UNL     1       9.033  -1.164  25.492  0.00  0.00    -0.386 OA
ATOM      7  H   UNL     1       8.294  -1.510  26.025  0.00  0.00    +0.210 HD
ENDBRANCH   2   6
BRANCH   3   8
ATOM      8  O   UNL     1      10.804  -2.141  22.639  0.00  0.00    -0.384 OA
ATOM      9  H   UNL     1      11.448  -2.478  23.294  0.00  0.00    +0.210 HD
ENDBRANCH   3   8
BRANCH   4  10
ATOM     10  O   UNL     1       9.295  -0.870  21.013  0.00  0.00    -0.361 OA
ATOM     11  H   UNL     1       9.656  -1.766  21.173  0.00  0.00    +0.213 HD
ENDBRANCH   4  10
BRANCH   1  12
ATOM     12  C   UNL     1       7.017  -2.242  22.537  0.00  0.00    +0.190 C 
BRANCH  12  13
ATOM     13  O   UNL     1       7.894  -3.344  22.333  0.00  0.00    -0.392 OA
ATOM     14  H   UNL     1       8.604  -3.035  21.745  0.00  0.00    +0.210 HD
ENDBRANCH  12  13
ENDBRANCH   1  12
BRANCH   4  15
ATOM     15  C   UNL     1      10.055   1.121  22.078  0.00  0.00    +0.223 C 
BRANCH  15  16
ATOM     16  O   UNL     1       9.249   1.991  21.277  0.00  0.00    -0.390 OA
ATOM     17  H   UNL     1       8.728   1.390  20.707  0.00  0.00    +0.210 HD
ENDBRANCH  15  16
ENDBRANCH   4  15
TORSDOF 7
ENDMDL
