MODEL 1
REMARK VINA RESULT:      -6.3      0.000      0.000
REMARK  Name = 
REMARK  9 active torsions:
REMARK  status: ('A' for Active; 'I' for Inactive)
REMARK    1  A    between atoms: C_2  and  O_3
REMARK    2  A    between atoms: C_2  and  C_4
REMARK    3  A    between atoms: C_2  and  C_10
REMARK    4  A    between atoms: C_4  and  O_5
REMARK    5  A    between atoms: O_5  and  P_6
REMARK    6  A    between atoms: P_6  and  O_7
REMARK    7  A    between atoms: P_6  and  O_8
REMARK    8  A    between atoms: C_10  and  O_12
REMARK    9  A    between atoms: C_10  and  C_13
REMARK                            x       y       z     vdW  Elec       q    Type
REMARK                         _______ _______ _______ _____ _____    ______ ____
ROOT
ATOM      1  C   UNL     1       9.110  -2.689  24.316  0.00  0.00    +0.177 C 
ENDROOT
BRANCH   1   2
ATOM      2  C   UNL     1       9.274  -1.646  23.241  0.00  0.00    +0.008 A 
ATOM      3  C   UNL     1       9.602  -0.258  23.419  0.00  0.00    +0.005 A 
ATOM      4  C   UNL     1       9.822   0.569  24.539  0.00  0.00    +0.010 A 
ATOM      5  C   UNL     1      10.161   1.916  24.351  0.00  0.00    +0.001 A 
ATOM      6  C   UNL     1      10.285   2.445  23.068  0.00  0.00    +0.002 A 
ATOM      7  C   UNL     1      10.066   1.649  21.943  0.00  0.00    +0.026 A 
ATOM      8  C   UNL     1       9.725   0.309  22.147  0.00  0.00    +0.047 A 
ATOM      9  N   UNL     1       9.458  -0.686  21.235  0.00  0.00    -0.360 N 
ATOM     10  H   UNL     1       9.485  -0.564  20.232  0.00  0.00    +0.165 HD
ATOM     11  C   UNL     1       9.182  -1.854  21.880  0.00  0.00    +0.090 A 
ENDBRANCH   1   2
BRANCH   1  12
ATOM     12  O   UNL     1      10.181  -3.642  24.202  0.00  0.00    -0.384 OA
ATOM     13  H   UNL     1      11.013  -3.169  24.055  0.00  0.00    +0.210 HD
ENDBRANCH   1  12
BRANCH   1  14
ATOM     14  C   UNL     1       7.740  -3.414  24.253  0.00  0.00    +0.174 C 
BRANCH  14  15
ATOM     15  O   UNL     1       7.113  -3.486  25.544  0.00  0.00    -0.387 OA
ATOM     16  H   UNL     1       6.784  -2.585  25.723  0.00  0.00    +0.210 HD
ENDBRANCH  14  15
BRANCH  14  17
ATOM     17  C   UNL     1       7.909  -4.857  23.777  0.00  0.00    +0.206 C 
BRANCH  17  18
ATOM     18  O   UNL     1       7.349  -5.018  22.467  0.00  0.00    -0.284 OA
BRANCH  18  19
ATOM     19  P   UNL     1       5.620  -5.038  22.548  0.00  0.00    +0.472 P 
ATOM     20  O   UNL     1       4.074  -5.057  22.620  0.00  0.00    -0.228 OA
BRANCH  19  21
ATOM     21  O   UNL     1       5.729  -6.328  21.545  0.00  0.00    -0.303 OA
ATOM     22  H   UNL     1       4.935  -6.867  21.721  0.00  0.00    +0.222 HD
ENDBRANCH  19  21
BRANCH  19  23
ATOM     23  O   UNL     1       5.687  -3.954  21.321  0.00  0.00    -0.303 OA
ATOM     24  H   UNL     1       5.658  -3.040  21.654  0.00  0.00    +0.222 HD
ENDBRANCH  19  23
ENDBRANCH  18  19
ENDBRANCH  17  18
ENDBRANCH  14  17
ENDBRANCH   1  14
TORSDOF 9
ENDMDL
MODEL 2
REMARK VINA RESULT:      -6.2      2.272      2.882
REMARK  Name = 
REMARK  9 active torsions:
REMARK  status: ('A' for Active; 'I' for Inactive)
REMARK    1  A    between atoms: C_2  and  O_3
REMARK    2  A    between atoms: C_2  and  C_4
REMARK    3  A    between atoms: C_2  and  C_10
REMARK    4  A    between atoms: C_4  and  O_5
REMARK    5  A    between atoms: O_5  and  P_6
REMARK    6  A    between atoms: P_6  and  O_7
REMARK    7  A    between atoms: P_6  and  O_8
REMARK    8  A    between atoms: C_10  and  O_12
REMARK    9  A    between atoms: C_10  and  C_13
REMARK                            x       y       z     vdW  Elec       q    Type
REMARK                         _______ _______ _______ _____ _____    ______ ____
ROOT
ATOM      1  C   UNL     1       9.124  -2.538  24.588  0.00  0.00    +0.177 C 
ENDROOT
BRANCH   1   2
ATOM      2  C   UNL     1       9.303  -1.593  23.428  0.00  0.00    +0.008 A 
ATOM      3  C   UNL     1       9.615  -0.192  23.489  0.00  0.00    +0.005 A 
ATOM      4  C   UNL     1       9.805   0.733  24.536  0.00  0.00    +0.010 A 
ATOM      5  C   UNL     1      10.137   2.062  24.236  0.00  0.00    +0.001 A 
ATOM      6  C   UNL     1      10.284   2.476  22.914  0.00  0.00    +0.002 A 
ATOM      7  C   UNL     1      10.096   1.582  21.860  0.00  0.00    +0.026 A 
ATOM      8  C   UNL     1       9.761   0.262  22.175  0.00  0.00    +0.047 A 
ATOM      9  N   UNL     1       9.522  -0.812  21.349  0.00  0.00    -0.360 N 
ATOM     10  H   UNL     1       9.570  -0.779  20.340  0.00  0.00    +0.165 HD
ATOM     11  C   UNL     1       9.241  -1.922  22.090  0.00  0.00    +0.090 A 
ENDBRANCH   1   2
BRANCH   1  12
ATOM     12  O   UNL     1       9.612  -3.836  24.205  0.00  0.00    -0.384 OA
ATOM     13  H   UNL     1       8.872  -4.371  23.885  0.00  0.00    +0.210 HD
ENDBRANCH   1  12
BRANCH   1  14
ATOM     14  C   UNL     1       7.651  -2.640  25.065  0.00  0.00    +0.174 C 
BRANCH  14  15
ATOM     15  O   UNL     1       6.881  -1.492  24.672  0.00  0.00    -0.387 OA
ATOM     16  H   UNL     1       7.524  -0.868  24.286  0.00  0.00    +0.210 HD
ENDBRANCH  14  15
BRANCH  14  17
ATOM     17  C   UNL     1       7.577  -2.702  26.591  0.00  0.00    +0.206 C 
BRANCH  17  18
ATOM     18  O   UNL     1       8.080  -3.960  27.062  0.00  0.00    -0.284 OA
BRANCH  18  19
ATOM     19  P   UNL     1       7.034  -5.250  26.573  0.00  0.00    +0.472 P 
ATOM     20  O   UNL     1       6.099  -6.403  26.138  0.00  0.00    -0.228 OA
BRANCH  19  21
ATOM     21  O   UNL     1       7.239  -5.806  28.101  0.00  0.00    -0.303 OA
ATOM     22  H   UNL     1       7.026  -6.757  28.066  0.00  0.00    +0.222 HD
ENDBRANCH  19  21
BRANCH  19  23
ATOM     23  O   UNL     1       8.401  -5.967  26.024  0.00  0.00    -0.303 OA
ATOM     24  H   UNL     1       8.944  -6.304  26.759  0.00  0.00    +0.222 HD
ENDBRANCH  19  23
ENDBRANCH  18  19
ENDBRANCH  17  18
ENDBRANCH  14  17
ENDBRANCH   1  14
TORSDOF 9
ENDMDL
MODEL 3
REMARK VINA RESULT:      -6.2      2.418      3.486
REMARK  Name = 
REMARK  9 active torsions:
REMARK  status: ('A' for Active; 'I' for Inactive)
REMARK    1  A    between atoms: C_2  and  O_3
REMARK    2  A    between atoms: C_2  and  C_4
REMARK    3  A    between atoms: C_2  and  C_10
REMARK    4  A    between atoms: C_4  and  O_5
REMARK    5  A    between atoms: O_5  and  P_6
REMARK    6  A    between atoms: P_6  and  O_7
REMARK    7  A    between atoms: P_6  and  O_8
REMARK    8  A    between atoms: C_10  and  O_12
REMARK    9  A    between atoms: C_10  and  C_13
REMARK                            x       y       z     vdW  Elec       q    Type
REMARK                         _______ _______ _______ _____ _____    ______ ____
ROOT
ATOM      1  C   UNL     1       9.222  -2.925  23.878  0.00  0.00    +0.177 C 
ENDROOT
BRANCH   1   2
ATOM      2  C   UNL     1       9.310  -1.530  24.439  0.00  0.00    +0.008 A 
ATOM      3  C   UNL     1       9.566  -0.316  23.714  0.00  0.00    +0.005 A 
ATOM      4  C   UNL     1       9.847  -0.011  22.367  0.00  0.00    +0.010 A 
ATOM      5  C   UNL     1      10.022   1.325  21.979  0.00  0.00    +0.001 A 
ATOM      6  C   UNL     1       9.919   2.354  22.913  0.00  0.00    +0.002 A 
ATOM      7  C   UNL     1       9.648   2.079  24.254  0.00  0.00    +0.026 A 
ATOM      8  C   UNL     1       9.480   0.741  24.625  0.00  0.00    +0.047 A 
ATOM      9  N   UNL     1       9.209   0.191  25.856  0.00  0.00    -0.360 N 
ATOM     10  H   UNL     1       9.080   0.725  26.705  0.00  0.00    +0.165 HD
ATOM     11  C   UNL     1       9.112  -1.164  25.755  0.00  0.00    +0.090 A 
ENDBRANCH   1   2
BRANCH   1  12
ATOM     12  O   UNL     1       8.006  -3.044  23.121  0.00  0.00    -0.384 OA
ATOM     13  H   UNL     1       7.375  -3.585  23.616  0.00  0.00    +0.210 HD
ENDBRANCH   1  12
BRANCH   1  14
ATOM     14  C   UNL     1       9.280  -4.023  24.974  0.00  0.00    +0.174 C 
BRANCH  14  15
ATOM     15  O   UNL     1      10.418  -4.885  24.809  0.00  0.00    -0.387 OA
ATOM     16  H   UNL     1      10.908  -4.524  24.046  0.00  0.00    +0.210 HD
ENDBRANCH  14  15
BRANCH  14  17
ATOM     17  C   UNL     1       8.047  -4.924  24.906  0.00  0.00    +0.206 C 
BRANCH  17  18
ATOM     18  O   UNL     1       7.012  -4.416  25.760  0.00  0.00    -0.284 OA
BRANCH  18  19
ATOM     19  P   UNL     1       6.944  -5.323  27.232  0.00  0.00    +0.472 P 
ATOM     20  O   UNL     1       6.885  -6.134  28.549  0.00  0.00    -0.228 OA
BRANCH  19  21
ATOM     21  O   UNL     1       8.296  -6.062  26.674  0.00  0.00    -0.303 OA
ATOM     22  H   UNL     1       8.038  -6.986  26.500  0.00  0.00    +0.222 HD
ENDBRANCH  19  21
BRANCH  19  23
ATOM     23  O   UNL     1       5.940  -6.322  26.410  0.00  0.00    -0.303 OA
ATOM     24  H   UNL     1       5.235  -5.824  25.959  0.00  0.00    +0.222 HD
ENDBRANCH  19  23
ENDBRANCH  18  19
ENDBRANCH  17  18
ENDBRANCH  14  17
ENDBRANCH   1  14
TORSDOF 9
ENDMDL
MODEL 4
REMARK VINA RESULT:      -6.2      1.596      2.311
REMARK  Name = 
REMARK  9 active torsions:
REMARK  status: ('A' for Active; 'I' for Inactive)
REMARK    1  A    between atoms: C_2  and  O_3
REMARK    2  A    between atoms: C_2  and  C_4
REMARK    3  A    between atoms: C_2  and  C_10
REMARK    4  A    between atoms: C_4  and  O_5
REMARK    5  A    between atoms: O_5  and  P_6
REMARK    6  A    between atoms: P_6  and  O_7
REMARK    7  A    between atoms: P_6  and  O_8
REMARK    8  A    between atoms: C_10  and  O_12
REMARK    9  A    between atoms: C_10  and  C_13
REMARK                            x       y       z     vdW  Elec       q    Type
REMARK                         _______ _______ _______ _____ _____    ______ ____
ROOT
ATOM      1  C   UNL     1       9.539  -2.643  23.747  0.00  0.00    +0.177 C 
ENDROOT
BRANCH   1   2
ATOM      2  C   UNL     1       9.438  -1.278  24.377  0.00  0.00    +0.008 A 
ATOM      3  C   UNL     1       9.642  -0.008  23.738  0.00  0.00    +0.005 A 
ATOM      4  C   UNL     1      10.017   0.396  22.440  0.00  0.00    +0.010 A 
ATOM      5  C   UNL     1      10.097   1.762  22.134  0.00  0.00    +0.001 A 
ATOM      6  C   UNL     1       9.809   2.724  23.100  0.00  0.00    +0.002 A 
ATOM      7  C   UNL     1       9.442   2.351  24.394  0.00  0.00    +0.026 A 
ATOM      8  C   UNL     1       9.369   0.985  24.684  0.00  0.00    +0.047 A 
ATOM      9  N   UNL     1       9.039   0.345  25.856  0.00  0.00    -0.360 N 
ATOM     10  H   UNL     1       8.781   0.817  26.712  0.00  0.00    +0.165 HD
ATOM     11  C   UNL     1       9.084  -1.006  25.683  0.00  0.00    +0.090 A 
ENDBRANCH   1   2
BRANCH   1  12
ATOM     12  O   UNL     1       8.677  -2.685  22.597  0.00  0.00    -0.384 OA
ATOM     13  H   UNL     1       9.145  -3.112  21.865  0.00  0.00    +0.210 HD
ENDBRANCH   1  12
BRANCH   1  14
ATOM     14  C   UNL     1       9.180  -3.791  24.727  0.00  0.00    +0.174 C 
BRANCH  14  15
ATOM     15  O   UNL     1      10.184  -4.819  24.738  0.00  0.00    -0.387 OA
ATOM     16  H   UNL     1       9.704  -5.649  24.919  0.00  0.00    +0.210 HD
ENDBRANCH  14  15
BRANCH  14  17
ATOM     17  C   UNL     1       7.875  -4.472  24.313  0.00  0.00    +0.206 C 
BRANCH  17  18
ATOM     18  O   UNL     1       6.766  -3.585  24.513  0.00  0.00    -0.284 OA
BRANCH  18  19
ATOM     19  P   UNL     1       5.439  -4.039  23.499  0.00  0.00    +0.472 P 
ATOM     20  O   UNL     1       4.253  -4.446  22.592  0.00  0.00    -0.228 OA
BRANCH  19  21
ATOM     21  O   UNL     1       6.585  -4.716  22.544  0.00  0.00    -0.303 OA
ATOM     22  H   UNL     1       6.532  -5.676  22.709  0.00  0.00    +0.222 HD
ENDBRANCH  19  21
BRANCH  19  23
ATOM     23  O   UNL     1       5.620  -2.554  22.831  0.00  0.00    -0.303 OA
ATOM     24  H   UNL     1       5.786  -2.614  21.873  0.00  0.00    +0.222 HD
ENDBRANCH  19  23
ENDBRANCH  18  19
ENDBRANCH  17  18
ENDBRANCH  14  17
ENDBRANCH   1  14
TORSDOF 9
ENDMDL
MODEL 5
REMARK VINA RESULT:      -6.0      2.308      3.161
REMARK  Name = 
REMARK  9 active torsions:
REMARK  status: ('A' for Active; 'I' for Inactive)
REMARK    1  A    between atoms: C_2  and  O_3
REMARK    2  A    between atoms: C_2  and  C_4
REMARK    3  A    between atoms: C_2  and  C_10
REMARK    4  A    between atoms: C_4  and  O_5
REMARK    5  A    between atoms: O_5  and  P_6
REMARK    6  A    between atoms: P_6  and  O_7
REMARK    7  A    between atoms: P_6  and  O_8
REMARK    8  A    between atoms: C_10  and  O_12
REMARK    9  A    between atoms: C_10  and  C_13
REMARK                            x       y       z     vdW  Elec       q    Type
REMARK                         _______ _______ _______ _____ _____    ______ ____
ROOT
ATOM      1  C   UNL     1       9.414  -1.426  23.161  0.00  0.00    +0.177 C 
ENDROOT
BRANCH   1   2
ATOM      2  C   UNL     1       9.278   0.015  22.743  0.00  0.00    +0.008 A 
ATOM      3  C   UNL     1       8.866   1.122  23.560  0.00  0.00    +0.005 A 
ATOM      4  C   UNL     1       8.436   1.258  24.896  0.00  0.00    +0.010 A 
ATOM      5  C   UNL     1       8.127   2.529  25.400  0.00  0.00    +0.001 A 
ATOM      6  C   UNL     1       8.243   3.660  24.594  0.00  0.00    +0.002 A 
ATOM      7  C   UNL     1       8.660   3.552  23.267  0.00  0.00    +0.026 A 
ATOM      8  C   UNL     1       8.961   2.277  22.778  0.00  0.00    +0.047 A 
ATOM      9  N   UNL     1       9.388   1.886  21.531  0.00  0.00    -0.360 N 
ATOM     10  H   UNL     1       9.557   2.517  20.759  0.00  0.00    +0.165 HD
ATOM     11  C   UNL     1       9.574   0.536  21.499  0.00  0.00    +0.090 A 
ENDBRANCH   1   2
BRANCH   1  12
ATOM     12  O   UNL     1      10.588  -1.978  22.542  0.00  0.00    -0.384 OA
ATOM     13  H   UNL     1      11.152  -2.371  23.224  0.00  0.00    +0.210 HD
ENDBRANCH   1  12
BRANCH   1  14
ATOM     14  C   UNL     1       8.168  -2.280  22.805  0.00  0.00    +0.174 C 
BRANCH  14  15
ATOM     15  O   UNL     1       6.972  -1.757  23.405  0.00  0.00    -0.387 OA
ATOM     16  H   UNL     1       6.252  -2.342  23.101  0.00  0.00    +0.210 HD
ENDBRANCH  14  15
BRANCH  14  17
ATOM     17  C   UNL     1       8.320  -3.708  23.327  0.00  0.00    +0.206 C 
BRANCH  17  18
ATOM     18  O   UNL     1       9.405  -3.783  24.262  0.00  0.00    -0.284 OA
BRANCH  18  19
ATOM     19  P   UNL     1       8.852  -4.404  25.780  0.00  0.00    +0.472 P 
ATOM     20  O   UNL     1       8.358  -4.959  27.138  0.00  0.00    -0.228 OA
BRANCH  19  21
ATOM     21  O   UNL     1       9.959  -5.587  25.539  0.00  0.00    -0.303 OA
ATOM     22  H   UNL     1       9.590  -6.154  24.837  0.00  0.00    +0.222 HD
ENDBRANCH  19  21
BRANCH  19  23
ATOM     23  O   UNL     1       7.702  -5.164  24.895  0.00  0.00    -0.303 OA
ATOM     24  H   UNL     1       7.003  -5.533  25.463  0.00  0.00    +0.222 HD
ENDBRANCH  19  23
ENDBRANCH  18  19
ENDBRANCH  17  18
ENDBRANCH  14  17
ENDBRANCH   1  14
TORSDOF 9
ENDMDL
MODEL 6
REMARK VINA RESULT:      -6.0      1.791      2.459
REMARK  Name = 
REMARK  9 active torsions:
REMARK  status: ('A' for Active; 'I' for Inactive)
REMARK    1  A    between atoms: C_2  and  O_3
REMARK    2  A    between atoms: C_2  and  C_4
REMARK    3  A    between atoms: C_2  and  C_10
REMARK    4  A    between atoms: C_4  and  O_5
REMARK    5  A    between atoms: O_5  and  P_6
REMARK    6  A    between atoms: P_6  and  O_7
REMARK    7  A    between atoms: P_6  and  O_8
REMARK    8  A    between atoms: C_10  and  O_12
REMARK    9  A    between atoms: C_10  and  C_13
REMARK                            x       y       z     vdW  Elec       q    Type
REMARK                         _______ _______ _______ _____ _____    ______ ____
ROOT
ATOM      1  C   UNL     1      10.205  -1.039  23.055  0.00  0.00    +0.177 C 
ENDROOT
BRANCH   1   2
ATOM      2  C   UNL     1       9.496   0.180  22.525  0.00  0.00    +0.008 A 
ATOM      3  C   UNL     1       9.052   1.322  23.276  0.00  0.00    +0.005 A 
ATOM      4  C   UNL     1       9.066   1.673  24.641  0.00  0.00    +0.010 A 
ATOM      5  C   UNL     1       8.558   2.916  25.043  0.00  0.00    +0.001 A 
ATOM      6  C   UNL     1       8.043   3.810  24.107  0.00  0.00    +0.002 A 
ATOM      7  C   UNL     1       8.012   3.484  22.750  0.00  0.00    +0.026 A 
ATOM      8  C   UNL     1       8.518   2.239  22.365  0.00  0.00    +0.047 A 
ATOM      9  N   UNL     1       8.610   1.668  21.117  0.00  0.00    -0.360 N 
ATOM     10  H   UNL     1       8.310   2.113  20.261  0.00  0.00    +0.165 HD
ATOM     11  C   UNL     1       9.188   0.436  21.205  0.00  0.00    +0.090 A 
ENDBRANCH   1   2
BRANCH   1  12
ATOM     12  O   UNL     1      10.701  -1.805  21.943  0.00  0.00    -0.384 OA
ATOM     13  H   UNL     1      10.036  -1.811  21.240  0.00  0.00    +0.210 HD
ENDBRANCH   1  12
BRANCH   1  14
ATOM     14  C   UNL     1       9.300  -1.924  23.953  0.00  0.00    +0.174 C 
BRANCH  14  15
ATOM     15  O   UNL     1       9.798  -3.268  24.054  0.00  0.00    -0.387 OA
ATOM     16  H   UNL     1      10.769  -3.182  24.107  0.00  0.00    +0.210 HD
ENDBRANCH  14  15
BRANCH  14  17
ATOM     17  C   UNL     1       7.892  -2.031  23.368  0.00  0.00    +0.206 C 
BRANCH  17  18
ATOM     18  O   UNL     1       7.889  -2.912  22.237  0.00  0.00    -0.284 OA
BRANCH  18  19
ATOM     19  P   UNL     1       6.390  -3.771  22.144  0.00  0.00    +0.472 P 
ATOM     20  O   UNL     1       5.048  -4.538  22.061  0.00  0.00    -0.228 OA
BRANCH  19  21
ATOM     21  O   UNL     1       5.715  -2.363  22.639  0.00  0.00    -0.303 OA
ATOM     22  H   UNL     1       4.898  -2.613  23.109  0.00  0.00    +0.222 HD
ENDBRANCH  19  21
BRANCH  19  23
ATOM     23  O   UNL     1       6.731  -4.257  23.671  0.00  0.00    -0.303 OA
ATOM     24  H   UNL     1       5.918  -4.435  24.177  0.00  0.00    +0.222 HD
ENDBRANCH  19  23
ENDBRANCH  18  19
ENDBRANCH  17  18
ENDBRANCH  14  17
ENDBRANCH   1  14
TORSDOF 9
ENDMDL
MODEL 7
REMARK VINA RESULT:      -5.9      3.674      5.549
REMARK  Name = 
REMARK  9 active torsions:
REMARK  status: ('A' for Active; 'I' for Inactive)
REMARK    1  A    between atoms: C_2  and  O_3
REMARK    2  A    between atoms: C_2  and  C_4
REMARK    3  A    between atoms: C_2  and  C_10
REMARK    4  A    between atoms: C_4  and  O_5
REMARK    5  A    between atoms: O_5  and  P_6
REMARK    6  A    between atoms: P_6  and  O_7
REMARK    7  A    between atoms: P_6  and  O_8
REMARK    8  A    between atoms: C_10  and  O_12
REMARK    9  A    between atoms: C_10  and  C_13
REMARK                            x       y       z     vdW  Elec       q    Type
REMARK                         _______ _______ _______ _____ _____    ______ ____
ROOT
ATOM      1  C   UNL     1      10.023   1.847  23.350  0.00  0.00    +0.177 C 
ENDROOT
BRANCH   1   2
ATOM      2  C   UNL     1      10.320   3.318  23.473  0.00  0.00    +0.008 A 
ATOM      3  C   UNL     1       9.420   4.354  23.899  0.00  0.00    +0.005 A 
ATOM      4  C   UNL     1       8.062   4.390  24.274  0.00  0.00    +0.010 A 
ATOM      5  C   UNL     1       7.484   5.603  24.674  0.00  0.00    +0.001 A 
ATOM      6  C   UNL     1       8.239   6.773  24.707  0.00  0.00    +0.002 A 
ATOM      7  C   UNL     1       9.584   6.766  24.333  0.00  0.00    +0.026 A 
ATOM      8  C   UNL     1      10.145   5.550  23.933  0.00  0.00    +0.047 A 
ATOM      9  N   UNL     1      11.424   5.257  23.521  0.00  0.00    -0.360 N 
ATOM     10  H   UNL     1      12.174   5.933  23.460  0.00  0.00    +0.165 HD
ATOM     11  C   UNL     1      11.535   3.928  23.238  0.00  0.00    +0.090 A 
ENDBRANCH   1   2
BRANCH   1  12
ATOM     12  O   UNL     1      11.039   1.110  24.051  0.00  0.00    -0.384 OA
ATOM     13  H   UNL     1      11.312   0.354  23.512  0.00  0.00    +0.210 HD
ENDBRANCH   1  12
BRANCH   1  14
ATOM     14  C   UNL     1       9.934   1.368  21.876  0.00  0.00    +0.174 C 
BRANCH  14  15
ATOM     15  O   UNL     1       8.821   1.960  21.187  0.00  0.00    -0.387 OA
ATOM     16  H   UNL     1       8.478   2.646  21.791  0.00  0.00    +0.210 HD
ENDBRANCH  14  15
BRANCH  14  17
ATOM     17  C   UNL     1       9.724  -0.145  21.808  0.00  0.00    +0.206 C 
BRANCH  17  18
ATOM     18  O   UNL     1       8.821  -0.569  22.839  0.00  0.00    -0.284 OA
BRANCH  18  19
ATOM     19  P   UNL     1       9.298  -2.110  23.464  0.00  0.00    +0.472 P 
ATOM     20  O   UNL     1       9.725  -3.488  24.025  0.00  0.00    -0.228 OA
BRANCH  19  21
ATOM     21  O   UNL     1       9.784  -1.267  24.782  0.00  0.00    -0.303 OA
ATOM     22  H   UNL     1       9.905  -1.928  25.488  0.00  0.00    +0.222 HD
ENDBRANCH  19  21
BRANCH  19  23
ATOM     23  O   UNL     1      10.701  -1.849  22.658  0.00  0.00    -0.303 OA
ATOM     24  H   UNL     1      11.308  -1.291  23.176  0.00  0.00    +0.222 HD
ENDBRANCH  19  23
ENDBRANCH  18  19
ENDBRANCH  17  18
ENDBRANCH  14  17
ENDBRANCH   1  14
TORSDOF 9
ENDMDL
MODEL 8
REMARK VINA RESULT:      -5.8      2.551      3.417
REMARK  Name = 
REMARK  9 active torsions:
REMARK  status: ('A' for Active; 'I' for Inactive)
REMARK    1  A    between atoms: C_2  and  O_3
REMARK    2  A    between atoms: C_2  and  C_4
REMARK    3  A    between atoms: C_2  and  C_10
REMARK    4  A    between atoms: C_4  and  O_5
REMARK    5  A    between atoms: O_5  and  P_6
REMARK    6  A    between atoms: P_6  and  O_7
REMARK    7  A    between atoms: P_6  and  O_8
REMARK    8  A    between atoms: C_10  and  O_12
REMARK    9  A    between atoms: C_10  and  C_13
REMARK                            x       y       z     vdW  Elec       q    Type
REMARK                         _______ _______ _______ _____ _____    ______ ____
ROOT
ATOM      1  C   UNL     1       8.233  -2.525  25.123  0.00  0.00    +0.177 C 
ENDROOT
BRANCH   1   2
ATOM      2  C   UNL     1       8.914  -1.819  23.979  0.00  0.00    +0.008 A 
ATOM      3  C   UNL     1       8.463  -0.639  23.294  0.00  0.00    +0.005 A 
ATOM      4  C   UNL     1       7.321   0.182  23.388  0.00  0.00    +0.010 A 
ATOM      5  C   UNL     1       7.205   1.308  22.560  0.00  0.00    +0.001 A 
ATOM      6  C   UNL     1       8.209   1.623  21.647  0.00  0.00    +0.002 A 
ATOM      7  C   UNL     1       9.346   0.823  21.529  0.00  0.00    +0.026 A 
ATOM      8  C   UNL     1       9.445  -0.298  22.359  0.00  0.00    +0.047 A 
ATOM      9  N   UNL     1      10.438  -1.244  22.454  0.00  0.00    -0.360 N 
ATOM     10  H   UNL     1      11.285  -1.242  21.902  0.00  0.00    +0.165 HD
ATOM     11  C   UNL     1      10.126  -2.159  23.415  0.00  0.00    +0.090 A 
ENDBRANCH   1   2
BRANCH   1  12
ATOM     12  O   UNL     1       8.492  -1.797  26.335  0.00  0.00    -0.384 OA
ATOM     13  H   UNL     1       8.612  -2.424  27.063  0.00  0.00    +0.210 HD
ENDBRANCH   1  12
BRANCH   1  14
ATOM     14  C   UNL     1       8.685  -4.001  25.278  0.00  0.00    +0.174 C 
BRANCH  14  15
ATOM     15  O   UNL     1       8.013  -4.867  24.348  0.00  0.00    -0.387 OA
ATOM     16  H   UNL     1       7.466  -5.462  24.895  0.00  0.00    +0.210 HD
ENDBRANCH  14  15
BRANCH  14  17
ATOM     17  C   UNL     1       8.350  -4.529  26.673  0.00  0.00    +0.206 C 
BRANCH  17  18
ATOM     18  O   UNL     1       6.976  -4.264  26.988  0.00  0.00    -0.284 OA
BRANCH  18  19
ATOM     19  P   UNL     1       6.227  -5.673  27.657  0.00  0.00    +0.472 P 
ATOM     20  O   UNL     1       5.558  -6.934  28.255  0.00  0.00    -0.228 OA
BRANCH  19  21
ATOM     21  O   UNL     1       7.758  -6.227  27.841  0.00  0.00    -0.303 OA
ATOM     22  H   UNL     1       7.758  -7.129  27.470  0.00  0.00    +0.222 HD
ENDBRANCH  19  21
BRANCH  19  23
ATOM     23  O   UNL     1       6.124  -6.187  26.104  0.00  0.00    -0.303 OA
ATOM     24  H   UNL     1       6.719  -6.940  25.940  0.00  0.00    +0.222 HD
ENDBRANCH  19  23
ENDBRANCH  18  19
ENDBRANCH  17  18
ENDBRANCH  14  17
ENDBRANCH   1  14
TORSDOF 9
ENDMDL
MODEL 9
REMARK VINA RESULT:      -5.8      4.315      6.797
REMARK  Name = 
REMARK  9 active torsions:
REMARK  status: ('A' for Active; 'I' for Inactive)
REMARK    1  A    between atoms: C_2  and  O_3
REMARK    2  A    between atoms: C_2  and  C_4
REMARK    3  A    between atoms: C_2  and  C_10
REMARK    4  A    between atoms: C_4  and  O_5
REMARK    5  A    between atoms: O_5  and  P_6
REMARK    6  A    between atoms: P_6  and  O_7
REMARK    7  A    between atoms: P_6  and  O_8
REMARK    8  A    between atoms: C_10  and  O_12
REMARK    9  A    between atoms: C_10  and  C_13
REMARK                            x       y       z     vdW  Elec       q    Type
REMARK                         _______ _______ _______ _____ _____    ______ ____
ROOT
ATOM      1  C   UNL     1       8.318  -1.059  23.165  0.00  0.00    +0.177 C 
ENDROOT
BRANCH   1   2
ATOM      2  C   UNL     1       8.302  -2.532  23.478  0.00  0.00    +0.008 A 
ATOM      3  C   UNL     1       7.548  -3.555  22.808  0.00  0.00    +0.005 A 
ATOM      4  C   UNL     1       6.609  -3.560  21.756  0.00  0.00    +0.010 A 
ATOM      5  C   UNL     1       6.068  -4.776  21.315  0.00  0.00    +0.001 A 
ATOM      6  C   UNL     1       6.451  -5.979  21.904  0.00  0.00    +0.002 A 
ATOM      7  C   UNL     1       7.374  -6.001  22.951  0.00  0.00    +0.026 A 
ATOM      8  C   UNL     1       7.901  -4.779  23.382  0.00  0.00    +0.047 A 
ATOM      9  N   UNL     1       8.813  -4.510  24.376  0.00  0.00    -0.360 N 
ATOM     10  H   UNL     1       9.253  -5.213  24.954  0.00  0.00    +0.165 HD
ATOM     11  C   UNL     1       9.053  -3.170  24.444  0.00  0.00    +0.090 A 
ENDBRANCH   1   2
BRANCH   1  12
ATOM     12  O   UNL     1       6.965  -0.571  23.164  0.00  0.00    -0.384 OA
ATOM     13  H   UNL     1       6.563  -0.753  22.303  0.00  0.00    +0.210 HD
ENDBRANCH   1  12
BRANCH   1  14
ATOM     14  C   UNL     1       9.005  -0.734  21.812  0.00  0.00    +0.174 C 
BRANCH  14  15
ATOM     15  O   UNL     1      10.193  -1.517  21.614  0.00  0.00    -0.387 OA
ATOM     16  H   UNL     1       9.963  -2.418  21.911  0.00  0.00    +0.210 HD
ENDBRANCH  14  15
BRANCH  14  17
ATOM     17  C   UNL     1       9.442   0.730  21.761  0.00  0.00    +0.206 C 
BRANCH  17  18
ATOM     18  O   UNL     1       8.869   1.459  22.855  0.00  0.00    -0.284 OA
BRANCH  18  19
ATOM     19  P   UNL     1       9.905   2.765  23.319  0.00  0.00    +0.472 P 
ATOM     20  O   UNL     1      10.830   3.934  23.735  0.00  0.00    -0.228 OA
BRANCH  19  21
ATOM     21  O   UNL     1       8.698   3.729  22.774  0.00  0.00    -0.303 OA
ATOM     22  H   UNL     1       8.692   3.622  21.804  0.00  0.00    +0.222 HD
ENDBRANCH  19  21
BRANCH  19  23
ATOM     23  O   UNL     1      10.568   2.587  21.831  0.00  0.00    -0.303 OA
ATOM     24  H   UNL     1      11.437   2.151  21.881  0.00  0.00    +0.222 HD
ENDBRANCH  19  23
ENDBRANCH  18  19
ENDBRANCH  17  18
ENDBRANCH  14  17
ENDBRANCH   1  14
TORSDOF 9
ENDMDL
