MODEL 1
REMARK VINA RESULT:      -6.1      0.000      0.000
REMARK  Name = 
REMARK  9 active torsions:
REMARK  status: ('A' for Active; 'I' for Inactive)
REMARK    1  A    between atoms: N_1  and  C_2
REMARK    2  A    between atoms: C_2  and  C_3
REMARK    3  A    between atoms: C_3  and  C_4
REMARK    4  A    between atoms: C_4  and  C_5
REMARK    5  A    between atoms: C_5  and  C_6
REMARK    6  A    between atoms: C_6  and  C_7
REMARK    7  A    between atoms: C_7  and  N_8
REMARK    8  A    between atoms: N_8  and  S_9
REMARK    9  A    between atoms: S_9  and  C_12
REMARK                            x       y       z     vdW  Elec       q    Type
REMARK                         _______ _______ _______ _____ _____    ______ ____
ROOT
ATOM      1  S   UNL     1       9.169  -3.150  24.084  0.00  0.00    +0.059 S 
ATOM      2  O   UNL     1       8.783  -2.037  24.927  0.00  0.00    -0.153 OA
ATOM      3  O   UNL     1      10.141  -4.120  24.538  0.00  0.00    -0.153 OA
ENDROOT
BRANCH   1   4
ATOM      4  C   UNL     1       7.699  -4.023  23.566  0.00  0.00    +0.113 A 
ATOM      5  C   UNL     1       6.912  -4.791  24.473  0.00  0.00    +0.010 A 
ATOM      6  C   UNL     1       7.171  -4.912  25.864  0.00  0.00    +0.010 A 
ATOM      7  C   UNL     1       6.366  -5.671  26.714  0.00  0.00    +0.002 A 
ATOM      8  C   UNL     1       5.282  -6.361  26.198  0.00  0.00    +0.020 A 
ATOM      9  C   UNL     1       4.995  -6.276  24.836  0.00  0.00    +0.049 A 
ATOM     10 CL   UNL     1       3.628  -7.194  24.284  0.00  0.00    -0.083 Cl
ATOM     11  C   UNL     1       5.780  -5.485  23.955  0.00  0.00    +0.002 A 
ATOM     12  C   UNL     1       5.475  -5.355  22.578  0.00  0.00    +0.010 A 
ATOM     13  C   UNL     1       6.240  -4.569  21.721  0.00  0.00    +0.003 A 
ATOM     14  C   UNL     1       7.353  -3.907  22.210  0.00  0.00    +0.029 A 
ENDBRANCH   1   4
BRANCH   1  15
ATOM     15  N   UNL     1       9.762  -2.502  22.637  0.00  0.00    -0.190 NA
ATOM     16  H   UNL     1      10.367  -3.171  22.162  0.00  0.00    +0.148 HD
BRANCH  15  17
ATOM     17  C   UNL     1      10.190  -1.098  22.671  0.00  0.00    +0.106 C 
BRANCH  17  18
ATOM     18  C   UNL     1       9.509  -0.300  21.558  0.00  0.00    +0.017 C 
BRANCH  18  19
ATOM     19  C   UNL     1       9.618   1.197  21.859  0.00  0.00    +0.001 C 
BRANCH  19  20
ATOM     20  C   UNL     1      10.416   1.496  23.128  0.00  0.00    +0.001 C 
BRANCH  20  21
ATOM     21  C   UNL     1       9.681   2.529  23.990  0.00  0.00    +0.015 C 
BRANCH  21  22
ATOM     22  C   UNL     1       8.559   1.889  24.802  0.00  0.00    +0.077 C 
BRANCH  22  23
ATOM     23  N   UNL     1       9.086   0.798  25.613  0.00  0.00    -0.330 NA
ATOM     24  H   UNL     1       9.861   0.348  25.127  0.00  0.00    +0.118 HD
ATOM     25  H   UNL     1       9.473   1.173  26.479  0.00  0.00    +0.118 HD
ENDBRANCH  22  23
ENDBRANCH  21  22
ENDBRANCH  20  21
ENDBRANCH  19  20
ENDBRANCH  18  19
ENDBRANCH  17  18
ENDBRANCH  15  17
ENDBRANCH   1  15
TORSDOF 9
ENDMDL
MODEL 2
REMARK VINA RESULT:      -6.0      1.704      2.125
REMARK  Name = 
REMARK  9 active torsions:
REMARK  status: ('A' for Active; 'I' for Inactive)
REMARK    1  A    between atoms: N_1  and  C_2
REMARK    2  A    between atoms: C_2  and  C_3
REMARK    3  A    between atoms: C_3  and  C_4
REMARK    4  A    between atoms: C_4  and  C_5
REMARK    5  A    between atoms: C_5  and  C_6
REMARK    6  A    between atoms: C_6  and  C_7
REMARK    7  A    between atoms: C_7  and  N_8
REMARK    8  A    between atoms: N_8  and  S_9
REMARK    9  A    between atoms: S_9  and  C_12
REMARK                            x       y       z     vdW  Elec       q    Type
REMARK                         _______ _______ _______ _____ _____    ______ ____
ROOT
ATOM      1  S   UNL     1       9.146  -2.168  23.201  0.00  0.00    +0.059 S 
ATOM      2  O   UNL     1      10.312  -2.870  23.695  0.00  0.00    -0.153 OA
ATOM      3  O   UNL     1       9.127  -1.611  21.867  0.00  0.00    -0.153 OA
ENDROOT
BRANCH   1   4
ATOM      4  C   UNL     1       7.712  -3.216  23.396  0.00  0.00    +0.113 A 
ATOM      5  C   UNL     1       7.497  -3.996  24.570  0.00  0.00    +0.010 A 
ATOM      6  C   UNL     1       8.347  -3.997  25.707  0.00  0.00    +0.010 A 
ATOM      7  C   UNL     1       8.090  -4.774  26.837  0.00  0.00    +0.002 A 
ATOM      8  C   UNL     1       6.980  -5.602  26.862  0.00  0.00    +0.020 A 
ATOM      9  C   UNL     1       6.120  -5.637  25.764  0.00  0.00    +0.049 A 
ATOM     10 CL   UNL     1       4.769  -6.722  25.886  0.00  0.00    -0.083 Cl
ATOM     11  C   UNL     1       6.344  -4.832  24.615  0.00  0.00    +0.002 A 
ATOM     12  C   UNL     1       5.456  -4.826  23.511  0.00  0.00    +0.010 A 
ATOM     13  C   UNL     1       5.672  -4.027  22.391  0.00  0.00    +0.003 A 
ATOM     14  C   UNL     1       6.800  -3.226  22.330  0.00  0.00    +0.029 A 
ENDBRANCH   1   4
BRANCH   1  15
ATOM     15  N   UNL     1       8.839  -0.892  24.270  0.00  0.00    -0.190 NA
ATOM     16  H   UNL     1       8.211  -0.209  23.847  0.00  0.00    +0.148 HD
BRANCH  15  17
ATOM     17  C   UNL     1       9.983  -0.385  25.036  0.00  0.00    +0.106 C 
BRANCH  17  18
ATOM     18  C   UNL     1      10.783   0.622  24.207  0.00  0.00    +0.017 C 
BRANCH  18  19
ATOM     19  C   UNL     1       9.838   1.685  23.639  0.00  0.00    +0.001 C 
BRANCH  19  20
ATOM     20  C   UNL     1       9.932   1.819  22.120  0.00  0.00    +0.001 C 
BRANCH  20  21
ATOM     21  C   UNL     1       8.546   1.661  21.484  0.00  0.00    +0.015 C 
BRANCH  21  22
ATOM     22  C   UNL     1       7.431   1.792  22.519  0.00  0.00    +0.077 C 
BRANCH  22  23
ATOM     23  N   UNL     1       6.683   0.544  22.611  0.00  0.00    -0.330 NA
ATOM     24  H   UNL     1       5.720   0.695  22.308  0.00  0.00    +0.118 HD
ATOM     25  H   UNL     1       7.080  -0.139  21.966  0.00  0.00    +0.118 HD
ENDBRANCH  22  23
ENDBRANCH  21  22
ENDBRANCH  20  21
ENDBRANCH  19  20
ENDBRANCH  18  19
ENDBRANCH  17  18
ENDBRANCH  15  17
ENDBRANCH   1  15
TORSDOF 9
ENDMDL
MODEL 3
REMARK VINA RESULT:      -6.0      1.562      3.005
REMARK  Name = 
REMARK  9 active torsions:
REMARK  status: ('A' for Active; 'I' for Inactive)
REMARK    1  A    between atoms: N_1  and  C_2
REMARK    2  A    between atoms: C_2  and  C_3
REMARK    3  A    between atoms: C_3  and  C_4
REMARK    4  A    between atoms: C_4  and  C_5
REMARK    5  A    between atoms: C_5  and  C_6
REMARK    6  A    between atoms: C_6  and  C_7
REMARK    7  A    between atoms: C_7  and  N_8
REMARK    8  A    between atoms: N_8  and  S_9
REMARK    9  A    between atoms: S_9  and  C_12
REMARK                            x       y       z     vdW  Elec       q    Type
REMARK                         _______ _______ _______ _____ _____    ______ ____
ROOT
ATOM      1  S   UNL     1       9.166  -2.050  23.716  0.00  0.00    +0.059 S 
ATOM      2  O   UNL     1      10.334  -2.690  23.146  0.00  0.00    -0.153 OA
ATOM      3  O   UNL     1       8.328  -1.187  22.912  0.00  0.00    -0.153 OA
ENDROOT
BRANCH   1   4
ATOM      4  C   UNL     1       8.134  -3.295  24.474  0.00  0.00    +0.113 A 
ATOM      5  C   UNL     1       7.295  -4.156  23.706  0.00  0.00    +0.010 A 
ATOM      6  C   UNL     1       7.219  -4.156  22.288  0.00  0.00    +0.010 A 
ATOM      7  C   UNL     1       6.387  -5.025  21.581  0.00  0.00    +0.002 A 
ATOM      8  C   UNL     1       5.578  -5.913  22.270  0.00  0.00    +0.020 A 
ATOM      9  C   UNL     1       5.616  -5.943  23.664  0.00  0.00    +0.049 A 
ATOM     10 CL   UNL     1       4.548  -7.076  24.433  0.00  0.00    -0.083 Cl
ATOM     11  C   UNL     1       6.477  -5.090  24.405  0.00  0.00    +0.002 A 
ATOM     12  C   UNL     1       6.557  -5.140  25.819  0.00  0.00    +0.010 A 
ATOM     13  C   UNL     1       7.411  -4.311  26.542  0.00  0.00    +0.003 A 
ATOM     14  C   UNL     1       8.195  -3.386  25.873  0.00  0.00    +0.029 A 
ENDBRANCH   1   4
BRANCH   1  15
ATOM     15  N   UNL     1       9.692  -1.131  25.036  0.00  0.00    -0.190 NA
ATOM     16  H   UNL     1       9.550  -1.637  25.910  0.00  0.00    +0.148 HD
BRANCH  15  17
ATOM     17  C   UNL     1       9.364   0.300  25.016  0.00  0.00    +0.106 C 
BRANCH  17  18
ATOM     18  C   UNL     1      10.521   1.109  24.427  0.00  0.00    +0.017 C 
BRANCH  18  19
ATOM     19  C   UNL     1       9.971   2.163  23.462  0.00  0.00    +0.001 C 
BRANCH  19  20
ATOM     20  C   UNL     1       9.955   1.694  22.008  0.00  0.00    +0.001 C 
BRANCH  20  21
ATOM     21  C   UNL     1       8.543   1.815  21.424  0.00  0.00    +0.015 C 
BRANCH  21  22
ATOM     22  C   UNL     1       7.524   2.215  22.488  0.00  0.00    +0.077 C 
BRANCH  22  23
ATOM     23  N   UNL     1       6.434   1.247  22.527  0.00  0.00    -0.330 NA
ATOM     24  H   UNL     1       6.079   1.088  21.585  0.00  0.00    +0.118 HD
ATOM     25  H   UNL     1       6.788   0.349  22.853  0.00  0.00    +0.118 HD
ENDBRANCH  22  23
ENDBRANCH  21  22
ENDBRANCH  20  21
ENDBRANCH  19  20
ENDBRANCH  18  19
ENDBRANCH  17  18
ENDBRANCH  15  17
ENDBRANCH   1  15
TORSDOF 9
ENDMDL
MODEL 4
REMARK VINA RESULT:      -5.9      3.486      6.616
REMARK  Name = 
REMARK  9 active torsions:
REMARK  status: ('A' for Active; 'I' for Inactive)
REMARK    1  A    between atoms: N_1  and  C_2
REMARK    2  A    between atoms: C_2  and  C_3
REMARK    3  A    between atoms: C_3  and  C_4
REMARK    4  A    between atoms: C_4  and  C_5
REMARK    5  A    between atoms: C_5  and  C_6
REMARK    6  A    between atoms: C_6  and  C_7
REMARK    7  A    between atoms: C_7  and  N_8
REMARK    8  A    between atoms: N_8  and  S_9
REMARK    9  A    between atoms: S_9  and  C_12
REMARK                            x       y       z     vdW  Elec       q    Type
REMARK                         _______ _______ _______ _____ _____    ______ ____
ROOT
ATOM      1  S   UNL     1       6.312  -3.586  22.719  0.00  0.00    +0.059 S 
ATOM      2  O   UNL     1       5.545  -3.319  21.520  0.00  0.00    -0.153 OA
ATOM      3  O   UNL     1       7.520  -4.380  22.664  0.00  0.00    -0.153 OA
ENDROOT
BRANCH   1   4
ATOM      4  C   UNL     1       6.689  -2.038  23.525  0.00  0.00    +0.113 A 
ATOM      5  C   UNL     1       7.780  -1.216  23.118  0.00  0.00    +0.010 A 
ATOM      6  C   UNL     1       8.642  -1.500  22.026  0.00  0.00    +0.010 A 
ATOM      7  C   UNL     1       9.694  -0.659  21.661  0.00  0.00    +0.002 A 
ATOM      8  C   UNL     1       9.939   0.490  22.393  0.00  0.00    +0.020 A 
ATOM      9  C   UNL     1       9.122   0.806  23.478  0.00  0.00    +0.049 A 
ATOM     10 CL   UNL     1       9.525   2.256  24.343  0.00  0.00    -0.083 Cl
ATOM     11  C   UNL     1       8.026  -0.018  23.850  0.00  0.00    +0.002 A 
ATOM     12  C   UNL     1       7.161   0.312  24.923  0.00  0.00    +0.010 A 
ATOM     13  C   UNL     1       6.081  -0.491  25.278  0.00  0.00    +0.003 A 
ATOM     14  C   UNL     1       5.846  -1.667  24.584  0.00  0.00    +0.029 A 
ENDBRANCH   1   4
BRANCH   1  15
ATOM     15  N   UNL     1       5.274  -4.350  23.818  0.00  0.00    -0.190 NA
ATOM     16  H   UNL     1       5.059  -3.733  24.600  0.00  0.00    +0.148 HD
BRANCH  15  17
ATOM     17  C   UNL     1       5.552  -5.760  24.116  0.00  0.00    +0.106 C 
BRANCH  17  18
ATOM     18  C   UNL     1       5.456  -6.021  25.620  0.00  0.00    +0.017 C 
BRANCH  18  19
ATOM     19  C   UNL     1       6.076  -4.848  26.385  0.00  0.00    +0.001 C 
BRANCH  19  20
ATOM     20  C   UNL     1       7.515  -5.115  26.827  0.00  0.00    +0.001 C 
BRANCH  20  21
ATOM     21  C   UNL     1       8.477  -4.157  26.116  0.00  0.00    +0.015 C 
BRANCH  21  22
ATOM     22  C   UNL     1       9.739  -4.873  25.642  0.00  0.00    +0.077 C 
BRANCH  22  23
ATOM     23  N   UNL     1       9.423  -5.758  24.526  0.00  0.00    -0.330 NA
ATOM     24  H   UNL     1      10.160  -6.455  24.418  0.00  0.00    +0.118 HD
ATOM     25  H   UNL     1       8.570  -6.277  24.734  0.00  0.00    +0.118 HD
ENDBRANCH  22  23
ENDBRANCH  21  22
ENDBRANCH  20  21
ENDBRANCH  19  20
ENDBRANCH  18  19
ENDBRANCH  17  18
ENDBRANCH  15  17
ENDBRANCH   1  15
TORSDOF 9
ENDMDL
MODEL 5
REMARK VINA RESULT:      -5.8      2.437      3.521
REMARK  Name = 
REMARK  9 active torsions:
REMARK  status: ('A' for Active; 'I' for Inactive)
REMARK    1  A    between atoms: N_1  and  C_2
REMARK    2  A    between atoms: C_2  and  C_3
REMARK    3  A    between atoms: C_3  and  C_4
REMARK    4  A    between atoms: C_4  and  C_5
REMARK    5  A    between atoms: C_5  and  C_6
REMARK    6  A    between atoms: C_6  and  C_7
REMARK    7  A    between atoms: C_7  and  N_8
REMARK    8  A    between atoms: N_8  and  S_9
REMARK    9  A    between atoms: S_9  and  C_12
REMARK                            x       y       z     vdW  Elec       q    Type
REMARK                         _______ _______ _______ _____ _____    ______ ____
ROOT
ATOM      1  S   UNL     1       7.902  -1.076  26.279  0.00  0.00    +0.059 S 
ATOM      2  O   UNL     1       6.525  -0.929  26.703  0.00  0.00    -0.153 OA
ATOM      3  O   UNL     1       8.989  -0.873  27.212  0.00  0.00    -0.153 OA
ENDROOT
BRANCH   1   4
ATOM      4  C   UNL     1       8.106  -2.675  25.512  0.00  0.00    +0.113 A 
ATOM      5  C   UNL     1       7.436  -3.028  24.303  0.00  0.00    +0.010 A 
ATOM      6  C   UNL     1       6.590  -2.159  23.565  0.00  0.00    +0.010 A 
ATOM      7  C   UNL     1       5.962  -2.549  22.382  0.00  0.00    +0.002 A 
ATOM      8  C   UNL     1       6.138  -3.837  21.904  0.00  0.00    +0.020 A 
ATOM      9  C   UNL     1       6.956  -4.726  22.600  0.00  0.00    +0.049 A 
ATOM     10 CL   UNL     1       7.094  -6.322  21.930  0.00  0.00    -0.083 Cl
ATOM     11  C   UNL     1       7.631  -4.344  23.790  0.00  0.00    +0.002 A 
ATOM     12  C   UNL     1       8.498  -5.223  24.484  0.00  0.00    +0.010 A 
ATOM     13  C   UNL     1       9.168  -4.841  25.644  0.00  0.00    +0.003 A 
ATOM     14  C   UNL     1       8.970  -3.571  26.161  0.00  0.00    +0.029 A 
ENDBRANCH   1   4
BRANCH   1  15
ATOM     15  N   UNL     1       8.150   0.001  24.997  0.00  0.00    -0.190 NA
ATOM     16  H   UNL     1       7.659  -0.314  24.160  0.00  0.00    +0.148 HD
BRANCH  15  17
ATOM     17  C   UNL     1       9.510   0.528  24.832  0.00  0.00    +0.106 C 
BRANCH  17  18
ATOM     18  C   UNL     1      10.336  -0.386  23.925  0.00  0.00    +0.017 C 
BRANCH  18  19
ATOM     19  C   UNL     1       9.848  -0.252  22.481  0.00  0.00    +0.001 C 
BRANCH  19  20
ATOM     20  C   UNL     1       9.791   1.198  21.999  0.00  0.00    +0.001 C 
BRANCH  20  21
ATOM     21  C   UNL     1       8.467   1.468  21.276  0.00  0.00    +0.015 C 
BRANCH  21  22
ATOM     22  C   UNL     1       7.480   2.217  22.168  0.00  0.00    +0.077 C 
BRANCH  22  23
ATOM     23  N   UNL     1       6.419   1.318  22.607  0.00  0.00    -0.330 NA
ATOM     24  H   UNL     1       6.456   0.452  22.071  0.00  0.00    +0.118 HD
ATOM     25  H   UNL     1       6.576   1.057  23.580  0.00  0.00    +0.118 HD
ENDBRANCH  22  23
ENDBRANCH  21  22
ENDBRANCH  20  21
ENDBRANCH  19  20
ENDBRANCH  18  19
ENDBRANCH  17  18
ENDBRANCH  15  17
ENDBRANCH   1  15
TORSDOF 9
ENDMDL
MODEL 6
REMARK VINA RESULT:      -5.7      2.492      3.603
REMARK  Name = 
REMARK  9 active torsions:
REMARK  status: ('A' for Active; 'I' for Inactive)
REMARK    1  A    between atoms: N_1  and  C_2
REMARK    2  A    between atoms: C_2  and  C_3
REMARK    3  A    between atoms: C_3  and  C_4
REMARK    4  A    between atoms: C_4  and  C_5
REMARK    5  A    between atoms: C_5  and  C_6
REMARK    6  A    between atoms: C_6  and  C_7
REMARK    7  A    between atoms: C_7  and  N_8
REMARK    8  A    between atoms: N_8  and  S_9
REMARK    9  A    between atoms: S_9  and  C_12
REMARK                            x       y       z     vdW  Elec       q    Type
REMARK                         _______ _______ _______ _____ _____    ______ ____
ROOT
ATOM      1  S   UNL     1       9.353  -1.735  23.044  0.00  0.00    +0.059 S 
ATOM      2  O   UNL     1      10.650  -2.355  22.869  0.00  0.00    -0.153 OA
ATOM      3  O   UNL     1       8.553  -1.356  21.901  0.00  0.00    -0.153 OA
ENDROOT
BRANCH   1   4
ATOM      4  C   UNL     1       8.359  -2.763  24.114  0.00  0.00    +0.113 A 
ATOM      5  C   UNL     1       7.564  -3.836  23.613  0.00  0.00    +0.010 A 
ATOM      6  C   UNL     1       7.508  -4.231  22.251  0.00  0.00    +0.010 A 
ATOM      7  C   UNL     1       6.720  -5.294  21.810  0.00  0.00    +0.002 A 
ATOM      8  C   UNL     1       5.936  -5.989  22.715  0.00  0.00    +0.020 A 
ATOM      9  C   UNL     1       5.955  -5.631  24.063  0.00  0.00    +0.049 A 
ATOM     10 CL   UNL     1       4.921  -6.549  25.113  0.00  0.00    -0.083 Cl
ATOM     11  C   UNL     1       6.773  -4.572  24.542  0.00  0.00    +0.002 A 
ATOM     12  C   UNL     1       6.835  -4.225  25.913  0.00  0.00    +0.010 A 
ATOM     13  C   UNL     1       7.647  -3.195  26.381  0.00  0.00    +0.003 A 
ATOM     14  C   UNL     1       8.404  -2.461  25.484  0.00  0.00    +0.029 A 
ENDBRANCH   1   4
BRANCH   1  15
ATOM     15  N   UNL     1       9.587  -0.334  23.965  0.00  0.00    -0.190 NA
ATOM     16  H   UNL     1       8.723  -0.060  24.432  0.00  0.00    +0.148 HD
BRANCH  15  17
ATOM     17  C   UNL     1      10.400   0.726  23.356  0.00  0.00    +0.106 C 
BRANCH  17  18
ATOM     18  C   UNL     1      10.130   2.069  24.036  0.00  0.00    +0.017 C 
BRANCH  18  19
ATOM     19  C   UNL     1      10.996   3.154  23.392  0.00  0.00    +0.001 C 
BRANCH  19  20
ATOM     20  C   UNL     1      10.486   4.569  23.664  0.00  0.00    +0.001 C 
BRANCH  20  21
ATOM     21  C   UNL     1      11.626   5.584  23.519  0.00  0.00    +0.015 C 
BRANCH  21  22
ATOM     22  C   UNL     1      12.948   4.903  23.176  0.00  0.00    +0.077 C 
BRANCH  22  23
ATOM     23  N   UNL     1      13.738   5.757  22.297  0.00  0.00    -0.330 NA
ATOM     24  H   UNL     1      13.984   5.247  21.448  0.00  0.00    +0.118 HD
ATOM     25  H   UNL     1      13.174   6.552  21.997  0.00  0.00    +0.118 HD
ENDBRANCH  22  23
ENDBRANCH  21  22
ENDBRANCH  20  21
ENDBRANCH  19  20
ENDBRANCH  18  19
ENDBRANCH  17  18
ENDBRANCH  15  17
ENDBRANCH   1  15
TORSDOF 9
ENDMDL
MODEL 7
REMARK VINA RESULT:      -5.6      3.499      6.249
REMARK  Name = 
REMARK  9 active torsions:
REMARK  status: ('A' for Active; 'I' for Inactive)
REMARK    1  A    between atoms: N_1  and  C_2
REMARK    2  A    between atoms: C_2  and  C_3
REMARK    3  A    between atoms: C_3  and  C_4
REMARK    4  A    between atoms: C_4  and  C_5
REMARK    5  A    between atoms: C_5  and  C_6
REMARK    6  A    between atoms: C_6  and  C_7
REMARK    7  A    between atoms: C_7  and  N_8
REMARK    8  A    between atoms: N_8  and  S_9
REMARK    9  A    between atoms: S_9  and  C_12
REMARK                            x       y       z     vdW  Elec       q    Type
REMARK                         _______ _______ _______ _____ _____    ______ ____
ROOT
ATOM      1  S   UNL     1       8.626  -4.431  24.627  0.00  0.00    +0.059 S 
ATOM      2  O   UNL     1       7.810  -4.514  23.434  0.00  0.00    -0.153 OA
ATOM      3  O   UNL     1       9.913  -5.088  24.691  0.00  0.00    -0.153 OA
ENDROOT
BRANCH   1   4
ATOM      4  C   UNL     1       8.846  -2.713  25.062  0.00  0.00    +0.113 A 
ATOM      5  C   UNL     1       9.250  -1.734  24.107  0.00  0.00    +0.010 A 
ATOM      6  C   UNL     1       9.474  -1.993  22.729  0.00  0.00    +0.010 A 
ATOM      7  C   UNL     1       9.863  -0.999  21.831  0.00  0.00    +0.002 A 
ATOM      8  C   UNL     1      10.066   0.293  22.285  0.00  0.00    +0.020 A 
ATOM      9  C   UNL     1       9.864   0.593  23.632  0.00  0.00    +0.049 A 
ATOM     10 CL   UNL     1      10.167   2.236  24.104  0.00  0.00    -0.083 Cl
ATOM     11  C   UNL     1       9.439  -0.396  24.560  0.00  0.00    +0.002 A 
ATOM     12  C   UNL     1       9.188  -0.097  25.921  0.00  0.00    +0.010 A 
ATOM     13  C   UNL     1       8.760  -1.065  26.826  0.00  0.00    +0.003 A 
ATOM     14  C   UNL     1       8.593  -2.373  26.400  0.00  0.00    +0.029 A 
ENDBRANCH   1   4
BRANCH   1  15
ATOM     15  N   UNL     1       7.703  -5.037  25.910  0.00  0.00    -0.190 NA
ATOM     16  H   UNL     1       8.228  -5.735  26.436  0.00  0.00    +0.148 HD
BRANCH  15  17
ATOM     17  C   UNL     1       6.289  -5.316  25.630  0.00  0.00    +0.106 C 
BRANCH  17  18
ATOM     18  C   UNL     1       5.388  -4.567  26.613  0.00  0.00    +0.017 C 
BRANCH  18  19
ATOM     19  C   UNL     1       4.509  -3.573  25.849  0.00  0.00    +0.001 C 
BRANCH  19  20
ATOM     20  C   UNL     1       5.004  -2.131  25.956  0.00  0.00    +0.001 C 
BRANCH  20  21
ATOM     21  C   UNL     1       5.568  -1.659  24.611  0.00  0.00    +0.015 C 
BRANCH  21  22
ATOM     22  C   UNL     1       5.842  -0.158  24.609  0.00  0.00    +0.077 C 
BRANCH  22  23
ATOM     23  N   UNL     1       6.187   0.287  23.263  0.00  0.00    -0.330 NA
ATOM     24  H   UNL     1       5.802   1.217  23.097  0.00  0.00    +0.118 HD
ATOM     25  H   UNL     1       7.199   0.381  23.185  0.00  0.00    +0.118 HD
ENDBRANCH  22  23
ENDBRANCH  21  22
ENDBRANCH  20  21
ENDBRANCH  19  20
ENDBRANCH  18  19
ENDBRANCH  17  18
ENDBRANCH  15  17
ENDBRANCH   1  15
TORSDOF 9
ENDMDL
MODEL 8
REMARK VINA RESULT:      -5.6      2.096      2.515
REMARK  Name = 
REMARK  9 active torsions:
REMARK  status: ('A' for Active; 'I' for Inactive)
REMARK    1  A    between atoms: N_1  and  C_2
REMARK    2  A    between atoms: C_2  and  C_3
REMARK    3  A    between atoms: C_3  and  C_4
REMARK    4  A    between atoms: C_4  and  C_5
REMARK    5  A    between atoms: C_5  and  C_6
REMARK    6  A    between atoms: C_6  and  C_7
REMARK    7  A    between atoms: C_7  and  N_8
REMARK    8  A    between atoms: N_8  and  S_9
REMARK    9  A    between atoms: S_9  and  C_12
REMARK                            x       y       z     vdW  Elec       q    Type
REMARK                         _______ _______ _______ _____ _____    ______ ____
ROOT
ATOM      1  S   UNL     1       9.234  -1.872  22.778  0.00  0.00    +0.059 S 
ATOM      2  O   UNL     1      10.466  -2.527  23.165  0.00  0.00    -0.153 OA
ATOM      3  O   UNL     1       9.049  -1.378  21.432  0.00  0.00    -0.153 OA
ENDROOT
BRANCH   1   4
ATOM      4  C   UNL     1       7.858  -2.938  23.183  0.00  0.00    +0.113 A 
ATOM      5  C   UNL     1       7.822  -3.708  24.383  0.00  0.00    +0.010 A 
ATOM      6  C   UNL     1       8.823  -3.684  25.389  0.00  0.00    +0.010 A 
ATOM      7  C   UNL     1       8.739  -4.451  26.551  0.00  0.00    +0.002 A 
ATOM      8  C   UNL     1       7.656  -5.294  26.739  0.00  0.00    +0.020 A 
ATOM      9  C   UNL     1       6.652  -5.354  25.773  0.00  0.00    +0.049 A 
ATOM     10 CL   UNL     1       5.349  -6.457  26.093  0.00  0.00    -0.083 Cl
ATOM     11  C   UNL     1       6.700  -4.560  24.597  0.00  0.00    +0.002 A 
ATOM     12  C   UNL     1       5.666  -4.578  23.628  0.00  0.00    +0.010 A 
ATOM     13  C   UNL     1       5.710  -3.790  22.482  0.00  0.00    +0.003 A 
ATOM     14  C   UNL     1       6.806  -2.973  22.255  0.00  0.00    +0.029 A 
ENDBRANCH   1   4
BRANCH   1  15
ATOM     15  N   UNL     1       9.019  -0.554  23.819  0.00  0.00    -0.190 NA
ATOM     16  H   UNL     1       8.592   0.230  23.326  0.00  0.00    +0.148 HD
BRANCH  15  17
ATOM     17  C   UNL     1      10.117  -0.261  24.747  0.00  0.00    +0.106 C 
BRANCH  17  18
ATOM     18  C   UNL     1      10.941   0.927  24.247  0.00  0.00    +0.017 C 
BRANCH  18  19
ATOM     19  C   UNL     1      10.080   1.800  23.331  0.00  0.00    +0.001 C 
BRANCH  19  20
ATOM     20  C   UNL     1       9.741   3.159  23.942  0.00  0.00    +0.001 C 
BRANCH  20  21
ATOM     21  C   UNL     1       8.246   3.457  23.784  0.00  0.00    +0.015 C 
BRANCH  21  22
ATOM     22  C   UNL     1       7.786   3.288  22.338  0.00  0.00    +0.077 C 
BRANCH  22  23
ATOM     23  N   UNL     1       7.284   4.555  21.820  0.00  0.00    -0.330 NA
ATOM     24  H   UNL     1       7.805   4.818  20.984  0.00  0.00    +0.118 HD
ATOM     25  H   UNL     1       6.314   4.441  21.526  0.00  0.00    +0.118 HD
ENDBRANCH  22  23
ENDBRANCH  21  22
ENDBRANCH  20  21
ENDBRANCH  19  20
ENDBRANCH  18  19
ENDBRANCH  17  18
ENDBRANCH  15  17
ENDBRANCH   1  15
TORSDOF 9
ENDMDL
MODEL 9
REMARK VINA RESULT:      -5.6      1.663      2.923
REMARK  Name = 
REMARK  9 active torsions:
REMARK  status: ('A' for Active; 'I' for Inactive)
REMARK    1  A    between atoms: N_1  and  C_2
REMARK    2  A    between atoms: C_2  and  C_3
REMARK    3  A    between atoms: C_3  and  C_4
REMARK    4  A    between atoms: C_4  and  C_5
REMARK    5  A    between atoms: C_5  and  C_6
REMARK    6  A    between atoms: C_6  and  C_7
REMARK    7  A    between atoms: C_7  and  N_8
REMARK    8  A    between atoms: N_8  and  S_9
REMARK    9  A    between atoms: S_9  and  C_12
REMARK                            x       y       z     vdW  Elec       q    Type
REMARK                         _______ _______ _______ _____ _____    ______ ____
ROOT
ATOM      1  S   UNL     1       9.031  -4.334  25.605  0.00  0.00    +0.059 S 
ATOM      2  O   UNL     1       9.352  -4.141  27.004  0.00  0.00    -0.153 OA
ATOM      3  O   UNL     1       9.834  -5.205  24.775  0.00  0.00    -0.153 OA
ENDROOT
BRANCH   1   4
ATOM      4  C   UNL     1       7.323  -4.835  25.465  0.00  0.00    +0.113 A 
ATOM      5  C   UNL     1       6.731  -5.173  24.212  0.00  0.00    +0.010 A 
ATOM      6  C   UNL     1       7.422  -5.194  22.972  0.00  0.00    +0.010 A 
ATOM      7  C   UNL     1       6.800  -5.539  21.772  0.00  0.00    +0.002 A 
ATOM      8  C   UNL     1       5.451  -5.853  21.764  0.00  0.00    +0.020 A 
ATOM      9  C   UNL     1       4.731  -5.838  22.958  0.00  0.00    +0.049 A 
ATOM     10 CL   UNL     1       3.042  -6.225  22.838  0.00  0.00    -0.083 Cl
ATOM     11  C   UNL     1       5.349  -5.521  24.198  0.00  0.00    +0.002 A 
ATOM     12  C   UNL     1       4.641  -5.544  25.424  0.00  0.00    +0.010 A 
ATOM     13  C   UNL     1       5.252  -5.244  26.639  0.00  0.00    +0.003 A 
ATOM     14  C   UNL     1       6.590  -4.886  26.661  0.00  0.00    +0.029 A 
ENDBRANCH   1   4
BRANCH   1  15
ATOM     15  N   UNL     1       9.046  -2.808  24.872  0.00  0.00    -0.190 NA
ATOM     16  H   UNL     1       8.097  -2.454  24.754  0.00  0.00    +0.148 HD
BRANCH  15  17
ATOM     17  C   UNL     1       9.987  -2.619  23.761  0.00  0.00    +0.106 C 
BRANCH  17  18
ATOM     18  C   UNL     1       9.932  -1.180  23.247  0.00  0.00    +0.017 C 
BRANCH  18  19
ATOM     19  C   UNL     1      10.261  -0.214  24.388  0.00  0.00    +0.001 C 
BRANCH  19  20
ATOM     20  C   UNL     1       9.864   1.230  24.084  0.00  0.00    +0.001 C 
BRANCH  20  21
ATOM     21  C   UNL     1       8.535   1.268  23.321  0.00  0.00    +0.015 C 
BRANCH  21  22
ATOM     22  C   UNL     1       8.682   1.954  21.965  0.00  0.00    +0.077 C 
BRANCH  22  23
ATOM     23  N   UNL     1      10.087   2.240  21.698  0.00  0.00    -0.330 NA
ATOM     24  H   UNL     1      10.204   3.230  21.483  0.00  0.00    +0.118 HD
ATOM     25  H   UNL     1      10.636   2.064  22.539  0.00  0.00    +0.118 HD
ENDBRANCH  22  23
ENDBRANCH  21  22
ENDBRANCH  20  21
ENDBRANCH  19  20
ENDBRANCH  18  19
ENDBRANCH  17  18
ENDBRANCH  15  17
ENDBRANCH   1  15
TORSDOF 9
ENDMDL
