MODEL 1
REMARK VINA RESULT:      -6.8      0.000      0.000
REMARK  Name = 
REMARK  5 active torsions:
REMARK  status: ('A' for Active; 'I' for Inactive)
REMARK    1  A    between atoms: C_1  and  C_2
REMARK    2  A    between atoms: C_2  and  C_3
REMARK    3  A    between atoms: C_3  and  C_4
REMARK    4  A    between atoms: C_3  and  N_6
REMARK    5  A    between atoms: C_4  and  C_5
REMARK                            x       y       z     vdW  Elec       q    Type
REMARK                         _______ _______ _______ _____ _____    ______ ____
ROOT
ATOM      1  N   UNL     1       8.428  -2.541  23.479  0.00  0.00    -0.344 N 
ATOM      2  C   UNL     1       8.153  -3.352  24.571  0.00  0.00    +0.050 A 
ATOM      3  C   UNL     1       8.791  -3.481  25.808  0.00  0.00    +0.028 A 
ATOM      4  C   UNL     1       8.253  -4.382  26.735  0.00  0.00    +0.030 A 
ATOM      5  C   UNL     1       7.123  -5.141  26.481  0.00  0.00    +0.079 A 
ATOM      6  N   UNL     1       6.674  -5.946  27.452  0.00  0.00    -0.215 NA
ATOM      7  C   UNL     1       5.576  -6.661  27.206  0.00  0.00    +0.215 A 
ATOM      8  N   UNL     1       5.095  -7.462  28.222  0.00  0.00    -0.327 N 
ATOM      9  H   UNL     1       5.844  -7.695  28.858  0.00  0.00    +0.145 HD
ATOM     10  H   UNL     1       4.559  -8.224  27.833  0.00  0.00    +0.145 HD
ATOM     11  N   UNL     1       4.920  -6.680  26.050  0.00  0.00    -0.199 NA
ATOM     12  C   UNL     1       5.372  -5.867  25.084  0.00  0.00    +0.130 A 
ATOM     13  N   UNL     1       4.623  -5.931  23.904  0.00  0.00    -0.343 N 
ATOM     14  H   UNL     1       3.856  -6.576  24.080  0.00  0.00    +0.144 HD
ATOM     15  H   UNL     1       4.279  -5.012  23.651  0.00  0.00    +0.144 HD
ATOM     16  C   UNL     1       6.495  -5.036  25.233  0.00  0.00    +0.049 A 
ATOM     17  C   UNL     1       7.021  -4.121  24.252  0.00  0.00    +0.012 A 
ATOM     18  C   UNL     1       6.658  -3.766  22.921  0.00  0.00    +0.028 A 
ATOM     19  C   UNL     1       7.514  -2.788  22.484  0.00  0.00    +0.087 A 
ENDROOT
BRANCH   1  20
ATOM     20  C   UNL     1       9.529  -1.569  23.350  0.00  0.00    +0.087 C 
BRANCH  20  22
ATOM     21  C   UNL     1       9.423   0.184  21.454  0.00  0.00    +0.006 C 
ATOM     22  C   UNL     1       9.752  -1.247  21.853  0.00  0.00    +0.022 C 
ENDBRANCH  20  22
BRANCH  20  23
ATOM     23  C   UNL     1       9.280  -0.296  24.191  0.00  0.00    +0.022 C 
ATOM     24  C   UNL     1      10.521   0.238  24.896  0.00  0.00    +0.006 C 
ENDBRANCH  20  23
ENDBRANCH   1  20
TORSDOF 3
ENDMDL
MODEL 2
REMARK VINA RESULT:      -6.6      2.535      6.805
REMARK  Name = 
REMARK  5 active torsions:
REMARK  status: ('A' for Active; 'I' for Inactive)
REMARK    1  A    between atoms: C_1  and  C_2
REMARK    2  A    between atoms: C_2  and  C_3
REMARK    3  A    between atoms: C_3  and  C_4
REMARK    4  A    between atoms: C_3  and  N_6
REMARK    5  A    between atoms: C_4  and  C_5
REMARK                            x       y       z     vdW  Elec       q    Type
REMARK                         _______ _______ _______ _____ _____    ______ ____
ROOT
ATOM      1  N   UNL     1       7.854  -3.325  24.673  0.00  0.00    -0.344 N 
ATOM      2  C   UNL     1       8.353  -2.035  24.791  0.00  0.00    +0.050 A 
ATOM      3  C   UNL     1       8.579  -1.232  25.913  0.00  0.00    +0.028 A 
ATOM      4  C   UNL     1       9.129   0.040  25.710  0.00  0.00    +0.030 A 
ATOM      5  C   UNL     1       9.457   0.530  24.457  0.00  0.00    +0.079 A 
ATOM      6  N   UNL     1      10.009   1.748  24.382  0.00  0.00    -0.215 NA
ATOM      7  C   UNL     1      10.337   2.205  23.175  0.00  0.00    +0.215 A 
ATOM      8  N   UNL     1      10.940   3.445  23.105  0.00  0.00    -0.327 N 
ATOM      9  H   UNL     1      10.694   3.992  23.918  0.00  0.00    +0.145 HD
ATOM     10  H   UNL     1      10.773   3.856  22.197  0.00  0.00    +0.145 HD
ATOM     11  N   UNL     1      10.111   1.570  22.029  0.00  0.00    -0.199 NA
ATOM     12  C   UNL     1       9.563   0.349  22.112  0.00  0.00    +0.130 A 
ATOM     13  N   UNL     1       9.368  -0.262  20.869  0.00  0.00    -0.343 N 
ATOM     14  H   UNL     1       9.742   0.375  20.169  0.00  0.00    +0.144 HD
ATOM     15  H   UNL     1       9.838  -1.159  20.836  0.00  0.00    +0.144 HD
ATOM     16  C   UNL     1       9.207  -0.260  23.328  0.00  0.00    +0.049 A 
ATOM     17  C   UNL     1       8.641  -1.574  23.495  0.00  0.00    +0.012 A 
ATOM     18  C   UNL     1       8.260  -2.619  22.605  0.00  0.00    +0.028 A 
ATOM     19  C   UNL     1       7.808  -3.679  23.348  0.00  0.00    +0.087 A 
ENDROOT
BRANCH   1  20
ATOM     20  C   UNL     1       7.409  -4.207  25.768  0.00  0.00    +0.087 C 
BRANCH  20  22
ATOM     21  C   UNL     1       5.646  -6.037  26.243  0.00  0.00    +0.006 C 
ATOM     22  C   UNL     1       6.458  -5.286  25.197  0.00  0.00    +0.022 C 
ENDBRANCH  20  22
BRANCH  20  23
ATOM     23  C   UNL     1       8.600  -4.825  26.536  0.00  0.00    +0.022 C 
ATOM     24  C   UNL     1       9.807  -5.147  25.662  0.00  0.00    +0.006 C 
ENDBRANCH  20  23
ENDBRANCH   1  20
TORSDOF 3
ENDMDL
MODEL 3
REMARK VINA RESULT:      -6.6      2.026      2.936
REMARK  Name = 
REMARK  5 active torsions:
REMARK  status: ('A' for Active; 'I' for Inactive)
REMARK    1  A    between atoms: C_1  and  C_2
REMARK    2  A    between atoms: C_2  and  C_3
REMARK    3  A    between atoms: C_3  and  C_4
REMARK    4  A    between atoms: C_3  and  N_6
REMARK    5  A    between atoms: C_4  and  C_5
REMARK                            x       y       z     vdW  Elec       q    Type
REMARK                         _______ _______ _______ _____ _____    ______ ____
ROOT
ATOM      1  N   UNL     1       8.825  -0.838  23.942  0.00  0.00    -0.344 N 
ATOM      2  C   UNL     1       8.095  -1.547  24.888  0.00  0.00    +0.050 A 
ATOM      3  C   UNL     1       6.981  -1.188  25.652  0.00  0.00    +0.028 A 
ATOM      4  C   UNL     1       6.440  -2.149  26.516  0.00  0.00    +0.030 A 
ATOM      5  C   UNL     1       6.957  -3.427  26.641  0.00  0.00    +0.079 A 
ATOM      6  N   UNL     1       6.340  -4.276  27.473  0.00  0.00    -0.215 NA
ATOM      7  C   UNL     1       6.832  -5.510  27.575  0.00  0.00    +0.215 A 
ATOM      8  N   UNL     1       6.172  -6.394  28.405  0.00  0.00    -0.327 N 
ATOM      9  H   UNL     1       5.655  -5.884  29.107  0.00  0.00    +0.145 HD
ATOM     10  H   UNL     1       6.811  -7.109  28.723  0.00  0.00    +0.145 HD
ATOM     11  N   UNL     1       7.923  -5.951  26.957  0.00  0.00    -0.199 NA
ATOM     12  C   UNL     1       8.533  -5.098  26.122  0.00  0.00    +0.130 A 
ATOM     13  N   UNL     1       9.664  -5.637  25.499  0.00  0.00    -0.343 N 
ATOM     14  H   UNL     1       9.735  -6.603  25.808  0.00  0.00    +0.144 HD
ATOM     15  H   UNL     1       9.574  -5.580  24.491  0.00  0.00    +0.144 HD
ATOM     16  C   UNL     1       8.089  -3.783  25.897  0.00  0.00    +0.049 A 
ATOM     17  C   UNL     1       8.676  -2.821  24.999  0.00  0.00    +0.012 A 
ATOM     18  C   UNL     1       9.795  -2.830  24.118  0.00  0.00    +0.028 A 
ATOM     19  C   UNL     1       9.848  -1.622  23.472  0.00  0.00    +0.087 A 
ENDROOT
BRANCH   1  20
ATOM     20  C   UNL     1       8.590   0.548  23.498  0.00  0.00    +0.087 C 
BRANCH  20  22
ATOM     21  C   UNL     1       8.261   2.515  25.144  0.00  0.00    +0.006 C 
ATOM     22  C   UNL     1       9.230   1.524  24.515  0.00  0.00    +0.022 C 
ENDBRANCH  20  22
BRANCH  20  23
ATOM     23  C   UNL     1       9.097   0.790  22.058  0.00  0.00    +0.022 C 
ATOM     24  C   UNL     1      10.170   1.866  21.946  0.00  0.00    +0.006 C 
ENDBRANCH  20  23
ENDBRANCH   1  20
TORSDOF 3
ENDMDL
MODEL 4
REMARK VINA RESULT:      -6.5      1.267      3.289
REMARK  Name = 
REMARK  5 active torsions:
REMARK  status: ('A' for Active; 'I' for Inactive)
REMARK    1  A    between atoms: C_1  and  C_2
REMARK    2  A    between atoms: C_2  and  C_3
REMARK    3  A    between atoms: C_3  and  C_4
REMARK    4  A    between atoms: C_3  and  N_6
REMARK    5  A    between atoms: C_4  and  C_5
REMARK                            x       y       z     vdW  Elec       q    Type
REMARK                         _______ _______ _______ _____ _____    ______ ____
ROOT
ATOM      1  N   UNL     1       8.278  -2.188  24.435  0.00  0.00    -0.344 N 
ATOM      2  C   UNL     1       7.171  -2.815  23.880  0.00  0.00    +0.050 A 
ATOM      3  C   UNL     1       6.430  -2.531  22.729  0.00  0.00    +0.028 A 
ATOM      4  C   UNL     1       5.363  -3.380  22.409  0.00  0.00    +0.030 A 
ATOM      5  C   UNL     1       5.016  -4.479  23.175  0.00  0.00    +0.079 A 
ATOM      6  N   UNL     1       3.998  -5.242  22.757  0.00  0.00    -0.215 NA
ATOM      7  C   UNL     1       3.681  -6.308  23.491  0.00  0.00    +0.215 A 
ATOM      8  N   UNL     1       2.656  -7.113  23.037  0.00  0.00    -0.327 N 
ATOM      9  H   UNL     1       2.040  -6.580  22.439  0.00  0.00    +0.145 HD
ATOM     10  H   UNL     1       2.239  -7.608  23.814  0.00  0.00    +0.145 HD
ATOM     11  N   UNL     1       4.261  -6.645  24.639  0.00  0.00    -0.199 NA
ATOM     12  C   UNL     1       5.282  -5.880  25.049  0.00  0.00    +0.130 A 
ATOM     13  N   UNL     1       5.850  -6.305  26.255  0.00  0.00    -0.343 N 
ATOM     14  H   UNL     1       5.359  -7.154  26.526  0.00  0.00    +0.144 HD
ATOM     15  H   UNL     1       6.843  -6.476  26.140  0.00  0.00    +0.144 HD
ATOM     16  C   UNL     1       5.738  -4.752  24.344  0.00  0.00    +0.049 A 
ATOM     17  C   UNL     1       6.842  -3.901  24.709  0.00  0.00    +0.012 A 
ATOM     18  C   UNL     1       7.766  -3.873  25.792  0.00  0.00    +0.028 A 
ATOM     19  C   UNL     1       8.641  -2.837  25.589  0.00  0.00    +0.087 A 
ENDROOT
BRANCH   1  20
ATOM     20  C   UNL     1       8.974  -0.996  23.917  0.00  0.00    +0.087 C 
BRANCH  20  22
ATOM     21  C   UNL     1      10.677   0.812  24.632  0.00  0.00    +0.006 C 
ATOM     22  C   UNL     1       9.783  -0.341  25.063  0.00  0.00    +0.022 C 
ENDBRANCH  20  22
BRANCH  20  23
ATOM     23  C   UNL     1       9.858  -1.327  22.693  0.00  0.00    +0.022 C 
ATOM     24  C   UNL     1       9.445  -0.610  21.413  0.00  0.00    +0.006 C 
ENDBRANCH  20  23
ENDBRANCH   1  20
TORSDOF 3
ENDMDL
MODEL 5
REMARK VINA RESULT:      -6.5      2.679      4.077
REMARK  Name = 
REMARK  5 active torsions:
REMARK  status: ('A' for Active; 'I' for Inactive)
REMARK    1  A    between atoms: C_1  and  C_2
REMARK    2  A    between atoms: C_2  and  C_3
REMARK    3  A    between atoms: C_3  and  C_4
REMARK    4  A    between atoms: C_3  and  N_6
REMARK    5  A    between atoms: C_4  and  C_5
REMARK                            x       y       z     vdW  Elec       q    Type
REMARK                         _______ _______ _______ _____ _____    ______ ____
ROOT
ATOM      1  N   UNL     1       7.888   1.028  23.275  0.00  0.00    -0.344 N 
ATOM      2  C   UNL     1       8.552  -0.179  23.441  0.00  0.00    +0.050 A 
ATOM      3  C   UNL     1       9.817  -0.602  23.021  0.00  0.00    +0.028 A 
ATOM      4  C   UNL     1      10.228  -1.894  23.372  0.00  0.00    +0.030 A 
ATOM      5  C   UNL     1       9.442  -2.761  24.113  0.00  0.00    +0.079 A 
ATOM      6  N   UNL     1       9.948  -3.962  24.421  0.00  0.00    -0.215 NA
ATOM      7  C   UNL     1       9.193  -4.784  25.148  0.00  0.00    +0.215 A 
ATOM      8  N   UNL     1       9.733  -6.006  25.495  0.00  0.00    -0.327 N 
ATOM      9  H   UNL     1      10.451  -6.264  24.834  0.00  0.00    +0.145 HD
ATOM     10  H   UNL     1       8.992  -6.672  25.663  0.00  0.00    +0.145 HD
ATOM     11  N   UNL     1       7.951  -4.528  25.548  0.00  0.00    -0.199 NA
ATOM     12  C   UNL     1       7.453  -3.322  25.241  0.00  0.00    +0.130 A 
ATOM     13  N   UNL     1       6.149  -3.121  25.706  0.00  0.00    -0.343 N 
ATOM     14  H   UNL     1       5.892  -3.957  26.225  0.00  0.00    +0.144 HD
ATOM     15  H   UNL     1       6.105  -2.296  26.294  0.00  0.00    +0.144 HD
ATOM     16  C   UNL     1       8.163  -2.352  24.513  0.00  0.00    +0.049 A 
ATOM     17  C   UNL     1       7.704  -1.030  24.169  0.00  0.00    +0.012 A 
ATOM     18  C   UNL     1       6.502  -0.300  24.395  0.00  0.00    +0.028 A 
ATOM     19  C   UNL     1       6.650   0.954  23.862  0.00  0.00    +0.087 A 
ENDROOT
BRANCH   1  20
ATOM     20  C   UNL     1       8.383   2.223  22.567  0.00  0.00    +0.087 C 
BRANCH  20  22
ATOM     21  C   UNL     1       7.063   4.430  22.306  0.00  0.00    +0.006 C 
ATOM     22  C   UNL     1       7.189   2.964  21.919  0.00  0.00    +0.022 C 
ENDBRANCH  20  22
BRANCH  20  23
ATOM     23  C   UNL     1       9.210   3.145  23.493  0.00  0.00    +0.022 C 
ATOM     24  C   UNL     1      10.718   2.984  23.349  0.00  0.00    +0.006 C 
ENDBRANCH  20  23
ENDBRANCH   1  20
TORSDOF 3
ENDMDL
MODEL 6
REMARK VINA RESULT:      -6.5      2.527      6.741
REMARK  Name = 
REMARK  5 active torsions:
REMARK  status: ('A' for Active; 'I' for Inactive)
REMARK    1  A    between atoms: C_1  and  C_2
REMARK    2  A    between atoms: C_2  and  C_3
REMARK    3  A    between atoms: C_3  and  C_4
REMARK    4  A    between atoms: C_3  and  N_6
REMARK    5  A    between atoms: C_4  and  C_5
REMARK                            x       y       z     vdW  Elec       q    Type
REMARK                         _______ _______ _______ _____ _____    ______ ____
ROOT
ATOM      1  N   UNL     1       6.737  -3.728  23.997  0.00  0.00    -0.344 N 
ATOM      2  C   UNL     1       7.752  -2.838  23.672  0.00  0.00    +0.050 A 
ATOM      3  C   UNL     1       9.130  -3.023  23.527  0.00  0.00    +0.028 A 
ATOM      4  C   UNL     1       9.906  -1.918  23.158  0.00  0.00    +0.030 A 
ATOM      5  C   UNL     1       9.371  -0.662  22.929  0.00  0.00    +0.079 A 
ATOM      6  N   UNL     1      10.201   0.317  22.547  0.00  0.00    -0.215 NA
ATOM      7  C   UNL     1       9.675   1.518  22.313  0.00  0.00    +0.215 A 
ATOM      8  N   UNL     1      10.529   2.515  21.883  0.00  0.00    -0.327 N 
ATOM      9  H   UNL     1      11.472   2.310  22.180  0.00  0.00    +0.145 HD
ATOM     10  H   UNL     1      10.149   3.419  22.126  0.00  0.00    +0.145 HD
ATOM     11  N   UNL     1       8.397   1.839  22.481  0.00  0.00    -0.199 NA
ATOM     12  C   UNL     1       7.570   0.854  22.859  0.00  0.00    +0.130 A 
ATOM     13  N   UNL     1       6.240   1.263  23.002  0.00  0.00    -0.343 N 
ATOM     14  H   UNL     1       6.207   2.244  22.734  0.00  0.00    +0.144 HD
ATOM     15  H   UNL     1       5.631   0.702  22.417  0.00  0.00    +0.144 HD
ATOM     16  C   UNL     1       7.994  -0.465  23.099  0.00  0.00    +0.049 A 
ATOM     17  C   UNL     1       7.162  -1.577  23.481  0.00  0.00    +0.012 A 
ATOM     18  C   UNL     1       5.772  -1.742  23.741  0.00  0.00    +0.028 A 
ATOM     19  C   UNL     1       5.537  -3.062  24.028  0.00  0.00    +0.087 A 
ENDROOT
BRANCH   1  20
ATOM     20  C   UNL     1       6.879  -5.165  24.292  0.00  0.00    +0.087 C 
BRANCH  20  22
ATOM     21  C   UNL     1       7.534  -5.023  26.789  0.00  0.00    +0.006 C 
ATOM     22  C   UNL     1       6.481  -5.424  25.766  0.00  0.00    +0.022 C 
ENDBRANCH  20  22
BRANCH  20  23
ATOM     23  C   UNL     1       6.073  -6.043  23.307  0.00  0.00    +0.022 C 
ATOM     24  C   UNL     1       6.618  -6.045  21.884  0.00  0.00    +0.006 C 
ENDBRANCH  20  23
ENDBRANCH   1  20
TORSDOF 3
ENDMDL
MODEL 7
REMARK VINA RESULT:      -6.4      2.018      3.114
REMARK  Name = 
REMARK  5 active torsions:
REMARK  status: ('A' for Active; 'I' for Inactive)
REMARK    1  A    between atoms: C_1  and  C_2
REMARK    2  A    between atoms: C_2  and  C_3
REMARK    3  A    between atoms: C_3  and  C_4
REMARK    4  A    between atoms: C_3  and  N_6
REMARK    5  A    between atoms: C_4  and  C_5
REMARK                            x       y       z     vdW  Elec       q    Type
REMARK                         _______ _______ _______ _____ _____    ______ ____
ROOT
ATOM      1  N   UNL     1       8.693   0.160  23.353  0.00  0.00    -0.344 N 
ATOM      2  C   UNL     1       8.584  -0.718  24.423  0.00  0.00    +0.050 A 
ATOM      3  C   UNL     1       8.667  -0.507  25.802  0.00  0.00    +0.028 A 
ATOM      4  C   UNL     1       8.483  -1.608  26.648  0.00  0.00    +0.030 A 
ATOM      5  C   UNL     1       8.221  -2.884  26.179  0.00  0.00    +0.079 A 
ATOM      6  N   UNL     1       8.028  -3.857  27.078  0.00  0.00    -0.215 NA
ATOM      7  C   UNL     1       7.759  -5.079  26.620  0.00  0.00    +0.215 A 
ATOM      8  N   UNL     1       7.524  -6.072  27.550  0.00  0.00    -0.327 N 
ATOM      9  H   UNL     1       7.967  -5.833  28.425  0.00  0.00    +0.145 HD
ATOM     10  H   UNL     1       7.737  -6.974  27.149  0.00  0.00    +0.145 HD
ATOM     11  N   UNL     1       7.721  -5.422  25.336  0.00  0.00    -0.199 NA
ATOM     12  C   UNL     1       7.910  -4.442  24.442  0.00  0.00    +0.130 A 
ATOM     13  N   UNL     1       7.842  -4.877  23.113  0.00  0.00    -0.343 N 
ATOM     14  H   UNL     1       7.615  -5.868  23.142  0.00  0.00    +0.144 HD
ATOM     15  H   UNL     1       7.139  -4.353  22.604  0.00  0.00    +0.144 HD
ATOM     16  C   UNL     1       8.163  -3.106  24.797  0.00  0.00    +0.049 A 
ATOM     17  C   UNL     1       8.350  -1.999  23.894  0.00  0.00    +0.012 A 
ATOM     18  C   UNL     1       8.362  -1.856  22.478  0.00  0.00    +0.028 A 
ATOM     19  C   UNL     1       8.549  -0.532  22.176  0.00  0.00    +0.087 A 
ENDROOT
BRANCH   1  20
ATOM     20  C   UNL     1       8.947   1.611  23.419  0.00  0.00    +0.087 C 
BRANCH  20  22
ATOM     21  C   UNL     1      11.005   3.171  23.317  0.00  0.00    +0.006 C 
ATOM     22  C   UNL     1      10.426   1.852  23.807  0.00  0.00    +0.022 C 
ENDBRANCH  20  22
BRANCH  20  23
ATOM     23  C   UNL     1       8.563   2.328  22.104  0.00  0.00    +0.022 C 
ATOM     24  C   UNL     1       7.389   3.290  22.237  0.00  0.00    +0.006 C 
ENDBRANCH  20  23
ENDBRANCH   1  20
TORSDOF 3
ENDMDL
MODEL 8
REMARK VINA RESULT:      -6.4      3.021      7.163
REMARK  Name = 
REMARK  5 active torsions:
REMARK  status: ('A' for Active; 'I' for Inactive)
REMARK    1  A    between atoms: C_1  and  C_2
REMARK    2  A    between atoms: C_2  and  C_3
REMARK    3  A    between atoms: C_3  and  C_4
REMARK    4  A    between atoms: C_3  and  N_6
REMARK    5  A    between atoms: C_4  and  C_5
REMARK                            x       y       z     vdW  Elec       q    Type
REMARK                         _______ _______ _______ _____ _____    ______ ____
ROOT
ATOM      1  N   UNL     1       8.169  -2.887  24.233  0.00  0.00    -0.344 N 
ATOM      2  C   UNL     1       8.802  -1.750  23.750  0.00  0.00    +0.050 A 
ATOM      3  C   UNL     1       9.672  -1.565  22.672  0.00  0.00    +0.028 A 
ATOM      4  C   UNL     1      10.131  -0.268  22.413  0.00  0.00    +0.030 A 
ATOM      5  C   UNL     1       9.760   0.830  23.171  0.00  0.00    +0.079 A 
ATOM      6  N   UNL     1      10.232   2.031  22.813  0.00  0.00    -0.215 NA
ATOM      7  C   UNL     1       9.857   3.084  23.537  0.00  0.00    +0.215 A 
ATOM      8  N   UNL     1      10.316   4.325  23.142  0.00  0.00    -0.327 N 
ATOM      9  H   UNL     1      11.170   4.222  22.612  0.00  0.00    +0.145 HD
ATOM     10  H   UNL     1      10.330   4.953  23.934  0.00  0.00    +0.145 HD
ATOM     11  N   UNL     1       9.093   3.032  24.623  0.00  0.00    -0.199 NA
ATOM     12  C   UNL     1       8.619   1.828  24.972  0.00  0.00    +0.130 A 
ATOM     13  N   UNL     1       7.812   1.855  26.115  0.00  0.00    -0.343 N 
ATOM     14  H   UNL     1       7.740   2.829  26.398  0.00  0.00    +0.144 HD
ATOM     15  H   UNL     1       6.900   1.462  25.915  0.00  0.00    +0.144 HD
ATOM     16  C   UNL     1       8.910   0.647  24.268  0.00  0.00    +0.049 A 
ATOM     17  C   UNL     1       8.418  -0.674  24.569  0.00  0.00    +0.012 A 
ATOM     18  C   UNL     1       7.569  -1.219  25.574  0.00  0.00    +0.028 A 
ATOM     19  C   UNL     1       7.416  -2.560  25.333  0.00  0.00    +0.087 A 
ENDROOT
BRANCH   1  20
ATOM     20  C   UNL     1       8.277  -4.257  23.698  0.00  0.00    +0.087 C 
BRANCH  20  22
ATOM     21  C   UNL     1       9.898  -5.153  25.502  0.00  0.00    +0.006 C 
ATOM     22  C   UNL     1       8.517  -5.243  24.867  0.00  0.00    +0.022 C 
ENDBRANCH  20  22
BRANCH  20  23
ATOM     23  C   UNL     1       7.046  -4.646  22.849  0.00  0.00    +0.022 C 
ATOM     24  C   UNL     1       7.203  -5.956  22.085  0.00  0.00    +0.006 C 
ENDBRANCH  20  23
ENDBRANCH   1  20
TORSDOF 3
ENDMDL
MODEL 9
REMARK VINA RESULT:      -6.3      3.351      7.085
REMARK  Name = 
REMARK  5 active torsions:
REMARK  status: ('A' for Active; 'I' for Inactive)
REMARK    1  A    between atoms: C_1  and  C_2
REMARK    2  A    between atoms: C_2  and  C_3
REMARK    3  A    between atoms: C_3  and  C_4
REMARK    4  A    between atoms: C_3  and  N_6
REMARK    5  A    between atoms: C_4  and  C_5
REMARK                            x       y       z     vdW  Elec       q    Type
REMARK                         _______ _______ _______ _____ _____    ______ ____
ROOT
ATOM      1  N   UNL     1       8.070  -2.203  23.050  0.00  0.00    -0.344 N 
ATOM      2  C   UNL     1       7.937  -0.999  23.729  0.00  0.00    +0.050 A 
ATOM      3  C   UNL     1       7.244  -0.669  24.897  0.00  0.00    +0.028 A 
ATOM      4  C   UNL     1       7.324   0.650  25.358  0.00  0.00    +0.030 A 
ATOM      5  C   UNL     1       8.058   1.632  24.714  0.00  0.00    +0.079 A 
ATOM      6  N   UNL     1       8.093   2.853  25.262  0.00  0.00    -0.215 NA
ATOM      7  C   UNL     1       8.815   3.788  24.646  0.00  0.00    +0.215 A 
ATOM      8  N   UNL     1       8.879   5.035  25.234  0.00  0.00    -0.327 N 
ATOM      9  H   UNL     1       8.071   5.179  25.822  0.00  0.00    +0.145 HD
ATOM     10  H   UNL     1       9.077   5.735  24.532  0.00  0.00    +0.145 HD
ATOM     11  N   UNL     1       9.462   3.620  23.496  0.00  0.00    -0.199 NA
ATOM     12  C   UNL     1       9.426   2.394  22.956  0.00  0.00    +0.130 A 
ATOM     13  N   UNL     1      10.139   2.291  21.757  0.00  0.00    -0.343 N 
ATOM     14  H   UNL     1      10.568   3.198  21.593  0.00  0.00    +0.144 HD
ATOM     15  H   UNL     1      10.840   1.560  21.821  0.00  0.00    +0.144 HD
ATOM     16  C   UNL     1       8.733   1.313  23.529  0.00  0.00    +0.049 A 
ATOM     17  C   UNL     1       8.672  -0.033  23.020  0.00  0.00    +0.012 A 
ATOM     18  C   UNL     1       9.211  -0.696  21.881  0.00  0.00    +0.028 A 
ATOM     19  C   UNL     1       8.850  -2.018  21.936  0.00  0.00    +0.087 A 
ENDROOT
BRANCH   1  20
ATOM     20  C   UNL     1       7.467  -3.498  23.416  0.00  0.00    +0.087 C 
BRANCH  20  22
ATOM     21  C   UNL     1       7.166  -5.665  22.040  0.00  0.00    +0.006 C 
ATOM     22  C   UNL     1       6.895  -4.171  22.145  0.00  0.00    +0.022 C 
ENDBRANCH  20  22
BRANCH  20  23
ATOM     23  C   UNL     1       8.465  -4.412  24.163  0.00  0.00    +0.022 C 
ATOM     24  C   UNL     1       8.668  -4.049  25.629  0.00  0.00    +0.006 C 
ENDBRANCH  20  23
ENDBRANCH   1  20
TORSDOF 3
ENDMDL
