MODEL 1
REMARK VINA RESULT:      -6.8      0.000      0.000
REMARK  Name = 
REMARK  8 active torsions:
REMARK  status: ('A' for Active; 'I' for Inactive)
REMARK    1  A    between atoms: C_1  and  C_2
REMARK    2  A    between atoms: C_2  and  C_3
REMARK    3  A    between atoms: C_3  and  C_4
REMARK    4  A    between atoms: C_4  and  N_20
REMARK    5  A    between atoms: C_5  and  C_6
REMARK    6  A    between atoms: C_9  and  C_11
REMARK    7  A    between atoms: C_13  and  C_17
REMARK    8  A    between atoms: C_17  and  O_18
REMARK                            x       y       z     vdW  Elec       q    Type
REMARK                         _______ _______ _______ _____ _____    ______ ____
ROOT
ATOM      1  C   UNL     1       9.676   1.306  23.192  0.00  0.00    +0.135 A 
ATOM      2  O   UNL     1       9.285   0.107  23.748  0.00  0.00    -0.455 OA
ATOM      3  C   UNL     1       9.235  -0.834  22.759  0.00  0.00    +0.136 A 
ATOM      4  C   UNL     1       9.628  -0.269  21.567  0.00  0.00    +0.050 A 
ATOM      5  C   UNL     1       9.874   1.093  21.835  0.00  0.00    +0.050 A 
ENDROOT
BRANCH   3   6
ATOM      6  C   UNL     1       8.711  -2.147  23.115  0.00  0.00    +0.018 A 
ATOM      7  C   UNL     1       7.753  -2.807  22.334  0.00  0.00    +0.011 A 
ATOM      8  C   UNL     1       7.324  -4.097  22.668  0.00  0.00    +0.001 A 
ATOM      9  C   UNL     1       7.855  -4.751  23.781  0.00  0.00    +0.015 A 
ATOM     10  C   UNL     1       8.810  -4.102  24.570  0.00  0.00    +0.060 A 
ATOM     11  C   UNL     1       9.214  -2.801  24.250  0.00  0.00    +0.026 A 
BRANCH  10  12
ATOM     12  C   UNL     1       9.423  -4.739  25.761  0.00  0.00    +0.337 C 
ATOM     13  O   UNL     1       9.096  -4.464  26.903  0.00  0.00    -0.245 OA
BRANCH  12  14
ATOM     14  O   UNL     1      10.424  -5.593  25.463  0.00  0.00    -0.477 OA
ATOM     15  H   UNL     1      10.984  -5.842  26.222  0.00  0.00    +0.295 HD
ENDBRANCH  12  14
ENDBRANCH  10  12
ENDBRANCH   3   6
BRANCH   1  17
ATOM     16  C   UNL     1       8.892   3.534  23.935  0.00  0.00    +0.254 C 
ATOM     17  C   UNL     1       9.792   2.541  23.883  0.00  0.00    +0.125 C 
BRANCH  16  18
ATOM     18  N   UNL     1       7.611   3.400  23.271  0.00  0.00    +0.075 N 
ATOM     19  O   UNL     1       7.537   3.839  22.116  0.00  0.00    +0.041 OA
ATOM     20  O   UNL     1       6.668   2.952  23.935  0.00  0.00    -0.576 OA
ENDBRANCH  16  18
BRANCH  16  21
ATOM     21  C   UNL     1       9.060   4.829  24.682  0.00  0.00    +0.113 C 
BRANCH  21  23
ATOM     22  C   UNL     1      11.254   5.985  24.045  0.00  0.00    +0.004 C 
ATOM     23  C   UNL     1       9.740   5.951  23.882  0.00  0.00    +0.007 C 
ENDBRANCH  21  23
ENDBRANCH  16  21
ENDBRANCH   1  17
TORSDOF 7
ENDMDL
MODEL 2
REMARK VINA RESULT:      -6.7      2.678      7.757
REMARK  Name = 
REMARK  8 active torsions:
REMARK  status: ('A' for Active; 'I' for Inactive)
REMARK    1  A    between atoms: C_1  and  C_2
REMARK    2  A    between atoms: C_2  and  C_3
REMARK    3  A    between atoms: C_3  and  C_4
REMARK    4  A    between atoms: C_4  and  N_20
REMARK    5  A    between atoms: C_5  and  C_6
REMARK    6  A    between atoms: C_9  and  C_11
REMARK    7  A    between atoms: C_13  and  C_17
REMARK    8  A    between atoms: C_17  and  O_18
REMARK                            x       y       z     vdW  Elec       q    Type
REMARK                         _______ _______ _______ _____ _____    ______ ____
ROOT
ATOM      1  C   UNL     1       9.849  -0.987  23.342  0.00  0.00    +0.135 A 
ATOM      2  O   UNL     1       9.763   0.246  23.952  0.00  0.00    -0.455 OA
ATOM      3  C   UNL     1       9.760   1.210  22.985  0.00  0.00    +0.136 A 
ATOM      4  C   UNL     1       9.804   0.616  21.744  0.00  0.00    +0.050 A 
ATOM      5  C   UNL     1       9.895  -0.773  21.972  0.00  0.00    +0.050 A 
ENDROOT
BRANCH   3   6
ATOM      6  C   UNL     1       9.809   2.598  23.427  0.00  0.00    +0.018 A 
ATOM      7  C   UNL     1       8.765   3.190  24.151  0.00  0.00    +0.011 A 
ATOM      8  C   UNL     1       8.877   4.505  24.620  0.00  0.00    +0.001 A 
ATOM      9  C   UNL     1      10.038   5.243  24.381  0.00  0.00    +0.015 A 
ATOM     10  C   UNL     1      11.085   4.665  23.658  0.00  0.00    +0.060 A 
ATOM     11  C   UNL     1      10.958   3.361  23.165  0.00  0.00    +0.026 A 
BRANCH  10  12
ATOM     12  C   UNL     1      12.350   5.387  23.374  0.00  0.00    +0.337 C 
ATOM     13  O   UNL     1      12.920   5.327  22.299  0.00  0.00    -0.245 OA
BRANCH  12  14
ATOM     14  O   UNL     1      12.844   6.051  24.439  0.00  0.00    -0.477 OA
ATOM     15  H   UNL     1      13.665   5.674  24.808  0.00  0.00    +0.295 HD
ENDBRANCH  12  14
ENDBRANCH  10  12
ENDBRANCH   3   6
BRANCH   1  17
ATOM     16  C   UNL     1       8.993  -3.187  24.088  0.00  0.00    +0.254 C 
ATOM     17  C   UNL     1       9.936  -2.237  24.010  0.00  0.00    +0.125 C 
BRANCH  16  18
ATOM     18  N   UNL     1       7.722  -3.018  23.412  0.00  0.00    +0.075 N 
ATOM     19  O   UNL     1       6.804  -2.516  24.075  0.00  0.00    +0.041 OA
ATOM     20  O   UNL     1       7.619  -3.475  22.267  0.00  0.00    -0.576 OA
ENDBRANCH  16  18
BRANCH  16  21
ATOM     21  C   UNL     1       9.130  -4.500  24.810  0.00  0.00    +0.113 C 
BRANCH  21  23
ATOM     22  C   UNL     1       7.756  -5.125  26.877  0.00  0.00    +0.004 C 
ATOM     23  C   UNL     1       8.990  -4.414  26.338  0.00  0.00    +0.007 C 
ENDBRANCH  21  23
ENDBRANCH  16  21
ENDBRANCH   1  17
TORSDOF 7
ENDMDL
MODEL 3
REMARK VINA RESULT:      -6.7      1.531      1.779
REMARK  Name = 
REMARK  8 active torsions:
REMARK  status: ('A' for Active; 'I' for Inactive)
REMARK    1  A    between atoms: C_1  and  C_2
REMARK    2  A    between atoms: C_2  and  C_3
REMARK    3  A    between atoms: C_3  and  C_4
REMARK    4  A    between atoms: C_4  and  N_20
REMARK    5  A    between atoms: C_5  and  C_6
REMARK    6  A    between atoms: C_9  and  C_11
REMARK    7  A    between atoms: C_13  and  C_17
REMARK    8  A    between atoms: C_17  and  O_18
REMARK                            x       y       z     vdW  Elec       q    Type
REMARK                         _______ _______ _______ _____ _____    ______ ____
ROOT
ATOM      1  C   UNL     1       8.181   0.989  22.144  0.00  0.00    +0.135 A 
ATOM      2  O   UNL     1       7.741  -0.171  22.744  0.00  0.00    -0.455 OA
ATOM      3  C   UNL     1       8.655  -1.157  22.503  0.00  0.00    +0.136 A 
ATOM      4  C   UNL     1       9.708  -0.642  21.783  0.00  0.00    +0.050 A 
ATOM      5  C   UNL     1       9.391   0.708  21.527  0.00  0.00    +0.050 A 
ENDROOT
BRANCH   3   6
ATOM      6  C   UNL     1       8.312  -2.504  22.942  0.00  0.00    +0.018 A 
ATOM      7  C   UNL     1       7.439  -3.327  22.217  0.00  0.00    +0.011 A 
ATOM      8  C   UNL     1       7.187  -4.641  22.631  0.00  0.00    +0.001 A 
ATOM      9  C   UNL     1       7.812  -5.154  23.769  0.00  0.00    +0.015 A 
ATOM     10  C   UNL     1       8.683  -4.343  24.501  0.00  0.00    +0.060 A 
ATOM     11  C   UNL     1       8.909  -3.021  24.102  0.00  0.00    +0.026 A 
BRANCH  10  12
ATOM     12  C   UNL     1       9.388  -4.825  25.715  0.00  0.00    +0.337 C 
ATOM     13  O   UNL     1       9.027  -4.549  26.846  0.00  0.00    -0.245 OA
BRANCH  12  14
ATOM     14  O   UNL     1      10.506  -5.531  25.446  0.00  0.00    -0.477 OA
ATOM     15  H   UNL     1      11.335  -5.104  25.733  0.00  0.00    +0.295 HD
ENDBRANCH  12  14
ENDBRANCH  10  12
ENDBRANCH   3   6
BRANCH   1  17
ATOM     16  C   UNL     1       7.515   3.201  23.036  0.00  0.00    +0.254 C 
ATOM     17  C   UNL     1       7.481   2.225  22.117  0.00  0.00    +0.125 C 
BRANCH  16  18
ATOM     18  N   UNL     1       8.366   3.083  24.203  0.00  0.00    +0.075 N 
ATOM     19  O   UNL     1       7.820   2.715  25.252  0.00  0.00    +0.041 OA
ATOM     20  O   UNL     1       9.542   3.450  24.092  0.00  0.00    -0.576 OA
ENDBRANCH  16  18
BRANCH  16  21
ATOM     21  C   UNL     1       6.753   4.497  22.965  0.00  0.00    +0.113 C 
BRANCH  21  23
ATOM     22  C   UNL     1       8.319   6.519  22.863  0.00  0.00    +0.004 C 
ATOM     23  C   UNL     1       7.402   5.580  22.090  0.00  0.00    +0.007 C 
ENDBRANCH  21  23
ENDBRANCH  16  21
ENDBRANCH   1  17
TORSDOF 7
ENDMDL
MODEL 4
REMARK VINA RESULT:      -6.5      2.368      7.802
REMARK  Name = 
REMARK  8 active torsions:
REMARK  status: ('A' for Active; 'I' for Inactive)
REMARK    1  A    between atoms: C_1  and  C_2
REMARK    2  A    between atoms: C_2  and  C_3
REMARK    3  A    between atoms: C_3  and  C_4
REMARK    4  A    between atoms: C_4  and  N_20
REMARK    5  A    between atoms: C_5  and  C_6
REMARK    6  A    between atoms: C_9  and  C_11
REMARK    7  A    between atoms: C_13  and  C_17
REMARK    8  A    between atoms: C_17  and  O_18
REMARK                            x       y       z     vdW  Elec       q    Type
REMARK                         _______ _______ _______ _____ _____    ______ ____
ROOT
ATOM      1  C   UNL     1       8.393  -1.514  22.420  0.00  0.00    +0.135 A 
ATOM      2  O   UNL     1       8.001  -0.402  23.132  0.00  0.00    -0.455 OA
ATOM      3  C   UNL     1       8.870   0.616  22.862  0.00  0.00    +0.136 A 
ATOM      4  C   UNL     1       9.807   0.190  21.948  0.00  0.00    +0.050 A 
ATOM      5  C   UNL     1       9.525  -1.168  21.695  0.00  0.00    +0.050 A 
ENDROOT
BRANCH   3   6
ATOM      6  C   UNL     1       8.709   1.850  23.622  0.00  0.00    +0.018 A 
ATOM      7  C   UNL     1       7.811   1.957  24.693  0.00  0.00    +0.011 A 
ATOM      8  C   UNL     1       7.734   3.135  25.445  0.00  0.00    +0.001 A 
ATOM      9  C   UNL     1       8.559   4.220  25.144  0.00  0.00    +0.015 A 
ATOM     10  C   UNL     1       9.456   4.127  24.076  0.00  0.00    +0.060 A 
ATOM     11  C   UNL     1       9.510   2.958  23.308  0.00  0.00    +0.026 A 
BRANCH  10  12
ATOM     12  C   UNL     1      10.369   5.236  23.705  0.00  0.00    +0.337 C 
ATOM     13  O   UNL     1      10.107   6.409  23.914  0.00  0.00    -0.245 OA
BRANCH  12  14
ATOM     14  O   UNL     1      11.477   4.830  23.050  0.00  0.00    -0.477 OA
ATOM     15  H   UNL     1      11.465   5.000  22.090  0.00  0.00    +0.295 HD
ENDBRANCH  12  14
ENDBRANCH  10  12
ENDBRANCH   3   6
BRANCH   1  17
ATOM     16  C   UNL     1       7.977  -3.754  23.389  0.00  0.00    +0.254 C 
ATOM     17  C   UNL     1       7.779  -2.793  22.475  0.00  0.00    +0.125 C 
BRANCH  16  18
ATOM     18  N   UNL     1       8.876  -3.533  24.505  0.00  0.00    +0.075 N 
ATOM     19  O   UNL     1      10.011  -4.017  24.406  0.00  0.00    +0.041 OA
ATOM     20  O   UNL     1       8.415  -2.970  25.506  0.00  0.00    -0.576 OA
ENDBRANCH  16  18
BRANCH  16  21
ATOM     21  C   UNL     1       7.303  -5.099  23.406  0.00  0.00    +0.113 C 
BRANCH  21  23
ATOM     22  C   UNL     1       6.058  -5.870  21.306  0.00  0.00    +0.004 C 
ATOM     23  C   UNL     1       7.370  -5.871  22.080  0.00  0.00    +0.007 C 
ENDBRANCH  21  23
ENDBRANCH  16  21
ENDBRANCH   1  17
TORSDOF 7
ENDMDL
MODEL 5
REMARK VINA RESULT:      -6.5      1.788      2.314
REMARK  Name = 
REMARK  8 active torsions:
REMARK  status: ('A' for Active; 'I' for Inactive)
REMARK    1  A    between atoms: C_1  and  C_2
REMARK    2  A    between atoms: C_2  and  C_3
REMARK    3  A    between atoms: C_3  and  C_4
REMARK    4  A    between atoms: C_4  and  N_20
REMARK    5  A    between atoms: C_5  and  C_6
REMARK    6  A    between atoms: C_9  and  C_11
REMARK    7  A    between atoms: C_13  and  C_17
REMARK    8  A    between atoms: C_17  and  O_18
REMARK                            x       y       z     vdW  Elec       q    Type
REMARK                         _______ _______ _______ _____ _____    ______ ____
ROOT
ATOM      1  C   UNL     1       9.739   1.486  23.042  0.00  0.00    +0.135 A 
ATOM      2  O   UNL     1       9.519   0.258  23.629  0.00  0.00    -0.455 OA
ATOM      3  C   UNL     1       9.338  -0.668  22.642  0.00  0.00    +0.136 A 
ATOM      4  C   UNL     1       9.477  -0.064  21.413  0.00  0.00    +0.050 A 
ATOM      5  C   UNL     1       9.697   1.306  21.667  0.00  0.00    +0.050 A 
ENDROOT
BRANCH   3   6
ATOM      6  C   UNL     1       8.958  -2.014  23.053  0.00  0.00    +0.018 A 
ATOM      7  C   UNL     1       9.518  -2.640  24.175  0.00  0.00    +0.011 A 
ATOM      8  C   UNL     1       9.078  -3.906  24.580  0.00  0.00    +0.001 A 
ATOM      9  C   UNL     1       8.064  -4.560  23.877  0.00  0.00    +0.015 A 
ATOM     10  C   UNL     1       7.499  -3.947  22.755  0.00  0.00    +0.060 A 
ATOM     11  C   UNL     1       7.963  -2.695  22.334  0.00  0.00    +0.026 A 
BRANCH  10  12
ATOM     12  C   UNL     1       6.414  -4.579  21.965  0.00  0.00    +0.337 C 
ATOM     13  O   UNL     1       5.284  -4.123  21.907  0.00  0.00    -0.245 OA
BRANCH  12  14
ATOM     14  O   UNL     1       6.774  -5.741  21.382  0.00  0.00    -0.477 OA
ATOM     15  H   UNL     1       7.516  -5.666  20.753  0.00  0.00    +0.295 HD
ENDBRANCH  12  14
ENDBRANCH  10  12
ENDBRANCH   3   6
BRANCH   1  17
ATOM     16  C   UNL     1       9.025   3.709  23.865  0.00  0.00    +0.254 C 
ATOM     17  C   UNL     1       9.914   2.715  23.733  0.00  0.00    +0.125 C 
BRANCH  16  18
ATOM     18  N   UNL     1       7.694   3.585  23.304  0.00  0.00    +0.075 N 
ATOM     19  O   UNL     1       7.514   4.091  22.187  0.00  0.00    +0.041 OA
ATOM     20  O   UNL     1       6.819   3.077  24.015  0.00  0.00    -0.576 OA
ENDBRANCH  16  18
BRANCH  16  21
ATOM     21  C   UNL     1       9.256   4.998  24.606  0.00  0.00    +0.113 C 
BRANCH  21  23
ATOM     22  C   UNL     1      11.538   6.046  24.112  0.00  0.00    +0.004 C 
ATOM     23  C   UNL     1      10.043   6.060  23.823  0.00  0.00    +0.007 C 
ENDBRANCH  21  23
ENDBRANCH  16  21
ENDBRANCH   1  17
TORSDOF 7
ENDMDL
MODEL 6
REMARK VINA RESULT:      -6.4      2.291      8.044
REMARK  Name = 
REMARK  8 active torsions:
REMARK  status: ('A' for Active; 'I' for Inactive)
REMARK    1  A    between atoms: C_1  and  C_2
REMARK    2  A    between atoms: C_2  and  C_3
REMARK    3  A    between atoms: C_3  and  C_4
REMARK    4  A    between atoms: C_4  and  N_20
REMARK    5  A    between atoms: C_5  and  C_6
REMARK    6  A    between atoms: C_9  and  C_11
REMARK    7  A    between atoms: C_13  and  C_17
REMARK    8  A    between atoms: C_17  and  O_18
REMARK                            x       y       z     vdW  Elec       q    Type
REMARK                         _______ _______ _______ _____ _____    ______ ____
ROOT
ATOM      1  C   UNL     1       8.254  -1.231  22.315  0.00  0.00    +0.135 A 
ATOM      2  O   UNL     1       7.842  -0.032  22.854  0.00  0.00    -0.455 OA
ATOM      3  C   UNL     1       8.774   0.921  22.557  0.00  0.00    +0.136 A 
ATOM      4  C   UNL     1       9.774   0.363  21.793  0.00  0.00    +0.050 A 
ATOM      5  C   UNL     1       9.461  -1.006  21.669  0.00  0.00    +0.050 A 
ENDROOT
BRANCH   3   6
ATOM      6  C   UNL     1       8.593   2.240  23.152  0.00  0.00    +0.018 A 
ATOM      7  C   UNL     1       9.240   2.621  24.335  0.00  0.00    +0.011 A 
ATOM      8  C   UNL     1       9.098   3.919  24.840  0.00  0.00    +0.001 A 
ATOM      9  C   UNL     1       8.315   4.857  24.165  0.00  0.00    +0.015 A 
ATOM     10  C   UNL     1       7.661   4.488  22.986  0.00  0.00    +0.060 A 
ATOM     11  C   UNL     1       7.782   3.181  22.500  0.00  0.00    +0.026 A 
BRANCH  10  12
ATOM     12  C   UNL     1       6.821   5.434  22.212  0.00  0.00    +0.337 C 
ATOM     13  O   UNL     1       5.611   5.509  22.345  0.00  0.00    -0.245 OA
BRANCH  12  14
ATOM     14  O   UNL     1       7.510   6.148  21.298  0.00  0.00    -0.477 OA
ATOM     15  H   UNL     1       7.688   5.675  20.463  0.00  0.00    +0.295 HD
ENDBRANCH  12  14
ENDBRANCH  10  12
ENDBRANCH   3   6
BRANCH   1  17
ATOM     16  C   UNL     1       7.821  -3.431  23.366  0.00  0.00    +0.254 C 
ATOM     17  C   UNL     1       7.585  -2.476  22.455  0.00  0.00    +0.125 C 
BRANCH  16  18
ATOM     18  N   UNL     1       8.831  -3.238  24.387  0.00  0.00    +0.075 N 
ATOM     19  O   UNL     1       9.958  -3.690  24.144  0.00  0.00    +0.041 OA
ATOM     20  O   UNL     1       8.472  -2.730  25.457  0.00  0.00    -0.576 OA
ENDBRANCH  16  18
BRANCH  16  21
ATOM     21  C   UNL     1       7.085  -4.739  23.474  0.00  0.00    +0.113 C 
BRANCH  21  23
ATOM     22  C   UNL     1       6.316  -5.794  21.273  0.00  0.00    +0.004 C 
ATOM     23  C   UNL     1       7.389  -5.744  22.354  0.00  0.00    +0.007 C 
ENDBRANCH  21  23
ENDBRANCH  16  21
ENDBRANCH   1  17
TORSDOF 7
ENDMDL
MODEL 7
REMARK VINA RESULT:      -6.2      2.610      3.165
REMARK  Name = 
REMARK  8 active torsions:
REMARK  status: ('A' for Active; 'I' for Inactive)
REMARK    1  A    between atoms: C_1  and  C_2
REMARK    2  A    between atoms: C_2  and  C_3
REMARK    3  A    between atoms: C_3  and  C_4
REMARK    4  A    between atoms: C_4  and  N_20
REMARK    5  A    between atoms: C_5  and  C_6
REMARK    6  A    between atoms: C_9  and  C_11
REMARK    7  A    between atoms: C_13  and  C_17
REMARK    8  A    between atoms: C_17  and  O_18
REMARK                            x       y       z     vdW  Elec       q    Type
REMARK                         _______ _______ _______ _____ _____    ______ ____
ROOT
ATOM      1  C   UNL     1       8.227   0.972  22.045  0.00  0.00    +0.135 A 
ATOM      2  O   UNL     1       7.757  -0.192  22.615  0.00  0.00    -0.455 OA
ATOM      3  C   UNL     1       8.702  -1.165  22.458  0.00  0.00    +0.136 A 
ATOM      4  C   UNL     1       9.804  -0.637  21.824  0.00  0.00    +0.050 A 
ATOM      5  C   UNL     1       9.489   0.706  21.533  0.00  0.00    +0.050 A 
ENDROOT
BRANCH   3   6
ATOM      6  C   UNL     1       8.345  -2.515  22.876  0.00  0.00    +0.018 A 
ATOM      7  C   UNL     1       8.970  -3.154  23.956  0.00  0.00    +0.011 A 
ATOM      8  C   UNL     1       8.553  -4.424  24.373  0.00  0.00    +0.001 A 
ATOM      9  C   UNL     1       7.499  -5.069  23.724  0.00  0.00    +0.015 A 
ATOM     10  C   UNL     1       6.869  -4.443  22.645  0.00  0.00    +0.060 A 
ATOM     11  C   UNL     1       7.308  -3.187  22.211  0.00  0.00    +0.026 A 
BRANCH  10  12
ATOM     12  C   UNL     1       5.736  -5.065  21.915  0.00  0.00    +0.337 C 
ATOM     13  O   UNL     1       4.665  -5.314  22.440  0.00  0.00    -0.245 OA
BRANCH  12  14
ATOM     14  O   UNL     1       6.030  -5.394  20.640  0.00  0.00    -0.477 OA
ATOM     15  H   UNL     1       6.317  -4.647  20.083  0.00  0.00    +0.295 HD
ENDBRANCH  12  14
ENDBRANCH  10  12
ENDBRANCH   3   6
BRANCH   1  17
ATOM     16  C   UNL     1       7.496   3.199  22.841  0.00  0.00    +0.254 C 
ATOM     17  C   UNL     1       7.513   2.196  21.952  0.00  0.00    +0.125 C 
BRANCH  16  18
ATOM     18  N   UNL     1       8.298   3.128  24.046  0.00  0.00    +0.075 N 
ATOM     19  O   UNL     1       7.714   2.782  25.081  0.00  0.00    +0.041 OA
ATOM     20  O   UNL     1       9.472   3.511  23.973  0.00  0.00    -0.576 OA
ENDBRANCH  16  18
BRANCH  16  21
ATOM     21  C   UNL     1       6.720   4.481  22.699  0.00  0.00    +0.113 C 
BRANCH  21  23
ATOM     22  C   UNL     1       6.700   6.930  21.955  0.00  0.00    +0.004 C 
ATOM     23  C   UNL     1       7.484   5.625  22.016  0.00  0.00    +0.007 C 
ENDBRANCH  21  23
ENDBRANCH  16  21
ENDBRANCH   1  17
TORSDOF 7
ENDMDL
MODEL 8
REMARK VINA RESULT:      -6.2      3.312      7.937
REMARK  Name = 
REMARK  8 active torsions:
REMARK  status: ('A' for Active; 'I' for Inactive)
REMARK    1  A    between atoms: C_1  and  C_2
REMARK    2  A    between atoms: C_2  and  C_3
REMARK    3  A    between atoms: C_3  and  C_4
REMARK    4  A    between atoms: C_4  and  N_20
REMARK    5  A    between atoms: C_5  and  C_6
REMARK    6  A    between atoms: C_9  and  C_11
REMARK    7  A    between atoms: C_13  and  C_17
REMARK    8  A    between atoms: C_17  and  O_18
REMARK                            x       y       z     vdW  Elec       q    Type
REMARK                         _______ _______ _______ _____ _____    ______ ____
ROOT
ATOM      1  C   UNL     1       7.716  -3.743  23.979  0.00  0.00    +0.135 A 
ATOM      2  O   UNL     1       7.549  -2.512  23.383  0.00  0.00    -0.455 OA
ATOM      3  C   UNL     1       8.747  -1.858  23.394  0.00  0.00    +0.136 A 
ATOM      4  C   UNL     1       9.708  -2.667  23.958  0.00  0.00    +0.050 A 
ATOM      5  C   UNL     1       9.046  -3.846  24.359  0.00  0.00    +0.050 A 
ENDROOT
BRANCH   3   6
ATOM      6  C   UNL     1       8.758  -0.477  22.926  0.00  0.00    +0.018 A 
ATOM      7  C   UNL     1       9.885   0.102  22.328  0.00  0.00    +0.011 A 
ATOM      8  C   UNL     1       9.836   1.409  21.828  0.00  0.00    +0.001 A 
ATOM      9  C   UNL     1       8.657   2.152  21.909  0.00  0.00    +0.015 A 
ATOM     10  C   UNL     1       7.527   1.587  22.506  0.00  0.00    +0.060 A 
ATOM     11  C   UNL     1       7.588   0.291  23.032  0.00  0.00    +0.026 A 
BRANCH  10  12
ATOM     12  C   UNL     1       6.239   2.314  22.619  0.00  0.00    +0.337 C 
ATOM     13  O   UNL     1       6.033   3.387  22.077  0.00  0.00    -0.245 OA
BRANCH  12  14
ATOM     14  O   UNL     1       5.348   1.715  23.436  0.00  0.00    -0.477 OA
ATOM     15  H   UNL     1       5.100   0.809  23.170  0.00  0.00    +0.295 HD
ENDBRANCH  12  14
ENDBRANCH  10  12
ENDBRANCH   3   6
BRANCH   1  17
ATOM     16  C   UNL     1       5.996  -5.388  23.296  0.00  0.00    +0.254 C 
ATOM     17  C   UNL     1       6.690  -4.697  24.212  0.00  0.00    +0.125 C 
BRANCH  16  18
ATOM     18  N   UNL     1       6.286  -5.234  21.884  0.00  0.00    +0.075 N 
ATOM     19  O   UNL     1       7.153  -5.983  21.412  0.00  0.00    +0.041 OA
ATOM     20  O   UNL     1       5.726  -4.310  21.284  0.00  0.00    -0.576 OA
ENDBRANCH  16  18
BRANCH  16  21
ATOM     21  C   UNL     1       4.914  -6.390  23.591  0.00  0.00    +0.113 C 
BRANCH  21  23
ATOM     22  C   UNL     1       2.956  -4.799  24.023  0.00  0.00    +0.004 C 
ATOM     23  C   UNL     1       3.499  -5.950  23.186  0.00  0.00    +0.007 C 
ENDBRANCH  21  23
ENDBRANCH  16  21
ENDBRANCH   1  17
TORSDOF 7
ENDMDL
MODEL 9
REMARK VINA RESULT:      -6.1      3.069      4.111
REMARK  Name = 
REMARK  8 active torsions:
REMARK  status: ('A' for Active; 'I' for Inactive)
REMARK    1  A    between atoms: C_1  and  C_2
REMARK    2  A    between atoms: C_2  and  C_3
REMARK    3  A    between atoms: C_3  and  C_4
REMARK    4  A    between atoms: C_4  and  N_20
REMARK    5  A    between atoms: C_5  and  C_6
REMARK    6  A    between atoms: C_9  and  C_11
REMARK    7  A    between atoms: C_13  and  C_17
REMARK    8  A    between atoms: C_17  and  O_18
REMARK                            x       y       z     vdW  Elec       q    Type
REMARK                         _______ _______ _______ _____ _____    ______ ____
ROOT
ATOM      1  C   UNL     1       7.155  -0.352  23.150  0.00  0.00    +0.135 A 
ATOM      2  O   UNL     1       6.978  -1.579  22.548  0.00  0.00    -0.455 OA
ATOM      3  C   UNL     1       6.179  -2.344  23.348  0.00  0.00    +0.136 A 
ATOM      4  C   UNL     1       5.799  -1.613  24.451  0.00  0.00    +0.050 A 
ATOM      5  C   UNL     1       6.445  -0.365  24.342  0.00  0.00    +0.050 A 
ENDROOT
BRANCH   3   6
ATOM      6  C   UNL     1       5.976  -3.733  22.955  0.00  0.00    +0.018 A 
ATOM      7  C   UNL     1       6.408  -4.231  21.719  0.00  0.00    +0.011 A 
ATOM      8  C   UNL     1       6.258  -5.587  21.403  0.00  0.00    +0.001 A 
ATOM      9  C   UNL     1       5.685  -6.467  22.323  0.00  0.00    +0.015 A 
ATOM     10  C   UNL     1       5.247  -5.981  23.559  0.00  0.00    +0.060 A 
ATOM     11  C   UNL     1       5.371  -4.620  23.859  0.00  0.00    +0.026 A 
BRANCH  10  12
ATOM     12  C   UNL     1       4.637  -6.859  24.588  0.00  0.00    +0.337 C 
ATOM     13  O   UNL     1       4.917  -6.787  25.772  0.00  0.00    -0.245 OA
BRANCH  12  14
ATOM     14  O   UNL     1       3.803  -7.789  24.079  0.00  0.00    -0.477 OA
ATOM     15  H   UNL     1       2.859  -7.545  24.104  0.00  0.00    +0.295 HD
ENDBRANCH  12  14
ENDBRANCH  10  12
ENDBRANCH   3   6
BRANCH   1  17
ATOM     16  C   UNL     1       9.304   0.806  22.734  0.00  0.00    +0.254 C 
ATOM     17  C   UNL     1       7.970   0.703  22.658  0.00  0.00    +0.125 C 
BRANCH  16  18
ATOM     18  N   UNL     1      10.090  -0.253  23.336  0.00  0.00    +0.075 N 
ATOM     19  O   UNL     1      10.453  -1.169  22.586  0.00  0.00    +0.041 OA
ATOM     20  O   UNL     1      10.254  -0.215  24.562  0.00  0.00    -0.576 OA
ENDBRANCH  16  18
BRANCH  16  21
ATOM     21  C   UNL     1      10.126   1.946  22.198  0.00  0.00    +0.113 C 
BRANCH  21  23
ATOM     22  C   UNL     1       9.500   3.662  23.992  0.00  0.00    +0.004 C 
ATOM     23  C   UNL     1      10.623   2.938  23.261  0.00  0.00    +0.007 C 
ENDBRANCH  21  23
ENDBRANCH  16  21
ENDBRANCH   1  17
TORSDOF 7
ENDMDL
