MODEL 1
REMARK VINA RESULT:      -5.9      0.000      0.000
REMARK  Name = 
REMARK  1 active torsions:
REMARK  status: ('A' for Active; 'I' for Inactive)
REMARK    1  A    between atoms: C_1  and  C_2
REMARK                            x       y       z     vdW  Elec       q    Type
REMARK                         _______ _______ _______ _____ _____    ______ ____
ROOT
ATOM      1  C   UNL     1       6.521  -5.833  22.141  0.00  0.00    +0.147 C 
ATOM      2  C   UNL     1       7.409  -4.832  22.852  0.00  0.00    +0.315 C 
ATOM      3  N   UNL     1       7.598  -3.639  22.202  0.00  0.00    -0.201 N 
ATOM      4  H   UNL     1       7.153  -3.489  21.304  0.00  0.00    +0.298 HD
ATOM      5  C   UNL     1       8.393  -2.610  22.702  0.00  0.00    +0.148 A 
ATOM      6  C   UNL     1       8.554  -1.418  21.988  0.00  0.00    +0.052 A 
ATOM      7  C   UNL     1       9.354  -0.385  22.494  0.00  0.00    +0.024 A 
ATOM      8  C   UNL     1       9.999  -0.538  23.721  0.00  0.00    +0.043 A 
ATOM      9  C   UNL     1       9.852  -1.712  24.447  0.00  0.00    +0.055 A 
ATOM     10 CL   UNL     1      10.979   0.734  24.335  0.00  0.00    -0.083 Cl
ATOM     11  C   UNL     1       9.048  -2.730  23.923  0.00  0.00    +0.180 A 
ATOM     12  S   UNL     1       8.850  -4.222  24.837  0.00  0.00    +0.182 S 
ATOM     13  O   UNL     1      10.173  -4.811  24.902  0.00  0.00    -0.125 OA
ATOM     14  O   UNL     1       8.153  -3.838  26.050  0.00  0.00    -0.125 OA
ATOM     15  N   UNL     1       7.891  -5.205  23.986  0.00  0.00    +0.090 NA
ENDROOT
TORSDOF 0
ENDMDL
MODEL 2
REMARK VINA RESULT:      -5.8      2.981      4.518
REMARK  Name = 
REMARK  1 active torsions:
REMARK  status: ('A' for Active; 'I' for Inactive)
REMARK    1  A    between atoms: C_1  and  C_2
REMARK                            x       y       z     vdW  Elec       q    Type
REMARK                         _______ _______ _______ _____ _____    ______ ____
ROOT
ATOM      1  C   UNL     1      10.087  -0.881  22.132  0.00  0.00    +0.147 C 
ATOM      2  C   UNL     1       9.342  -2.007  22.820  0.00  0.00    +0.315 C 
ATOM      3  N   UNL     1       8.202  -2.437  22.189  0.00  0.00    -0.201 N 
ATOM      4  H   UNL     1       7.919  -1.993  21.323  0.00  0.00    +0.298 HD
ATOM      5  C   UNL     1       7.388  -3.452  22.685  0.00  0.00    +0.148 A 
ATOM      6  C   UNL     1       6.231  -3.842  22.000  0.00  0.00    +0.052 A 
ATOM      7  C   UNL     1       5.414  -4.863  22.501  0.00  0.00    +0.024 A 
ATOM      8  C   UNL     1       5.748  -5.503  23.694  0.00  0.00    +0.043 A 
ATOM      9  C   UNL     1       6.891  -5.133  24.390  0.00  0.00    +0.055 A 
ATOM     10 CL   UNL     1       4.740  -6.755  24.302  0.00  0.00    -0.083 Cl
ATOM     11  C   UNL     1       7.693  -4.112  23.870  0.00  0.00    +0.180 A 
ATOM     12  S   UNL     1       9.149  -3.637  24.741  0.00  0.00    +0.182 S 
ATOM     13  O   UNL     1       8.682  -3.113  26.011  0.00  0.00    -0.125 OA
ATOM     14  O   UNL     1      10.017  -4.798  24.697  0.00  0.00    -0.125 OA
ATOM     15  N   UNL     1       9.854  -2.438  23.919  0.00  0.00    +0.090 NA
ENDROOT
TORSDOF 0
ENDMDL
MODEL 3
REMARK VINA RESULT:      -5.6      3.239      4.392
REMARK  Name = 
REMARK  1 active torsions:
REMARK  status: ('A' for Active; 'I' for Inactive)
REMARK    1  A    between atoms: C_1  and  C_2
REMARK                            x       y       z     vdW  Elec       q    Type
REMARK                         _______ _______ _______ _____ _____    ______ ____
ROOT
ATOM      1  C   UNL     1       8.582  -1.055  26.861  0.00  0.00    +0.147 C 
ATOM      2  C   UNL     1       8.326  -2.217  25.923  0.00  0.00    +0.315 C 
ATOM      3  N   UNL     1       7.555  -1.935  24.824  0.00  0.00    -0.201 N 
ATOM      4  H   UNL     1       7.200  -0.994  24.698  0.00  0.00    +0.298 HD
ATOM      5  C   UNL     1       7.209  -2.884  23.865  0.00  0.00    +0.148 A 
ATOM      6  C   UNL     1       6.411  -2.537  22.769  0.00  0.00    +0.052 A 
ATOM      7  C   UNL     1       6.064  -3.494  21.807  0.00  0.00    +0.024 A 
ATOM      8  C   UNL     1       6.515  -4.808  21.934  0.00  0.00    +0.043 A 
ATOM      9  C   UNL     1       7.309  -5.174  23.012  0.00  0.00    +0.055 A 
ATOM     10 CL   UNL     1       6.086  -5.975  20.748  0.00  0.00    -0.083 Cl
ATOM     11  C   UNL     1       7.643  -4.201  23.961  0.00  0.00    +0.180 A 
ATOM     12  S   UNL     1       8.654  -4.653  25.331  0.00  0.00    +0.182 S 
ATOM     13  O   UNL     1       7.878  -5.626  26.076  0.00  0.00    -0.125 OA
ATOM     14  O   UNL     1       9.936  -5.014  24.758  0.00  0.00    -0.125 OA
ATOM     15  N   UNL     1       8.856  -3.343  26.254  0.00  0.00    +0.090 NA
ENDROOT
TORSDOF 0
ENDMDL
MODEL 4
REMARK VINA RESULT:      -5.4      3.761      4.999
REMARK  Name = 
REMARK  1 active torsions:
REMARK  status: ('A' for Active; 'I' for Inactive)
REMARK    1  A    between atoms: C_1  and  C_2
REMARK                            x       y       z     vdW  Elec       q    Type
REMARK                         _______ _______ _______ _____ _____    ______ ____
ROOT
ATOM      1  C   UNL     1      10.227  -1.510  22.659  0.00  0.00    +0.147 C 
ATOM      2  C   UNL     1       9.108  -2.417  23.130  0.00  0.00    +0.315 C 
ATOM      3  N   UNL     1       9.253  -2.932  24.393  0.00  0.00    -0.201 N 
ATOM      4  H   UNL     1      10.076  -2.692  24.934  0.00  0.00    +0.298 HD
ATOM      5  C   UNL     1       8.329  -3.793  24.982  0.00  0.00    +0.148 A 
ATOM      6  C   UNL     1       8.536  -4.292  26.273  0.00  0.00    +0.052 A 
ATOM      7  C   UNL     1       7.605  -5.158  26.861  0.00  0.00    +0.024 A 
ATOM      8  C   UNL     1       6.458  -5.531  26.161  0.00  0.00    +0.043 A 
ATOM      9  C   UNL     1       6.232  -5.047  24.880  0.00  0.00    +0.055 A 
ATOM     10 CL   UNL     1       5.321  -6.593  26.891  0.00  0.00    -0.083 Cl
ATOM     11  C   UNL     1       7.175  -4.183  24.313  0.00  0.00    +0.180 A 
ATOM     12  S   UNL     1       6.896  -3.558  22.689  0.00  0.00    +0.182 S 
ATOM     13  O   UNL     1       6.911  -4.721  21.823  0.00  0.00    -0.125 OA
ATOM     14  O   UNL     1       5.708  -2.733  22.796  0.00  0.00    -0.125 OA
ATOM     15  N   UNL     1       8.145  -2.611  22.298  0.00  0.00    +0.090 NA
ENDROOT
TORSDOF 0
ENDMDL
MODEL 5
REMARK VINA RESULT:      -5.3      2.700      3.254
REMARK  Name = 
REMARK  1 active torsions:
REMARK  status: ('A' for Active; 'I' for Inactive)
REMARK    1  A    between atoms: C_1  and  C_2
REMARK                            x       y       z     vdW  Elec       q    Type
REMARK                         _______ _______ _______ _____ _____    ______ ____
ROOT
ATOM      1  C   UNL     1       5.685  -6.082  26.079  0.00  0.00    +0.147 C 
ATOM      2  C   UNL     1       6.256  -5.215  24.975  0.00  0.00    +0.315 C 
ATOM      3  N   UNL     1       7.152  -4.257  25.376  0.00  0.00    -0.201 N 
ATOM      4  H   UNL     1       7.380  -4.174  26.360  0.00  0.00    +0.298 HD
ATOM      5  C   UNL     1       7.765  -3.365  24.499  0.00  0.00    +0.148 A 
ATOM      6  C   UNL     1       8.665  -2.402  24.970  0.00  0.00    +0.052 A 
ATOM      7  C   UNL     1       9.280  -1.507  24.085  0.00  0.00    +0.024 A 
ATOM      8  C   UNL     1       8.998  -1.567  22.721  0.00  0.00    +0.043 A 
ATOM      9  C   UNL     1       8.109  -2.515  22.232  0.00  0.00    +0.055 A 
ATOM     10 CL   UNL     1       9.757  -0.465  21.643  0.00  0.00    -0.083 Cl
ATOM     11  C   UNL     1       7.508  -3.400  23.133  0.00  0.00    +0.180 A 
ATOM     12  S   UNL     1       6.381  -4.610  22.524  0.00  0.00    +0.182 S 
ATOM     13  O   UNL     1       5.273  -3.857  21.970  0.00  0.00    -0.125 OA
ATOM     14  O   UNL     1       7.176  -5.481  21.680  0.00  0.00    -0.125 OA
ATOM     15  N   UNL     1       5.842  -5.467  23.783  0.00  0.00    +0.090 NA
ENDROOT
TORSDOF 0
ENDMDL
MODEL 6
REMARK VINA RESULT:      -5.3      2.423      3.025
REMARK  Name = 
REMARK  1 active torsions:
REMARK  status: ('A' for Active; 'I' for Inactive)
REMARK    1  A    between atoms: C_1  and  C_2
REMARK                            x       y       z     vdW  Elec       q    Type
REMARK                         _______ _______ _______ _____ _____    ______ ____
ROOT
ATOM      1  C   UNL     1       6.397  -5.364  27.766  0.00  0.00    +0.147 C 
ATOM      2  C   UNL     1       7.296  -4.653  26.775  0.00  0.00    +0.315 C 
ATOM      3  N   UNL     1       7.349  -3.288  26.895  0.00  0.00    -0.201 N 
ATOM      4  H   UNL     1       6.799  -2.833  27.615  0.00  0.00    +0.298 HD
ATOM      5  C   UNL     1       8.112  -2.473  26.062  0.00  0.00    +0.148 A 
ATOM      6  C   UNL     1       8.118  -1.083  26.228  0.00  0.00    +0.052 A 
ATOM      7  C   UNL     1       8.887  -0.267  25.389  0.00  0.00    +0.024 A 
ATOM      8  C   UNL     1       9.656  -0.836  24.374  0.00  0.00    +0.043 A 
ATOM      9  C   UNL     1       9.665  -2.212  24.191  0.00  0.00    +0.055 A 
ATOM     10 CL   UNL     1      10.596   0.173  23.348  0.00  0.00    -0.083 Cl
ATOM     11  C   UNL     1       8.891  -3.008  25.042  0.00  0.00    +0.180 A 
ATOM     12  S   UNL     1       8.899  -4.756  24.823  0.00  0.00    +0.182 S 
ATOM     13  O   UNL     1       8.329  -4.980  23.509  0.00  0.00    -0.125 OA
ATOM     14  O   UNL     1      10.256  -5.172  25.120  0.00  0.00    -0.125 OA
ATOM     15  N   UNL     1       7.912  -5.401  25.928  0.00  0.00    +0.090 NA
ENDROOT
TORSDOF 0
ENDMDL
MODEL 7
REMARK VINA RESULT:      -5.3      3.884      5.231
REMARK  Name = 
REMARK  1 active torsions:
REMARK  status: ('A' for Active; 'I' for Inactive)
REMARK    1  A    between atoms: C_1  and  C_2
REMARK                            x       y       z     vdW  Elec       q    Type
REMARK                         _______ _______ _______ _____ _____    ______ ____
ROOT
ATOM      1  C   UNL     1      10.591   2.754  23.505  0.00  0.00    +0.147 C 
ATOM      2  C   UNL     1      10.142   1.313  23.638  0.00  0.00    +0.315 C 
ATOM      3  N   UNL     1       9.726   0.934  24.888  0.00  0.00    -0.201 N 
ATOM      4  H   UNL     1       9.742   1.612  25.642  0.00  0.00    +0.298 HD
ATOM      5  C   UNL     1       9.292  -0.354  25.195  0.00  0.00    +0.148 A 
ATOM      6  C   UNL     1       8.887  -0.684  26.493  0.00  0.00    +0.052 A 
ATOM      7  C   UNL     1       8.451  -1.980  26.798  0.00  0.00    +0.024 A 
ATOM      8  C   UNL     1       8.417  -2.957  25.804  0.00  0.00    +0.043 A 
ATOM      9  C   UNL     1       8.813  -2.652  24.509  0.00  0.00    +0.055 A 
ATOM     10 CL   UNL     1       7.881  -4.545  26.186  0.00  0.00    -0.083 Cl
ATOM     11  C   UNL     1       9.244  -1.351  24.227  0.00  0.00    +0.180 A 
ATOM     12  S   UNL     1       9.744  -0.951  22.586  0.00  0.00    +0.182 S 
ATOM     13  O   UNL     1      10.909  -1.775  22.328  0.00  0.00    -0.125 OA
ATOM     14  O   UNL     1       8.548  -1.089  21.777  0.00  0.00    -0.125 OA
ATOM     15  N   UNL     1      10.199   0.600  22.568  0.00  0.00    +0.090 NA
ENDROOT
TORSDOF 0
ENDMDL
MODEL 8
REMARK VINA RESULT:      -5.3      3.445      4.790
REMARK  Name = 
REMARK  1 active torsions:
REMARK  status: ('A' for Active; 'I' for Inactive)
REMARK    1  A    between atoms: C_1  and  C_2
REMARK                            x       y       z     vdW  Elec       q    Type
REMARK                         _______ _______ _______ _____ _____    ______ ____
ROOT
ATOM      1  C   UNL     1       8.290   0.858  25.419  0.00  0.00    +0.147 C 
ATOM      2  C   UNL     1       8.245  -0.415  24.598  0.00  0.00    +0.315 C 
ATOM      3  N   UNL     1       6.998  -0.954  24.405  0.00  0.00    -0.201 N 
ATOM      4  H   UNL     1       6.192  -0.492  24.810  0.00  0.00    +0.298 HD
ATOM      5  C   UNL     1       6.771  -2.126  23.688  0.00  0.00    +0.148 A 
ATOM      6  C   UNL     1       5.476  -2.631  23.531  0.00  0.00    +0.052 A 
ATOM      7  C   UNL     1       5.251  -3.810  22.809  0.00  0.00    +0.024 A 
ATOM      8  C   UNL     1       6.324  -4.495  22.237  0.00  0.00    +0.043 A 
ATOM      9  C   UNL     1       7.617  -4.011  22.379  0.00  0.00    +0.055 A 
ATOM     10 CL   UNL     1       6.039  -5.941  21.353  0.00  0.00    -0.083 Cl
ATOM     11  C   UNL     1       7.818  -2.831  23.103  0.00  0.00    +0.180 A 
ATOM     12  S   UNL     1       9.454  -2.205  23.286  0.00  0.00    +0.182 S 
ATOM     13  O   UNL     1      10.168  -3.214  24.044  0.00  0.00    -0.125 OA
ATOM     14  O   UNL     1       9.880  -1.851  21.945  0.00  0.00    -0.125 OA
ATOM     15  N   UNL     1       9.376  -0.857  24.172  0.00  0.00    +0.090 NA
ENDROOT
TORSDOF 0
ENDMDL
MODEL 9
REMARK VINA RESULT:      -5.2      4.313      5.300
REMARK  Name = 
REMARK  1 active torsions:
REMARK  status: ('A' for Active; 'I' for Inactive)
REMARK    1  A    between atoms: C_1  and  C_2
REMARK                            x       y       z     vdW  Elec       q    Type
REMARK                         _______ _______ _______ _____ _____    ______ ____
ROOT
ATOM      1  C   UNL     1       6.132  -5.843  20.670  0.00  0.00    +0.147 C 
ATOM      2  C   UNL     1       6.367  -5.659  22.156  0.00  0.00    +0.315 C 
ATOM      3  N   UNL     1       5.453  -6.262  22.981  0.00  0.00    -0.201 N 
ATOM      4  H   UNL     1       4.686  -6.784  22.571  0.00  0.00    +0.298 HD
ATOM      5  C   UNL     1       5.506  -6.187  24.371  0.00  0.00    +0.148 A 
ATOM      6  C   UNL     1       4.538  -6.819  25.160  0.00  0.00    +0.052 A 
ATOM      7  C   UNL     1       4.594  -6.741  26.557  0.00  0.00    +0.024 A 
ATOM      8  C   UNL     1       5.622  -6.029  27.177  0.00  0.00    +0.043 A 
ATOM      9  C   UNL     1       6.593  -5.396  26.413  0.00  0.00    +0.055 A 
ATOM     10 CL   UNL     1       5.683  -5.939  28.892  0.00  0.00    -0.083 Cl
ATOM     11  C   UNL     1       6.517  -5.488  25.020  0.00  0.00    +0.180 A 
ATOM     12  S   UNL     1       7.747  -4.693  24.041  0.00  0.00    +0.182 S 
ATOM     13  O   UNL     1       7.598  -3.276  24.313  0.00  0.00    -0.125 OA
ATOM     14  O   UNL     1       8.987  -5.378  24.353  0.00  0.00    -0.125 OA
ATOM     15  N   UNL     1       7.394  -4.956  22.486  0.00  0.00    +0.090 NA
ENDROOT
TORSDOF 0
ENDMDL
