MODEL 1
REMARK VINA RESULT:      -5.9      0.000      0.000
REMARK  Name = 
REMARK  2 active torsions:
REMARK  status: ('A' for Active; 'I' for Inactive)
REMARK    1  A    between atoms: N_1  and  C_2
REMARK    2  A    between atoms: C_4  and  C_9
REMARK                            x       y       z     vdW  Elec       q    Type
REMARK                         _______ _______ _______ _____ _____    ______ ____
ROOT
ATOM      1  C   UNL     1       9.865  -0.123  22.089  0.00  0.00    +0.090 A 
ATOM      2  C   UNL     1      10.170  -0.941  23.334  0.00  0.00    +0.270 A 
ATOM      3  O   UNL     1      10.198  -2.170  23.301  0.00  0.00    -0.266 OA
ATOM      4  N   UNL     1      10.436  -0.231  24.479  0.00  0.00    -0.327 N 
ATOM      5  H   UNL     1      10.629  -0.785  25.303  0.00  0.00    +0.168 HD
ATOM      6  C   UNL     1      10.504   1.138  24.535  0.00  0.00    +0.094 A 
ATOM      7  C   UNL     1      10.288   1.883  23.436  0.00  0.00    +0.000 A 
ATOM      8  C   UNL     1       9.947   1.214  22.191  0.00  0.00    +0.038 A 
ENDROOT
BRANCH   7   9
ATOM      9  C   UNL     1      10.446   3.341  23.546  0.00  0.00    -0.014 A 
ATOM     10  C   UNL     1      11.683   3.949  23.336  0.00  0.00    +0.028 A 
ATOM     11  C   UNL     1      11.758   5.329  23.438  0.00  0.00    +0.111 A 
ATOM     12  N   UNL     1      10.704   6.121  23.732  0.00  0.00    -0.263 NA
ATOM     13  C   UNL     1       9.521   5.507  23.939  0.00  0.00    +0.111 A 
ATOM     14  C   UNL     1       9.341   4.136  23.861  0.00  0.00    +0.028 A 
ENDBRANCH   7   9
BRANCH   1  15
ATOM     15  N   UNL     1       9.545  -0.817  20.934  0.00  0.00    -0.354 N 
ATOM     16  H   UNL     1       8.542  -0.751  20.741  0.00  0.00    +0.142 HD
ATOM     17  H   UNL     1       9.896  -1.769  20.917  0.00  0.00    +0.142 HD
ENDBRANCH   1  15
TORSDOF 2
ENDMDL
MODEL 2
REMARK VINA RESULT:      -5.7      2.965      6.271
REMARK  Name = 
REMARK  2 active torsions:
REMARK  status: ('A' for Active; 'I' for Inactive)
REMARK    1  A    between atoms: N_1  and  C_2
REMARK    2  A    between atoms: C_4  and  C_9
REMARK                            x       y       z     vdW  Elec       q    Type
REMARK                         _______ _______ _______ _____ _____    ______ ____
ROOT
ATOM      1  C   UNL     1       9.788   1.076  22.552  0.00  0.00    +0.090 A 
ATOM      2  C   UNL     1      10.243   1.599  23.905  0.00  0.00    +0.270 A 
ATOM      3  O   UNL     1      10.561   2.777  24.061  0.00  0.00    -0.266 OA
ATOM      4  N   UNL     1      10.252   0.694  24.937  0.00  0.00    -0.327 N 
ATOM      5  H   UNL     1      10.565   1.051  25.830  0.00  0.00    +0.168 HD
ATOM      6  C   UNL     1       9.818  -0.602  24.823  0.00  0.00    +0.094 A 
ATOM      7  C   UNL     1       9.362  -1.076  23.650  0.00  0.00    +0.000 A 
ATOM      8  C   UNL     1       9.369  -0.199  22.490  0.00  0.00    +0.038 A 
ENDROOT
BRANCH   7   9
ATOM      9  C   UNL     1       8.845  -2.453  23.612  0.00  0.00    -0.014 A 
ATOM     10  C   UNL     1       9.231  -3.392  24.567  0.00  0.00    +0.028 A 
ATOM     11  C   UNL     1       8.693  -4.666  24.485  0.00  0.00    +0.111 A 
ATOM     12  N   UNL     1       7.818  -5.054  23.532  0.00  0.00    -0.263 NA
ATOM     13  C   UNL     1       7.467  -4.128  22.615  0.00  0.00    +0.111 A 
ATOM     14  C   UNL     1       7.949  -2.830  22.610  0.00  0.00    +0.028 A 
ENDBRANCH   7   9
BRANCH   1  15
ATOM     15  N   UNL     1       9.818   1.958  21.485  0.00  0.00    -0.354 N 
ATOM     16  H   UNL     1      10.499   2.703  21.654  0.00  0.00    +0.142 HD
ATOM     17  H   UNL     1       8.904   2.303  21.211  0.00  0.00    +0.142 HD
ENDBRANCH   1  15
TORSDOF 2
ENDMDL
MODEL 3
REMARK VINA RESULT:      -5.6      3.442      5.284
REMARK  Name = 
REMARK  2 active torsions:
REMARK  status: ('A' for Active; 'I' for Inactive)
REMARK    1  A    between atoms: N_1  and  C_2
REMARK    2  A    between atoms: C_4  and  C_9
REMARK                            x       y       z     vdW  Elec       q    Type
REMARK                         _______ _______ _______ _____ _____    ______ ____
ROOT
ATOM      1  C   UNL     1       9.254  -4.652  25.464  0.00  0.00    +0.090 A 
ATOM      2  C   UNL     1       8.221  -4.347  26.536  0.00  0.00    +0.270 A 
ATOM      3  O   UNL     1       7.937  -5.171  27.404  0.00  0.00    -0.266 OA
ATOM      4  N   UNL     1       7.650  -3.099  26.494  0.00  0.00    -0.327 N 
ATOM      5  H   UNL     1       6.958  -2.910  27.207  0.00  0.00    +0.168 HD
ATOM      6  C   UNL     1       8.007  -2.122  25.600  0.00  0.00    +0.094 A 
ATOM      7  C   UNL     1       8.955  -2.350  24.673  0.00  0.00    +0.000 A 
ATOM      8  C   UNL     1       9.574  -3.664  24.612  0.00  0.00    +0.038 A 
ENDROOT
BRANCH   7   9
ATOM      9  C   UNL     1       9.341  -1.239  23.790  0.00  0.00    -0.014 A 
ATOM     10  C   UNL     1       9.913  -0.076  24.305  0.00  0.00    +0.028 A 
ATOM     11  C   UNL     1      10.271   0.925  23.416  0.00  0.00    +0.111 A 
ATOM     12  N   UNL     1      10.094   0.843  22.079  0.00  0.00    -0.263 NA
ATOM     13  C   UNL     1       9.531  -0.289  21.608  0.00  0.00    +0.111 A 
ATOM     14  C   UNL     1       9.139  -1.346  22.412  0.00  0.00    +0.028 A 
ENDBRANCH   7   9
BRANCH   1  15
ATOM     15  N   UNL     1       9.807  -5.922  25.456  0.00  0.00    -0.354 N 
ATOM     16  H   UNL     1       9.654  -6.387  26.354  0.00  0.00    +0.142 HD
ATOM     17  H   UNL     1      10.775  -5.947  25.151  0.00  0.00    +0.142 HD
ENDBRANCH   1  15
TORSDOF 2
ENDMDL
MODEL 4
REMARK VINA RESULT:      -5.5      3.612      6.475
REMARK  Name = 
REMARK  2 active torsions:
REMARK  status: ('A' for Active; 'I' for Inactive)
REMARK    1  A    between atoms: N_1  and  C_2
REMARK    2  A    between atoms: C_4  and  C_9
REMARK                            x       y       z     vdW  Elec       q    Type
REMARK                         _______ _______ _______ _____ _____    ______ ____
ROOT
ATOM      1  C   UNL     1       8.899   1.242  22.102  0.00  0.00    +0.090 A 
ATOM      2  C   UNL     1       7.468   1.751  22.185  0.00  0.00    +0.270 A 
ATOM      3  O   UNL     1       7.158   2.861  21.755  0.00  0.00    -0.266 OA
ATOM      4  N   UNL     1       6.548   0.895  22.738  0.00  0.00    -0.327 N 
ATOM      5  H   UNL     1       5.601   1.247  22.795  0.00  0.00    +0.168 HD
ATOM      6  C   UNL     1       6.837  -0.383  23.144  0.00  0.00    +0.094 A 
ATOM      7  C   UNL     1       8.084  -0.875  23.034  0.00  0.00    +0.000 A 
ATOM      8  C   UNL     1       9.133  -0.016  22.509  0.00  0.00    +0.038 A 
ENDROOT
BRANCH   7   9
ATOM      9  C   UNL     1       8.312  -2.276  23.421  0.00  0.00    -0.014 A 
ATOM     10  C   UNL     1       9.322  -2.619  24.319  0.00  0.00    +0.028 A 
ATOM     11  C   UNL     1       9.470  -3.955  24.655  0.00  0.00    +0.111 A 
ATOM     12  N   UNL     1       8.697  -4.946  24.161  0.00  0.00    -0.263 NA
ATOM     13  C   UNL     1       7.733  -4.588  23.288  0.00  0.00    +0.111 A 
ATOM     14  C   UNL     1       7.503  -3.283  22.888  0.00  0.00    +0.028 A 
ENDBRANCH   7   9
BRANCH   1  15
ATOM     15  N   UNL     1       9.853   2.107  21.594  0.00  0.00    -0.354 N 
ATOM     16  H   UNL     1      10.524   1.600  21.010  0.00  0.00    +0.142 HD
ATOM     17  H   UNL     1      10.295   2.691  22.297  0.00  0.00    +0.142 HD
ENDBRANCH   1  15
TORSDOF 2
ENDMDL
MODEL 5
REMARK VINA RESULT:      -5.5      2.664      5.574
REMARK  Name = 
REMARK  2 active torsions:
REMARK  status: ('A' for Active; 'I' for Inactive)
REMARK    1  A    between atoms: N_1  and  C_2
REMARK    2  A    between atoms: C_4  and  C_9
REMARK                            x       y       z     vdW  Elec       q    Type
REMARK                         _______ _______ _______ _____ _____    ______ ____
ROOT
ATOM      1  C   UNL     1      11.634   5.030  23.616  0.00  0.00    +0.090 A 
ATOM      2  C   UNL     1      10.385   5.732  24.126  0.00  0.00    +0.270 A 
ATOM      3  O   UNL     1      10.384   6.938  24.369  0.00  0.00    -0.266 OA
ATOM      4  N   UNL     1       9.265   4.952  24.273  0.00  0.00    -0.327 N 
ATOM      5  H   UNL     1       8.443   5.428  24.621  0.00  0.00    +0.168 HD
ATOM      6  C   UNL     1       9.203   3.627  23.927  0.00  0.00    +0.094 A 
ATOM      7  C   UNL     1      10.279   2.995  23.425  0.00  0.00    +0.000 A 
ATOM      8  C   UNL     1      11.524   3.733  23.287  0.00  0.00    +0.038 A 
ENDROOT
BRANCH   7   9
ATOM      9  C   UNL     1      10.126   1.592  23.008  0.00  0.00    -0.014 A 
ATOM     10  C   UNL     1       9.570   1.266  21.772  0.00  0.00    +0.028 A 
ATOM     11  C   UNL     1       9.472  -0.074  21.433  0.00  0.00    +0.111 A 
ATOM     12  N   UNL     1       9.880  -1.084  22.231  0.00  0.00    -0.263 NA
ATOM     13  C   UNL     1      10.407  -0.742  23.426  0.00  0.00    +0.111 A 
ATOM     14  C   UNL     1      10.549   0.567  23.857  0.00  0.00    +0.028 A 
ENDBRANCH   7   9
BRANCH   1  15
ATOM     15  N   UNL     1      12.789   5.785  23.508  0.00  0.00    -0.354 N 
ATOM     16  H   UNL     1      13.122   6.070  24.433  0.00  0.00    +0.142 HD
ATOM     17  H   UNL     1      12.716   6.557  22.853  0.00  0.00    +0.142 HD
ENDBRANCH   1  15
TORSDOF 2
ENDMDL
MODEL 6
REMARK VINA RESULT:      -5.4      5.830      8.162
REMARK  Name = 
REMARK  2 active torsions:
REMARK  status: ('A' for Active; 'I' for Inactive)
REMARK    1  A    between atoms: N_1  and  C_2
REMARK    2  A    between atoms: C_4  and  C_9
REMARK                            x       y       z     vdW  Elec       q    Type
REMARK                         _______ _______ _______ _____ _____    ______ ____
ROOT
ATOM      1  C   UNL     1       5.562  -6.293  25.523  0.00  0.00    +0.090 A 
ATOM      2  C   UNL     1       4.775  -6.874  24.358  0.00  0.00    +0.270 A 
ATOM      3  O   UNL     1       3.846  -7.658  24.541  0.00  0.00    -0.266 OA
ATOM      4  N   UNL     1       5.144  -6.453  23.104  0.00  0.00    -0.327 N 
ATOM      5  H   UNL     1       4.620  -6.852  22.336  0.00  0.00    +0.168 HD
ATOM      6  C   UNL     1       6.113  -5.512  22.865  0.00  0.00    +0.094 A 
ATOM      7  C   UNL     1       6.788  -4.945  23.881  0.00  0.00    +0.000 A 
ATOM      8  C   UNL     1       6.498  -5.373  25.240  0.00  0.00    +0.038 A 
ENDROOT
BRANCH   7   9
ATOM      9  C   UNL     1       7.763  -3.891  23.561  0.00  0.00    -0.014 A 
ATOM     10  C   UNL     1       8.920  -3.726  24.323  0.00  0.00    +0.028 A 
ATOM     11  C   UNL     1       9.806  -2.726  23.956  0.00  0.00    +0.111 A 
ATOM     12  N   UNL     1       9.615  -1.898  22.906  0.00  0.00    -0.263 NA
ATOM     13  C   UNL     1       8.483  -2.074  22.191  0.00  0.00    +0.111 A 
ATOM     14  C   UNL     1       7.536  -3.043  22.476  0.00  0.00    +0.028 A 
ENDBRANCH   7   9
BRANCH   1  15
ATOM     15  N   UNL     1       5.241  -6.740  26.793  0.00  0.00    -0.354 N 
ATOM     16  H   UNL     1       5.935  -6.419  27.474  0.00  0.00    +0.142 HD
ATOM     17  H   UNL     1       5.060  -7.738  26.844  0.00  0.00    +0.142 HD
ENDBRANCH   1  15
TORSDOF 2
ENDMDL
MODEL 7
REMARK VINA RESULT:      -5.3      0.835      2.189
REMARK  Name = 
REMARK  2 active torsions:
REMARK  status: ('A' for Active; 'I' for Inactive)
REMARK    1  A    between atoms: N_1  and  C_2
REMARK    2  A    between atoms: C_4  and  C_9
REMARK                            x       y       z     vdW  Elec       q    Type
REMARK                         _______ _______ _______ _____ _____    ______ ____
ROOT
ATOM      1  C   UNL     1       9.660  -0.205  24.035  0.00  0.00    +0.090 A 
ATOM      2  C   UNL     1       9.489  -0.592  22.573  0.00  0.00    +0.270 A 
ATOM      3  O   UNL     1       9.134  -1.723  22.248  0.00  0.00    -0.266 OA
ATOM      4  N   UNL     1       9.728   0.397  21.651  0.00  0.00    -0.327 N 
ATOM      5  H   UNL     1       9.620   0.126  20.682  0.00  0.00    +0.168 HD
ATOM      6  C   UNL     1      10.037   1.692  21.977  0.00  0.00    +0.094 A 
ATOM      7  C   UNL     1      10.144   2.072  23.263  0.00  0.00    +0.000 A 
ATOM      8  C   UNL     1       9.960   1.075  24.305  0.00  0.00    +0.038 A 
ENDROOT
BRANCH   7   9
ATOM      9  C   UNL     1      10.407   3.491  23.546  0.00  0.00    -0.014 A 
ATOM     10  C   UNL     1       9.417   4.314  24.081  0.00  0.00    +0.028 A 
ATOM     11  C   UNL     1       9.737   5.637  24.340  0.00  0.00    +0.111 A 
ATOM     12  N   UNL     1      10.952   6.178  24.104  0.00  0.00    -0.263 NA
ATOM     13  C   UNL     1      11.890   5.362  23.579  0.00  0.00    +0.111 A 
ATOM     14  C   UNL     1      11.670   4.028  23.284  0.00  0.00    +0.028 A 
ENDBRANCH   7   9
BRANCH   1  15
ATOM     15  N   UNL     1       9.473  -1.198  24.981  0.00  0.00    -0.354 N 
ATOM     16  H   UNL     1      10.322  -1.329  25.538  0.00  0.00    +0.142 HD
ATOM     17  H   UNL     1       9.104  -2.064  24.601  0.00  0.00    +0.142 HD
ENDBRANCH   1  15
TORSDOF 2
ENDMDL
MODEL 8
REMARK VINA RESULT:      -5.1      3.191      6.809
REMARK  Name = 
REMARK  2 active torsions:
REMARK  status: ('A' for Active; 'I' for Inactive)
REMARK    1  A    between atoms: N_1  and  C_2
REMARK    2  A    between atoms: C_4  and  C_9
REMARK                            x       y       z     vdW  Elec       q    Type
REMARK                         _______ _______ _______ _____ _____    ______ ____
ROOT
ATOM      1  C   UNL     1       9.357   0.777  23.906  0.00  0.00    +0.090 A 
ATOM      2  C   UNL     1       9.874   1.169  22.530  0.00  0.00    +0.270 A 
ATOM      3  O   UNL     1      10.415   2.255  22.335  0.00  0.00    -0.266 OA
ATOM      4  N   UNL     1       9.724   0.234  21.535  0.00  0.00    -0.327 N 
ATOM      5  H   UNL     1      10.063   0.509  20.622  0.00  0.00    +0.168 HD
ATOM      6  C   UNL     1       9.209  -1.021  21.733  0.00  0.00    +0.094 A 
ATOM      7  C   UNL     1       8.792  -1.410  22.952  0.00  0.00    +0.000 A 
ATOM      8  C   UNL     1       8.864  -0.463  24.052  0.00  0.00    +0.038 A 
ENDROOT
BRANCH   7   9
ATOM      9  C   UNL     1       8.316  -2.793  23.112  0.00  0.00    -0.014 A 
ATOM     10  C   UNL     1       7.368  -3.333  22.243  0.00  0.00    +0.028 A 
ATOM     11  C   UNL     1       6.977  -4.648  22.439  0.00  0.00    +0.111 A 
ATOM     12  N   UNL     1       7.457  -5.437  23.424  0.00  0.00    -0.263 NA
ATOM     13  C   UNL     1       8.367  -4.888  24.256  0.00  0.00    +0.111 A 
ATOM     14  C   UNL     1       8.823  -3.585  24.145  0.00  0.00    +0.028 A 
ENDBRANCH   7   9
BRANCH   1  15
ATOM     15  N   UNL     1       9.452   1.722  24.913  0.00  0.00    -0.354 N 
ATOM     16  H   UNL     1       9.241   1.301  25.822  0.00  0.00    +0.142 HD
ATOM     17  H   UNL     1       8.926   2.571  24.732  0.00  0.00    +0.142 HD
ENDBRANCH   1  15
TORSDOF 2
ENDMDL
MODEL 9
REMARK VINA RESULT:      -5.1      2.736      4.342
REMARK  Name = 
REMARK  2 active torsions:
REMARK  status: ('A' for Active; 'I' for Inactive)
REMARK    1  A    between atoms: N_1  and  C_2
REMARK    2  A    between atoms: C_4  and  C_9
REMARK                            x       y       z     vdW  Elec       q    Type
REMARK                         _______ _______ _______ _____ _____    ______ ____
ROOT
ATOM      1  C   UNL     1       8.583  -3.480  25.031  0.00  0.00    +0.090 A 
ATOM      2  C   UNL     1       7.915  -4.172  23.853  0.00  0.00    +0.270 A 
ATOM      3  O   UNL     1       7.363  -5.263  23.982  0.00  0.00    -0.266 OA
ATOM      4  N   UNL     1       7.943  -3.500  22.656  0.00  0.00    -0.327 N 
ATOM      5  H   UNL     1       7.503  -3.974  21.878  0.00  0.00    +0.168 HD
ATOM      6  C   UNL     1       8.468  -2.243  22.494  0.00  0.00    +0.094 A 
ATOM      7  C   UNL     1       9.018  -1.588  23.532  0.00  0.00    +0.000 A 
ATOM      8  C   UNL     1       9.080  -2.249  24.826  0.00  0.00    +0.038 A 
ENDROOT
BRANCH   7   9
ATOM      9  C   UNL     1       9.499  -0.216  23.308  0.00  0.00    -0.014 A 
ATOM     10  C   UNL     1      10.079   0.521  24.340  0.00  0.00    +0.028 A 
ATOM     11  C   UNL     1      10.527   1.801  24.057  0.00  0.00    +0.111 A 
ATOM     12  N   UNL     1      10.433   2.379  22.839  0.00  0.00    -0.263 NA
ATOM     13  C   UNL     1       9.860   1.648  21.860  0.00  0.00    +0.111 A 
ATOM     14  C   UNL     1       9.381   0.362  22.042  0.00  0.00    +0.028 A 
ENDBRANCH   7   9
BRANCH   1  15
ATOM     15  N   UNL     1       8.611  -4.160  26.237  0.00  0.00    -0.354 N 
ATOM     16  H   UNL     1       8.679  -5.169  26.079  0.00  0.00    +0.142 HD
ATOM     17  H   UNL     1       7.862  -3.903  26.871  0.00  0.00    +0.142 HD
ENDBRANCH   1  15
TORSDOF 2
ENDMDL
