MODEL 1
REMARK VINA RESULT:      -3.7      0.000      0.000
REMARK  Name = 
REMARK  4 active torsions:
REMARK  status: ('A' for Active; 'I' for Inactive)
REMARK    1  A    between atoms: C_1  and  C_2
REMARK    2  A    between atoms: C_5  and  P_7
REMARK    3  A    between atoms: P_7  and  O_8
REMARK    4  A    between atoms: P_7  and  O_9
REMARK                            x       y       z     vdW  Elec       q    Type
REMARK                         _______ _______ _______ _____ _____    ______ ____
ROOT
ATOM      1  P   UNL     1       9.093  -4.425  25.052  0.00  0.00    +0.359 P 
ATOM      2  O   UNL     1      10.089  -3.595  24.206  0.00  0.00    -0.256 OA
ENDROOT
BRANCH   1   5
ATOM      3  C   UNL     1       6.605  -3.242  26.777  0.00  0.00    +0.041 C 
ATOM      4  C   UNL     1       6.765  -4.720  26.746  0.00  0.00    +0.157 C 
ATOM      5  C   UNL     1       7.915  -5.406  26.051  0.00  0.00    +0.260 C 
ATOM      6  O   UNL     1       7.871  -5.241  27.487  0.00  0.00    -0.356 OA
ENDBRANCH   1   5
BRANCH   1   7
ATOM      7  O   UNL     1       8.475  -5.180  23.736  0.00  0.00    -0.322 OA
ATOM      8  H   UNL     1       8.609  -6.136  23.908  0.00  0.00    +0.220 HD
ENDBRANCH   1   7
BRANCH   1   9
ATOM      9  O   UNL     1      10.219  -5.577  25.407  0.00  0.00    -0.322 OA
ATOM     10  H   UNL     1      10.872  -5.317  26.086  0.00  0.00    +0.220 HD
ENDBRANCH   1   9
TORSDOF 3
ENDMDL
MODEL 2
REMARK VINA RESULT:      -3.6      5.982      6.625
REMARK  Name = 
REMARK  4 active torsions:
REMARK  status: ('A' for Active; 'I' for Inactive)
REMARK    1  A    between atoms: C_1  and  C_2
REMARK    2  A    between atoms: C_5  and  P_7
REMARK    3  A    between atoms: P_7  and  O_8
REMARK    4  A    between atoms: P_7  and  O_9
REMARK                            x       y       z     vdW  Elec       q    Type
REMARK                         _______ _______ _______ _____ _____    ______ ____
ROOT
ATOM      1  P   UNL     1       9.156   1.036  22.161  0.00  0.00    +0.359 P 
ATOM      2  O   UNL     1       8.045   1.593  21.236  0.00  0.00    -0.256 OA
ENDROOT
BRANCH   1   5
ATOM      3  C   UNL     1       8.833   0.322  25.315  0.00  0.00    +0.041 C 
ATOM      4  C   UNL     1      10.148   0.031  24.686  0.00  0.00    +0.157 C 
ATOM      5  C   UNL     1      10.468   0.379  23.254  0.00  0.00    +0.260 C 
ATOM      6  O   UNL     1      10.948   1.170  24.364  0.00  0.00    -0.356 OA
ENDBRANCH   1   5
BRANCH   1   7
ATOM      7  O   UNL     1       9.545  -0.161  21.113  0.00  0.00    -0.322 OA
ATOM      8  H   UNL     1       9.987  -0.842  21.663  0.00  0.00    +0.220 HD
ENDBRANCH   1   7
BRANCH   1   9
ATOM      9  O   UNL     1      10.273   2.121  21.617  0.00  0.00    -0.322 OA
ATOM     10  H   UNL     1      10.915   2.422  22.291  0.00  0.00    +0.220 HD
ENDBRANCH   1   9
TORSDOF 3
ENDMDL
MODEL 3
REMARK VINA RESULT:      -3.5      5.391      6.405
REMARK  Name = 
REMARK  4 active torsions:
REMARK  status: ('A' for Active; 'I' for Inactive)
REMARK    1  A    between atoms: C_1  and  C_2
REMARK    2  A    between atoms: C_5  and  P_7
REMARK    3  A    between atoms: P_7  and  O_8
REMARK    4  A    between atoms: P_7  and  O_9
REMARK                            x       y       z     vdW  Elec       q    Type
REMARK                         _______ _______ _______ _____ _____    ______ ____
ROOT
ATOM      1  P   UNL     1       9.670  -1.020  22.858  0.00  0.00    +0.359 P 
ATOM      2  O   UNL     1       9.796  -2.183  23.872  0.00  0.00    -0.256 OA
ENDROOT
BRANCH   1   5
ATOM      3  C   UNL     1      10.375   2.100  23.437  0.00  0.00    +0.041 C 
ATOM      4  C   UNL     1       9.952   1.746  22.057  0.00  0.00    +0.157 C 
ATOM      5  C   UNL     1       9.521   0.356  21.661  0.00  0.00    +0.260 C 
ATOM      6  O   UNL     1       8.570   1.419  21.895  0.00  0.00    -0.356 OA
ENDBRANCH   1   5
BRANCH   1   7
ATOM      7  O   UNL     1      10.678  -1.735  21.784  0.00  0.00    -0.322 OA
ATOM      8  H   UNL     1      11.578  -1.461  22.062  0.00  0.00    +0.220 HD
ENDBRANCH   1   7
BRANCH   1   9
ATOM      9  O   UNL     1       8.272  -1.615  22.216  0.00  0.00    -0.322 OA
ATOM     10  H   UNL     1       7.645  -1.985  22.869  0.00  0.00    +0.220 HD
ENDBRANCH   1   9
TORSDOF 3
ENDMDL
MODEL 4
REMARK VINA RESULT:      -3.5      4.505      5.426
REMARK  Name = 
REMARK  4 active torsions:
REMARK  status: ('A' for Active; 'I' for Inactive)
REMARK    1  A    between atoms: C_1  and  C_2
REMARK    2  A    between atoms: C_5  and  P_7
REMARK    3  A    between atoms: P_7  and  O_8
REMARK    4  A    between atoms: P_7  and  O_9
REMARK                            x       y       z     vdW  Elec       q    Type
REMARK                         _______ _______ _______ _____ _____    ______ ____
ROOT
ATOM      1  P   UNL     1       9.348  -1.542  22.821  0.00  0.00    +0.359 P 
ATOM      2  O   UNL     1       8.314  -2.565  22.289  0.00  0.00    -0.256 OA
ENDROOT
BRANCH   1   5
ATOM      3  C   UNL     1       8.793   0.735  25.072  0.00  0.00    +0.041 C 
ATOM      4  C   UNL     1      10.180   0.623  24.550  0.00  0.00    +0.157 C 
ATOM      5  C   UNL     1      10.569  -0.333  23.450  0.00  0.00    +0.260 C 
ATOM      6  O   UNL     1      10.378   1.079  23.209  0.00  0.00    -0.356 OA
ENDBRANCH   1   5
BRANCH   1   7
ATOM      7  O   UNL     1      10.239  -2.701  23.559  0.00  0.00    -0.322 OA
ATOM      8  H   UNL     1       9.616  -3.445  23.702  0.00  0.00    +0.220 HD
ENDBRANCH   1   7
BRANCH   1   9
ATOM      9  O   UNL     1      10.199  -1.535  21.407  0.00  0.00    -0.322 OA
ATOM     10  H   UNL     1      11.161  -1.396  21.509  0.00  0.00    +0.220 HD
ENDBRANCH   1   9
TORSDOF 3
ENDMDL
MODEL 5
REMARK VINA RESULT:      -3.4      5.721      6.643
REMARK  Name = 
REMARK  4 active torsions:
REMARK  status: ('A' for Active; 'I' for Inactive)
REMARK    1  A    between atoms: C_1  and  C_2
REMARK    2  A    between atoms: C_5  and  P_7
REMARK    3  A    between atoms: P_7  and  O_8
REMARK    4  A    between atoms: P_7  and  O_9
REMARK                            x       y       z     vdW  Elec       q    Type
REMARK                         _______ _______ _______ _____ _____    ______ ____
ROOT
ATOM      1  P   UNL     1       8.865   1.104  21.944  0.00  0.00    +0.359 P 
ATOM      2  O   UNL     1       7.743   2.059  21.470  0.00  0.00    -0.256 OA
ENDROOT
BRANCH   1   5
ATOM      3  C   UNL     1       8.618  -2.121  22.261  0.00  0.00    +0.041 C 
ATOM      4  C   UNL     1       9.946  -1.514  22.536  0.00  0.00    +0.157 C 
ATOM      5  C   UNL     1      10.191  -0.025  22.504  0.00  0.00    +0.260 C 
ATOM      6  O   UNL     1      10.045  -0.754  23.743  0.00  0.00    -0.356 OA
ENDBRANCH   1   5
BRANCH   1   7
ATOM      7  O   UNL     1      10.051   2.152  21.520  0.00  0.00    -0.322 OA
ATOM      8  H   UNL     1       9.887   2.951  22.065  0.00  0.00    +0.220 HD
ENDBRANCH   1   7
BRANCH   1   9
ATOM      9  O   UNL     1       8.742   1.597  23.513  0.00  0.00    -0.322 OA
ATOM     10  H   UNL     1       9.499   2.124  23.839  0.00  0.00    +0.220 HD
ENDBRANCH   1   9
TORSDOF 3
ENDMDL
MODEL 6
REMARK VINA RESULT:      -3.4      2.007      3.287
REMARK  Name = 
REMARK  4 active torsions:
REMARK  status: ('A' for Active; 'I' for Inactive)
REMARK    1  A    between atoms: C_1  and  C_2
REMARK    2  A    between atoms: C_5  and  P_7
REMARK    3  A    between atoms: P_7  and  O_8
REMARK    4  A    between atoms: P_7  and  O_9
REMARK                            x       y       z     vdW  Elec       q    Type
REMARK                         _______ _______ _______ _____ _____    ______ ____
ROOT
ATOM      1  P   UNL     1       7.760  -5.151  26.174  0.00  0.00    +0.359 P 
ATOM      2  O   UNL     1       7.535  -5.688  27.608  0.00  0.00    -0.256 OA
ENDROOT
BRANCH   1   5
ATOM      3  C   UNL     1       5.819  -5.665  23.617  0.00  0.00    +0.041 C 
ATOM      4  C   UNL     1       6.998  -4.784  23.406  0.00  0.00    +0.157 C 
ATOM      5  C   UNL     1       8.026  -4.517  24.478  0.00  0.00    +0.260 C 
ATOM      6  O   UNL     1       8.269  -5.438  23.391  0.00  0.00    -0.356 OA
ENDBRANCH   1   5
BRANCH   1   7
ATOM      7  O   UNL     1       8.540  -3.813  26.706  0.00  0.00    -0.322 OA
ATOM      8  H   UNL     1       9.428  -3.858  26.293  0.00  0.00    +0.220 HD
ENDBRANCH   1   7
BRANCH   1   9
ATOM      9  O   UNL     1       9.113  -6.069  25.948  0.00  0.00    -0.322 OA
ATOM     10  H   UNL     1       9.957  -5.591  26.067  0.00  0.00    +0.220 HD
ENDBRANCH   1   9
TORSDOF 3
ENDMDL
MODEL 7
REMARK VINA RESULT:      -3.4      6.338      7.465
REMARK  Name = 
REMARK  4 active torsions:
REMARK  status: ('A' for Active; 'I' for Inactive)
REMARK    1  A    between atoms: C_1  and  C_2
REMARK    2  A    between atoms: C_5  and  P_7
REMARK    3  A    between atoms: P_7  and  O_8
REMARK    4  A    between atoms: P_7  and  O_9
REMARK                            x       y       z     vdW  Elec       q    Type
REMARK                         _______ _______ _______ _____ _____    ______ ____
ROOT
ATOM      1  P   UNL     1      10.239   2.762  23.325  0.00  0.00    +0.359 P 
ATOM      2  O   UNL     1      11.464   3.705  23.257  0.00  0.00    -0.256 OA
ENDROOT
BRANCH   1   5
ATOM      3  C   UNL     1      10.031   0.026  25.068  0.00  0.00    +0.041 C 
ATOM      4  C   UNL     1       8.819   0.443  24.315  0.00  0.00    +0.157 C 
ATOM      5  C   UNL     1       8.791   1.646  23.404  0.00  0.00    +0.260 C 
ATOM      6  O   UNL     1       8.888   0.297  22.895  0.00  0.00    -0.356 OA
ENDBRANCH   1   5
BRANCH   1   7
ATOM      7  O   UNL     1       9.176   3.989  23.114  0.00  0.00    -0.322 OA
ATOM      8  H   UNL     1       9.464   4.682  23.746  0.00  0.00    +0.220 HD
ENDBRANCH   1   7
BRANCH   1   9
ATOM      9  O   UNL     1      10.357   2.351  21.731  0.00  0.00    -0.322 OA
ATOM     10  H   UNL     1       9.549   2.514  21.204  0.00  0.00    +0.220 HD
ENDBRANCH   1   9
TORSDOF 3
ENDMDL
MODEL 8
REMARK VINA RESULT:      -3.4      3.382      4.547
REMARK  Name = 
REMARK  4 active torsions:
REMARK  status: ('A' for Active; 'I' for Inactive)
REMARK    1  A    between atoms: C_1  and  C_2
REMARK    2  A    between atoms: C_5  and  P_7
REMARK    3  A    between atoms: P_7  and  O_8
REMARK    4  A    between atoms: P_7  and  O_9
REMARK                            x       y       z     vdW  Elec       q    Type
REMARK                         _______ _______ _______ _____ _____    ______ ____
ROOT
ATOM      1  P   UNL     1       5.448  -4.965  22.672  0.00  0.00    +0.359 P 
ATOM      2  O   UNL     1       3.900  -4.975  22.707  0.00  0.00    -0.256 OA
ENDROOT
BRANCH   1   5
ATOM      3  C   UNL     1       7.416  -5.033  25.258  0.00  0.00    +0.041 C 
ATOM      4  C   UNL     1       8.058  -5.057  23.918  0.00  0.00    +0.157 C 
ATOM      5  C   UNL     1       7.277  -4.954  22.631  0.00  0.00    +0.260 C 
ATOM      6  O   UNL     1       8.006  -3.833  23.181  0.00  0.00    -0.356 OA
ENDBRANCH   1   5
BRANCH   1   7
ATOM      7  O   UNL     1       5.518  -6.286  21.706  0.00  0.00    -0.322 OA
ATOM      8  H   UNL     1       5.403  -5.938  20.796  0.00  0.00    +0.220 HD
ENDBRANCH   1   7
BRANCH   1   9
ATOM      9  O   UNL     1       5.501  -3.850  21.457  0.00  0.00    -0.322 OA
ATOM     10  H   UNL     1       5.994  -4.133  20.662  0.00  0.00    +0.220 HD
ENDBRANCH   1   9
TORSDOF 3
ENDMDL
MODEL 9
REMARK VINA RESULT:      -3.3      2.256      2.993
REMARK  Name = 
REMARK  4 active torsions:
REMARK  status: ('A' for Active; 'I' for Inactive)
REMARK    1  A    between atoms: C_1  and  C_2
REMARK    2  A    between atoms: C_5  and  P_7
REMARK    3  A    between atoms: P_7  and  O_8
REMARK    4  A    between atoms: P_7  and  O_9
REMARK                            x       y       z     vdW  Elec       q    Type
REMARK                         _______ _______ _______ _____ _____    ______ ____
ROOT
ATOM      1  P   UNL     1       8.687  -4.784  25.515  0.00  0.00    +0.359 P 
ATOM      2  O   UNL     1       9.243  -4.467  26.924  0.00  0.00    -0.256 OA
ENDROOT
BRANCH   1   5
ATOM      3  C   UNL     1       7.501  -2.620  23.399  0.00  0.00    +0.041 C 
ATOM      4  C   UNL     1       7.574  -4.036  22.951  0.00  0.00    +0.157 C 
ATOM      5  C   UNL     1       8.029  -5.159  23.849  0.00  0.00    +0.260 C 
ATOM      6  O   UNL     1       6.633  -4.928  23.553  0.00  0.00    -0.356 OA
ENDBRANCH   1   5
BRANCH   1   7
ATOM      7  O   UNL     1       9.854  -5.893  25.212  0.00  0.00    -0.322 OA
ATOM      8  H   UNL     1       9.529  -6.720  25.628  0.00  0.00    +0.220 HD
ENDBRANCH   1   7
BRANCH   1   9
ATOM      9  O   UNL     1       7.573  -5.852  26.099  0.00  0.00    -0.322 OA
ATOM     10  H   UNL     1       7.448  -5.825  27.069  0.00  0.00    +0.220 HD
ENDBRANCH   1   9
TORSDOF 3
ENDMDL
