MODEL 1
REMARK VINA RESULT:      -6.5      0.000      0.000
REMARK  Name = 
REMARK  3 active torsions:
REMARK  status: ('A' for Active; 'I' for Inactive)
REMARK    1  A    between atoms: C_2  and  O_3
REMARK    2  A    between atoms: C_5  and  N_12
REMARK    3  A    between atoms: C_8  and  C_10
REMARK                            x       y       z     vdW  Elec       q    Type
REMARK                         _______ _______ _______ _____ _____    ______ ____
ROOT
ATOM      1  N   UNL     1       8.771  -2.160  23.024  0.00  0.00    -0.288 N 
ATOM      2  C   UNL     1       8.803  -3.200  23.916  0.00  0.00    +0.167 A 
ATOM      3  N   UNL     1       9.878  -3.846  24.398  0.00  0.00    -0.216 NA
ATOM      4  C   UNL     1       9.503  -4.816  25.263  0.00  0.00    +0.225 A 
ATOM      5  N   UNL     1       8.257  -5.157  25.658  0.00  0.00    -0.219 NA
ATOM      6  C   UNL     1       7.215  -4.458  25.160  0.00  0.00    +0.147 A 
ATOM      7  N   UNL     1       5.931  -4.775  25.589  0.00  0.00    -0.341 N 
ATOM      8  H   UNL     1       5.203  -4.451  24.963  0.00  0.00    +0.144 HD
ATOM      9  H   UNL     1       5.865  -5.711  25.959  0.00  0.00    +0.144 HD
ATOM     10  C   UNL     1       7.474  -3.440  24.230  0.00  0.00    +0.147 A 
ATOM     11  N   UNL     1       6.641  -2.594  23.537  0.00  0.00    -0.231 NA
ATOM     12  C   UNL     1       7.453  -1.812  22.858  0.00  0.00    +0.203 A 
ENDROOT
BRANCH   1  16
ATOM     13  C   UNL     1       9.279   0.778  22.154  0.00  0.00    +0.150 C 
ATOM     14  C   UNL     1      10.220   0.698  23.353  0.00  0.00    +0.180 C 
ATOM     15  O   UNL     1      10.542  -0.698  23.533  0.00  0.00    -0.348 OA
ATOM     16  C   UNL     1       9.925  -1.467  22.477  0.00  0.00    +0.225 C 
ATOM     17  C   UNL     1       9.638  -0.463  21.371  0.00  0.00    +0.088 C 
BRANCH  13  18
ATOM     18  O   UNL     1       9.448   1.964  21.399  0.00  0.00    -0.389 OA
ATOM     19  H   UNL     1      10.189   2.478  21.768  0.00  0.00    +0.210 HD
ENDBRANCH  13  18
BRANCH  14  20
ATOM     20  C   UNL     1       9.574   1.278  24.607  0.00  0.00    +0.247 C 
ATOM     21  F   UNL     1       9.647   2.637  24.558  0.00  0.00    -0.246 F 
ENDBRANCH  14  20
ENDBRANCH   1  16
TORSDOF 3
ENDMDL
MODEL 2
REMARK VINA RESULT:      -6.5      3.347      5.698
REMARK  Name = 
REMARK  3 active torsions:
REMARK  status: ('A' for Active; 'I' for Inactive)
REMARK    1  A    between atoms: C_2  and  O_3
REMARK    2  A    between atoms: C_5  and  N_12
REMARK    3  A    between atoms: C_8  and  C_10
REMARK                            x       y       z     vdW  Elec       q    Type
REMARK                         _______ _______ _______ _____ _____    ______ ____
ROOT
ATOM      1  N   UNL     1       9.279  -2.125  23.589  0.00  0.00    -0.288 N 
ATOM      2  C   UNL     1       9.725  -0.848  23.808  0.00  0.00    +0.167 A 
ATOM      3  N   UNL     1      10.278  -0.343  24.923  0.00  0.00    -0.216 NA
ATOM      4  C   UNL     1      10.594   0.960  24.751  0.00  0.00    +0.225 A 
ATOM      5  N   UNL     1      10.427   1.730  23.653  0.00  0.00    -0.219 NA
ATOM      6  C   UNL     1       9.887   1.164  22.552  0.00  0.00    +0.147 A 
ATOM      7  N   UNL     1       9.746   1.936  21.405  0.00  0.00    -0.341 N 
ATOM      8  H   UNL     1       9.067   1.567  20.749  0.00  0.00    +0.144 HD
ATOM      9  H   UNL     1       9.735   2.926  21.601  0.00  0.00    +0.144 HD
ATOM     10  C   UNL     1       9.493  -0.180  22.615  0.00  0.00    +0.147 A 
ATOM     11  N   UNL     1       8.899  -1.008  21.692  0.00  0.00    -0.231 NA
ATOM     12  C   UNL     1       8.825  -2.176  22.293  0.00  0.00    +0.203 A 
ENDROOT
BRANCH   1  16
ATOM     13  C   UNL     1       7.225  -3.725  25.282  0.00  0.00    +0.150 C 
ATOM     14  C   UNL     1       7.659  -4.815  24.307  0.00  0.00    +0.180 C 
ATOM     15  O   UNL     1       8.971  -4.444  23.830  0.00  0.00    -0.348 OA
ATOM     16  C   UNL     1       9.400  -3.243  24.508  0.00  0.00    +0.225 C 
ATOM     17  C   UNL     1       8.545  -3.170  25.764  0.00  0.00    +0.088 C 
BRANCH  13  18
ATOM     18  O   UNL     1       6.425  -4.219  26.341  0.00  0.00    -0.389 OA
ATOM     19  H   UNL     1       5.668  -3.621  26.479  0.00  0.00    +0.210 HD
ENDBRANCH  13  18
BRANCH  14  20
ATOM     20  C   UNL     1       6.674  -4.951  23.151  0.00  0.00    +0.247 C 
ATOM     21  F   UNL     1       7.348  -5.341  22.033  0.00  0.00    -0.246 F 
ENDBRANCH  14  20
ENDBRANCH   1  16
TORSDOF 3
ENDMDL
MODEL 3
REMARK VINA RESULT:      -6.3      1.974      2.876
REMARK  Name = 
REMARK  3 active torsions:
REMARK  status: ('A' for Active; 'I' for Inactive)
REMARK    1  A    between atoms: C_2  and  O_3
REMARK    2  A    between atoms: C_5  and  N_12
REMARK    3  A    between atoms: C_8  and  C_10
REMARK                            x       y       z     vdW  Elec       q    Type
REMARK                         _______ _______ _______ _____ _____    ______ ____
ROOT
ATOM      1  N   UNL     1       8.400  -1.662  24.278  0.00  0.00    -0.288 N 
ATOM      2  C   UNL     1       8.193  -2.664  25.190  0.00  0.00    +0.167 A 
ATOM      3  N   UNL     1       7.217  -2.761  26.108  0.00  0.00    -0.216 NA
ATOM      4  C   UNL     1       7.344  -3.903  26.821  0.00  0.00    +0.225 A 
ATOM      5  N   UNL     1       8.276  -4.874  26.698  0.00  0.00    -0.219 NA
ATOM      6  C   UNL     1       9.219  -4.737  25.742  0.00  0.00    +0.147 A 
ATOM      7  N   UNL     1      10.159  -5.747  25.581  0.00  0.00    -0.341 N 
ATOM      8  H   UNL     1      10.996  -5.449  25.091  0.00  0.00    +0.144 HD
ATOM      9  H   UNL     1      10.264  -6.317  26.407  0.00  0.00    +0.144 HD
ATOM     10  C   UNL     1       9.209  -3.578  24.951  0.00  0.00    +0.147 A 
ATOM     11  N   UNL     1      10.036  -3.145  23.942  0.00  0.00    -0.231 NA
ATOM     12  C   UNL     1       9.498  -2.017  23.533  0.00  0.00    +0.203 A 
ENDROOT
BRANCH   1  16
ATOM     13  C   UNL     1       8.833   1.407  24.469  0.00  0.00    +0.150 C 
ATOM     14  C   UNL     1       8.610   1.271  22.966  0.00  0.00    +0.180 C 
ATOM     15  O   UNL     1       7.855   0.056  22.768  0.00  0.00    -0.348 OA
ATOM     16  C   UNL     1       7.534  -0.517  24.055  0.00  0.00    +0.225 C 
ATOM     17  C   UNL     1       7.674   0.628  25.045  0.00  0.00    +0.088 C 
BRANCH  13  18
ATOM     18  O   UNL     1       8.851   2.755  24.904  0.00  0.00    -0.389 OA
ATOM     19  H   UNL     1       8.294   3.292  24.312  0.00  0.00    +0.210 HD
ENDBRANCH  13  18
BRANCH  14  20
ATOM     20  C   UNL     1       9.934   1.224  22.209  0.00  0.00    +0.247 C 
ATOM     21  F   UNL     1       9.841   0.310  21.204  0.00  0.00    -0.246 F 
ENDBRANCH  14  20
ENDBRANCH   1  16
TORSDOF 3
ENDMDL
MODEL 4
REMARK VINA RESULT:      -6.2      2.104      3.324
REMARK  Name = 
REMARK  3 active torsions:
REMARK  status: ('A' for Active; 'I' for Inactive)
REMARK    1  A    between atoms: C_2  and  O_3
REMARK    2  A    between atoms: C_5  and  N_12
REMARK    3  A    between atoms: C_8  and  C_10
REMARK                            x       y       z     vdW  Elec       q    Type
REMARK                         _______ _______ _______ _____ _____    ______ ____
ROOT
ATOM      1  N   UNL     1       8.026  -2.326  24.354  0.00  0.00    -0.288 N 
ATOM      2  C   UNL     1       7.163  -2.864  23.435  0.00  0.00    +0.167 A 
ATOM      3  N   UNL     1       6.092  -2.288  22.864  0.00  0.00    -0.216 NA
ATOM      4  C   UNL     1       5.495  -3.139  22.001  0.00  0.00    +0.225 A 
ATOM      5  N   UNL     1       5.851  -4.403  21.681  0.00  0.00    -0.219 NA
ATOM      6  C   UNL     1       6.950  -4.925  22.267  0.00  0.00    +0.147 A 
ATOM      7  N   UNL     1       7.349  -6.209  21.917  0.00  0.00    -0.341 N 
ATOM      8  H   UNL     1       7.959  -6.645  22.599  0.00  0.00    +0.144 HD
ATOM      9  H   UNL     1       6.596  -6.757  21.527  0.00  0.00    +0.144 HD
ATOM     10  C   UNL     1       7.644  -4.145  23.204  0.00  0.00    +0.147 A 
ATOM     11  N   UNL     1       8.754  -4.403  23.974  0.00  0.00    -0.231 NA
ATOM     12  C   UNL     1       8.980  -3.278  24.617  0.00  0.00    +0.203 A 
ENDROOT
BRANCH   1  16
ATOM     13  C   UNL     1      10.202  -0.123  24.594  0.00  0.00    +0.150 C 
ATOM     14  C   UNL     1       9.305   0.515  23.538  0.00  0.00    +0.180 C 
ATOM     15  O   UNL     1       7.993  -0.065  23.704  0.00  0.00    -0.348 OA
ATOM     16  C   UNL     1       8.009  -0.957  24.841  0.00  0.00    +0.225 C 
ATOM     17  C   UNL     1       9.214  -0.528  25.664  0.00  0.00    +0.088 C 
BRANCH  13  18
ATOM     18  O   UNL     1      11.197   0.760  25.080  0.00  0.00    -0.389 OA
ATOM     19  H   UNL     1      11.712   1.108  24.330  0.00  0.00    +0.210 HD
ENDBRANCH  13  18
BRANCH  14  20
ATOM     20  C   UNL     1       9.841   0.269  22.131  0.00  0.00    +0.247 C 
ATOM     21  F   UNL     1      10.230   1.456  21.588  0.00  0.00    -0.246 F 
ENDBRANCH  14  20
ENDBRANCH   1  16
TORSDOF 3
ENDMDL
MODEL 5
REMARK VINA RESULT:      -6.0      3.467      5.665
REMARK  Name = 
REMARK  3 active torsions:
REMARK  status: ('A' for Active; 'I' for Inactive)
REMARK    1  A    between atoms: C_2  and  O_3
REMARK    2  A    between atoms: C_5  and  N_12
REMARK    3  A    between atoms: C_8  and  C_10
REMARK                            x       y       z     vdW  Elec       q    Type
REMARK                         _______ _______ _______ _____ _____    ______ ____
ROOT
ATOM      1  N   UNL     1       7.613  -3.357  23.650  0.00  0.00    -0.288 N 
ATOM      2  C   UNL     1       8.559  -2.463  23.220  0.00  0.00    +0.167 A 
ATOM      3  N   UNL     1       9.876  -2.667  23.050  0.00  0.00    -0.216 NA
ATOM      4  C   UNL     1      10.479  -1.542  22.606  0.00  0.00    +0.225 A 
ATOM      5  N   UNL     1       9.925  -0.340  22.332  0.00  0.00    -0.219 NA
ATOM      6  C   UNL     1       8.593  -0.198  22.499  0.00  0.00    +0.147 A 
ATOM      7  N   UNL     1       8.006   1.022  22.184  0.00  0.00    -0.341 N 
ATOM      8  H   UNL     1       7.101   1.161  22.619  0.00  0.00    +0.144 HD
ATOM      9  H   UNL     1       8.666   1.785  22.193  0.00  0.00    +0.144 HD
ATOM     10  C   UNL     1       7.858  -1.291  22.982  0.00  0.00    +0.147 A 
ATOM     11  N   UNL     1       6.524  -1.443  23.278  0.00  0.00    -0.231 NA
ATOM     12  C   UNL     1       6.405  -2.704  23.634  0.00  0.00    +0.203 A 
ENDROOT
BRANCH   1  16
ATOM     13  C   UNL     1       7.642  -5.033  26.264  0.00  0.00    +0.150 C 
ATOM     14  C   UNL     1       6.406  -5.624  25.593  0.00  0.00    +0.180 C 
ATOM     15  O   UNL     1       6.553  -5.389  24.176  0.00  0.00    -0.348 OA
ATOM     16  C   UNL     1       7.833  -4.766  23.929  0.00  0.00    +0.225 C 
ATOM     17  C   UNL     1       8.670  -5.080  25.158  0.00  0.00    +0.088 C 
BRANCH  13  18
ATOM     18  O   UNL     1       8.045  -5.758  27.412  0.00  0.00    -0.389 OA
ATOM     19  H   UNL     1       7.378  -6.438  27.615  0.00  0.00    +0.210 HD
ENDBRANCH  13  18
BRANCH  14  20
ATOM     20  C   UNL     1       5.126  -4.986  26.125  0.00  0.00    +0.247 C 
ATOM     21  F   UNL     1       5.425  -3.774  26.670  0.00  0.00    -0.246 F 
ENDBRANCH  14  20
ENDBRANCH   1  16
TORSDOF 3
ENDMDL
MODEL 6
REMARK VINA RESULT:      -6.0      3.005      4.518
REMARK  Name = 
REMARK  3 active torsions:
REMARK  status: ('A' for Active; 'I' for Inactive)
REMARK    1  A    between atoms: C_2  and  O_3
REMARK    2  A    between atoms: C_5  and  N_12
REMARK    3  A    between atoms: C_8  and  C_10
REMARK                            x       y       z     vdW  Elec       q    Type
REMARK                         _______ _______ _______ _____ _____    ______ ____
ROOT
ATOM      1  N   UNL     1       6.505  -4.904  24.501  0.00  0.00    -0.288 N 
ATOM      2  C   UNL     1       5.418  -5.516  25.068  0.00  0.00    +0.167 A 
ATOM      3  N   UNL     1       4.171  -5.614  24.577  0.00  0.00    -0.216 NA
ATOM      4  C   UNL     1       3.375  -6.299  25.428  0.00  0.00    +0.225 A 
ATOM      5  N   UNL     1       3.694  -6.853  26.619  0.00  0.00    -0.219 NA
ATOM      6  C   UNL     1       4.968  -6.744  27.053  0.00  0.00    +0.147 A 
ATOM      7  N   UNL     1       5.317  -7.343  28.258  0.00  0.00    -0.341 N 
ATOM      8  H   UNL     1       6.163  -6.966  28.669  0.00  0.00    +0.144 HD
ATOM      9  H   UNL     1       4.521  -7.502  28.858  0.00  0.00    +0.144 HD
ATOM     10  C   UNL     1       5.886  -6.031  26.267  0.00  0.00    +0.147 A 
ATOM     11  N   UNL     1       7.214  -5.728  26.452  0.00  0.00    -0.231 NA
ATOM     12  C   UNL     1       7.563  -5.090  25.356  0.00  0.00    +0.203 A 
ENDROOT
BRANCH   1  16
ATOM     13  C   UNL     1       6.686  -1.969  23.502  0.00  0.00    +0.150 C 
ATOM     14  C   UNL     1       8.044  -2.485  23.035  0.00  0.00    +0.180 C 
ATOM     15  O   UNL     1       7.919  -3.917  22.901  0.00  0.00    -0.348 OA
ATOM     16  C   UNL     1       6.554  -4.302  23.179  0.00  0.00    +0.225 C 
ATOM     17  C   UNL     1       5.739  -3.032  22.995  0.00  0.00    +0.088 C 
BRANCH  13  18
ATOM     18  O   UNL     1       6.381  -0.683  22.995  0.00  0.00    -0.389 OA
ATOM     19  H   UNL     1       5.683  -0.760  22.320  0.00  0.00    +0.210 HD
ENDBRANCH  13  18
BRANCH  14  20
ATOM     20  C   UNL     1       9.147  -2.119  24.022  0.00  0.00    +0.247 C 
ATOM     21  F   UNL     1      10.108  -3.085  23.995  0.00  0.00    -0.246 F 
ENDBRANCH  14  20
ENDBRANCH   1  16
TORSDOF 3
ENDMDL
MODEL 7
REMARK VINA RESULT:      -5.9      2.110      2.286
REMARK  Name = 
REMARK  3 active torsions:
REMARK  status: ('A' for Active; 'I' for Inactive)
REMARK    1  A    between atoms: C_2  and  O_3
REMARK    2  A    between atoms: C_5  and  N_12
REMARK    3  A    between atoms: C_8  and  C_10
REMARK                            x       y       z     vdW  Elec       q    Type
REMARK                         _______ _______ _______ _____ _____    ______ ____
ROOT
ATOM      1  N   UNL     1       7.886  -1.579  22.930  0.00  0.00    -0.288 N 
ATOM      2  C   UNL     1       6.999  -2.590  22.664  0.00  0.00    +0.167 A 
ATOM      3  N   UNL     1       7.068  -3.522  21.699  0.00  0.00    -0.216 NA
ATOM      4  C   UNL     1       6.003  -4.353  21.761  0.00  0.00    +0.225 A 
ATOM      5  N   UNL     1       4.972  -4.337  22.634  0.00  0.00    -0.219 NA
ATOM      6  C   UNL     1       4.965  -3.392  23.598  0.00  0.00    +0.147 A 
ATOM      7  N   UNL     1       3.929  -3.390  24.525  0.00  0.00    -0.341 N 
ATOM      8  H   UNL     1       3.811  -2.502  25.000  0.00  0.00    +0.144 HD
ATOM      9  H   UNL     1       3.106  -3.869  24.189  0.00  0.00    +0.144 HD
ATOM     10  C   UNL     1       6.006  -2.453  23.623  0.00  0.00    +0.147 A 
ATOM     11  N   UNL     1       6.255  -1.377  24.442  0.00  0.00    -0.231 NA
ATOM     12  C   UNL     1       7.410  -0.904  24.027  0.00  0.00    +0.203 A 
ENDROOT
BRANCH   1  16
ATOM     13  C   UNL     1       9.520   0.968  22.236  0.00  0.00    +0.150 C 
ATOM     14  C   UNL     1      10.458   0.331  23.257  0.00  0.00    +0.180 C 
ATOM     15  O   UNL     1      10.160  -1.082  23.267  0.00  0.00    -0.348 OA
ATOM     16  C   UNL     1       9.158  -1.362  22.264  0.00  0.00    +0.225 C 
ATOM     17  C   UNL     1       9.217  -0.183  21.305  0.00  0.00    +0.088 C 
BRANCH  13  18
ATOM     18  O   UNL     1      10.104   2.070  21.564  0.00  0.00    -0.389 OA
ATOM     19  H   UNL     1      10.396   2.729  22.220  0.00  0.00    +0.210 HD
ENDBRANCH  13  18
BRANCH  14  20
ATOM     20  C   UNL     1      10.269   0.942  24.642  0.00  0.00    +0.247 C 
ATOM     21  F   UNL     1       9.331   1.927  24.571  0.00  0.00    -0.246 F 
ENDBRANCH  14  20
ENDBRANCH   1  16
TORSDOF 3
ENDMDL
MODEL 8
REMARK VINA RESULT:      -5.9      1.960      2.647
REMARK  Name = 
REMARK  3 active torsions:
REMARK  status: ('A' for Active; 'I' for Inactive)
REMARK    1  A    between atoms: C_2  and  O_3
REMARK    2  A    between atoms: C_5  and  N_12
REMARK    3  A    between atoms: C_8  and  C_10
REMARK                            x       y       z     vdW  Elec       q    Type
REMARK                         _______ _______ _______ _____ _____    ______ ____
ROOT
ATOM      1  N   UNL     1       9.606  -0.912  24.519  0.00  0.00    -0.288 N 
ATOM      2  C   UNL     1       8.754  -1.733  25.211  0.00  0.00    +0.167 A 
ATOM      3  N   UNL     1       7.942  -1.414  26.232  0.00  0.00    -0.216 NA
ATOM      4  C   UNL     1       7.250  -2.498  26.648  0.00  0.00    +0.225 A 
ATOM      5  N   UNL     1       7.290  -3.760  26.166  0.00  0.00    -0.219 NA
ATOM      6  C   UNL     1       8.107  -4.019  25.123  0.00  0.00    +0.147 A 
ATOM      7  N   UNL     1       8.129  -5.304  24.594  0.00  0.00    -0.341 N 
ATOM      8  H   UNL     1       8.962  -5.506  24.052  0.00  0.00    +0.144 HD
ATOM      9  H   UNL     1       7.801  -5.999  25.247  0.00  0.00    +0.144 HD
ATOM     10  C   UNL     1       8.899  -2.978  24.617  0.00  0.00    +0.147 A 
ATOM     11  N   UNL     1       9.831  -2.938  23.606  0.00  0.00    -0.231 NA
ATOM     12  C   UNL     1      10.201  -1.677  23.546  0.00  0.00    +0.203 A 
ENDROOT
BRANCH   1  16
ATOM     13  C   UNL     1       9.879   1.461  22.535  0.00  0.00    +0.150 C 
ATOM     14  C   UNL     1       8.509   1.776  23.127  0.00  0.00    +0.180 C 
ATOM     15  O   UNL     1       8.462   1.140  24.423  0.00  0.00    -0.348 OA
ATOM     16  C   UNL     1       9.740   0.524  24.695  0.00  0.00    +0.225 C 
ATOM     17  C   UNL     1      10.722   1.221  23.766  0.00  0.00    +0.088 C 
BRANCH  13  18
ATOM     18  O   UNL     1      10.385   2.508  21.726  0.00  0.00    -0.389 OA
ATOM     19  H   UNL     1      10.450   2.200  20.804  0.00  0.00    +0.210 HD
ENDBRANCH  13  18
BRANCH  14  20
ATOM     20  C   UNL     1       7.385   1.273  22.227  0.00  0.00    +0.247 C 
ATOM     21  F   UNL     1       6.973   0.053  22.669  0.00  0.00    -0.246 F 
ENDBRANCH  14  20
ENDBRANCH   1  16
TORSDOF 3
ENDMDL
MODEL 9
REMARK VINA RESULT:      -5.9      3.841      5.708
REMARK  Name = 
REMARK  3 active torsions:
REMARK  status: ('A' for Active; 'I' for Inactive)
REMARK    1  A    between atoms: C_2  and  O_3
REMARK    2  A    between atoms: C_5  and  N_12
REMARK    3  A    between atoms: C_8  and  C_10
REMARK                            x       y       z     vdW  Elec       q    Type
REMARK                         _______ _______ _______ _____ _____    ______ ____
ROOT
ATOM      1  N   UNL     1       6.700  -2.623  23.216  0.00  0.00    -0.288 N 
ATOM      2  C   UNL     1       7.941  -2.048  23.125  0.00  0.00    +0.167 A 
ATOM      3  N   UNL     1       8.792  -2.072  22.086  0.00  0.00    -0.216 NA
ATOM      4  C   UNL     1       9.919  -1.384  22.375  0.00  0.00    +0.225 A 
ATOM      5  N   UNL     1      10.235  -0.725  23.512  0.00  0.00    -0.219 NA
ATOM      6  C   UNL     1       9.332  -0.713  24.516  0.00  0.00    +0.147 A 
ATOM      7  N   UNL     1       9.630  -0.006  25.675  0.00  0.00    -0.341 N 
ATOM      8  H   UNL     1       9.083  -0.294  26.478  0.00  0.00    +0.144 HD
ATOM      9  H   UNL     1      10.622   0.140  25.797  0.00  0.00    +0.144 HD
ATOM     10  C   UNL     1       8.131  -1.416  24.345  0.00  0.00    +0.147 A 
ATOM     11  N   UNL     1       7.054  -1.613  25.177  0.00  0.00    -0.231 NA
ATOM     12  C   UNL     1       6.198  -2.303  24.454  0.00  0.00    +0.203 A 
ENDROOT
BRANCH   1  16
ATOM     13  C   UNL     1       6.172  -5.621  22.605  0.00  0.00    +0.150 C 
ATOM     14  C   UNL     1       4.746  -5.163  22.896  0.00  0.00    +0.180 C 
ATOM     15  O   UNL     1       4.711  -3.741  22.648  0.00  0.00    -0.348 OA
ATOM     16  C   UNL     1       5.998  -3.314  22.149  0.00  0.00    +0.225 C 
ATOM     17  C   UNL     1       6.659  -4.580  21.626  0.00  0.00    +0.088 C 
BRANCH  13  18
ATOM     18  O   UNL     1       6.232  -6.934  22.077  0.00  0.00    -0.389 OA
ATOM     19  H   UNL     1       6.824  -7.477  22.629  0.00  0.00    +0.210 HD
ENDBRANCH  13  18
BRANCH  14  20
ATOM     20  C   UNL     1       4.342  -5.480  24.332  0.00  0.00    +0.247 C 
ATOM     21  F   UNL     1       5.465  -5.608  25.093  0.00  0.00    -0.246 F 
ENDBRANCH  14  20
ENDBRANCH   1  16
TORSDOF 3
ENDMDL
