MODEL 1
REMARK VINA RESULT:      -7.1      0.000      0.000
REMARK  Name = 
REMARK  8 active torsions:
REMARK  status: ('A' for Active; 'I' for Inactive)
REMARK    1  A    between atoms: C_1  and  O_2
REMARK    2  A    between atoms: O_2  and  C_3
REMARK    3  A    between atoms: C_5  and  C_6
REMARK    4  A    between atoms: C_7  and  C_8
REMARK    5  A    between atoms: C_9  and  C_10
REMARK    6  A    between atoms: C_12  and  N_13
REMARK    7  A    between atoms: C_21  and  O_22
REMARK    8  A    between atoms: O_22  and  C_23
REMARK                            x       y       z     vdW  Elec       q    Type
REMARK                         _______ _______ _______ _____ _____    ______ ____
ROOT
ATOM      1  C   UNL     1       9.678  -1.523  23.645  0.00  0.00    -0.003 A 
ATOM      2  C   UNL     1       9.788  -1.323  22.281  0.00  0.00    +0.121 A 
ATOM      3  N   UNL     1       9.406  -0.200  21.640  0.00  0.00    -0.235 NA
ATOM      4  C   UNL     1       8.882   0.801  22.341  0.00  0.00    +0.167 A 
ATOM      5  C   UNL     1       8.831   0.778  23.740  0.00  0.00    +0.062 A 
ATOM      6  C   UNL     1       8.342   1.985  24.288  0.00  0.00    +0.131 A 
ATOM      7  N   UNL     1       7.852   2.989  23.551  0.00  0.00    -0.199 NA
ATOM      8  C   UNL     1       7.848   2.818  22.239  0.00  0.00    +0.216 A 
ATOM      9  N   UNL     1       7.217   3.772  21.470  0.00  0.00    -0.327 N 
ATOM     10  H   UNL     1       7.570   3.753  20.524  0.00  0.00    +0.145 HD
ATOM     11  H   UNL     1       7.185   4.659  21.949  0.00  0.00    +0.145 HD
ATOM     12  N   UNL     1       8.400   1.793  21.611  0.00  0.00    -0.195 NA
ATOM     13  C   UNL     1       9.248  -0.428  24.418  0.00  0.00    -0.028 A 
ATOM     14  C   UNL     1       9.177  -0.549  25.919  0.00  0.00    +0.045 C 
ENDROOT
BRANCH   6  15
ATOM     15  N   UNL     1       8.330   2.268  25.655  0.00  0.00    -0.342 N 
ATOM     16  H   UNL     1       9.227   2.700  25.866  0.00  0.00    +0.144 HD
ATOM     17  H   UNL     1       7.572   2.889  25.909  0.00  0.00    +0.144 HD
ENDBRANCH   6  15
BRANCH   1  19
ATOM     18  C   UNL     1       9.024  -3.834  24.303  0.00  0.00    +0.012 C 
ATOM     19  C   UNL     1       9.945  -2.858  24.198  0.00  0.00    +0.010 C 
BRANCH  18  24
ATOM     20  C   UNL     1       5.963  -4.073  22.125  0.00  0.00    +0.121 A 
ATOM     21  C   UNL     1       4.953  -3.714  23.012  0.00  0.00    +0.049 A 
ATOM     22  C   UNL     1       5.268  -3.364  24.327  0.00  0.00    +0.050 A 
ATOM     23  C   UNL     1       6.596  -3.375  24.766  0.00  0.00    +0.127 A 
ATOM     24  C   UNL     1       7.620  -3.723  23.861  0.00  0.00    +0.020 A 
ATOM     25  C   UNL     1       7.297  -4.033  22.532  0.00  0.00    +0.057 A 
BRANCH  20  27
ATOM     26  C   UNL     1       6.108  -5.821  20.593  0.00  0.00    +0.277 C 
ATOM     27  O   UNL     1       5.723  -4.466  20.835  0.00  0.00    -0.495 OA
ENDBRANCH  20  27
BRANCH  23  28
ATOM     28  O   UNL     1       6.987  -3.067  26.045  0.00  0.00    -0.495 OA
ATOM     29  C   UNL     1       6.521  -3.919  27.085  0.00  0.00    +0.277 C 
ENDBRANCH  23  28
ENDBRANCH  18  24
ENDBRANCH   1  19
TORSDOF 5
ENDMDL
MODEL 2
REMARK VINA RESULT:      -6.9      1.217      1.645
REMARK  Name = 
REMARK  8 active torsions:
REMARK  status: ('A' for Active; 'I' for Inactive)
REMARK    1  A    between atoms: C_1  and  O_2
REMARK    2  A    between atoms: O_2  and  C_3
REMARK    3  A    between atoms: C_5  and  C_6
REMARK    4  A    between atoms: C_7  and  C_8
REMARK    5  A    between atoms: C_9  and  C_10
REMARK    6  A    between atoms: C_12  and  N_13
REMARK    7  A    between atoms: C_21  and  O_22
REMARK    8  A    between atoms: O_22  and  C_23
REMARK                            x       y       z     vdW  Elec       q    Type
REMARK                         _______ _______ _______ _____ _____    ______ ____
ROOT
ATOM      1  C   UNL     1       9.309  -2.843  24.985  0.00  0.00    -0.003 A 
ATOM      2  C   UNL     1      10.005  -2.907  23.792  0.00  0.00    +0.121 A 
ATOM      3  N   UNL     1      10.191  -1.864  22.958  0.00  0.00    -0.235 NA
ATOM      4  C   UNL     1       9.678  -0.679  23.278  0.00  0.00    +0.167 A 
ATOM      5  C   UNL     1       9.061  -0.448  24.513  0.00  0.00    +0.062 A 
ATOM      6  C   UNL     1       8.689   0.903  24.693  0.00  0.00    +0.131 A 
ATOM      7  N   UNL     1       8.790   1.833  23.736  0.00  0.00    -0.199 NA
ATOM      8  C   UNL     1       9.277   1.439  22.571  0.00  0.00    +0.216 A 
ATOM      9  N   UNL     1       9.255   2.341  21.529  0.00  0.00    -0.327 N 
ATOM     10  H   UNL     1       9.946   2.094  20.834  0.00  0.00    +0.145 HD
ATOM     11  H   UNL     1       9.240   3.290  21.872  0.00  0.00    +0.145 HD
ATOM     12  N   UNL     1       9.780   0.239  22.331  0.00  0.00    -0.195 NA
ATOM     13  C   UNL     1       8.873  -1.572  25.402  0.00  0.00    -0.028 A 
ATOM     14  C   UNL     1       8.174  -1.414  26.728  0.00  0.00    +0.045 C 
ENDROOT
BRANCH   6  15
ATOM     15  N   UNL     1       8.192   1.418  25.891  0.00  0.00    -0.342 N 
ATOM     16  H   UNL     1       8.309   2.428  25.840  0.00  0.00    +0.144 HD
ATOM     17  H   UNL     1       7.217   1.185  26.031  0.00  0.00    +0.144 HD
ENDBRANCH   6  15
BRANCH   1  19
ATOM     18  C   UNL     1       7.839  -4.748  25.627  0.00  0.00    +0.012 C 
ATOM     19  C   UNL     1       9.008  -4.087  25.707  0.00  0.00    +0.010 C 
BRANCH  18  24
ATOM     20  C   UNL     1       5.646  -4.288  22.602  0.00  0.00    +0.121 A 
ATOM     21  C   UNL     1       4.487  -3.766  23.168  0.00  0.00    +0.049 A 
ATOM     22  C   UNL     1       4.421  -3.536  24.543  0.00  0.00    +0.050 A 
ATOM     23  C   UNL     1       5.514  -3.829  25.365  0.00  0.00    +0.127 A 
ATOM     24  C   UNL     1       6.694  -4.342  24.789  0.00  0.00    +0.020 A 
ATOM     25  C   UNL     1       6.764  -4.531  23.400  0.00  0.00    +0.057 A 
BRANCH  20  27
ATOM     26  C   UNL     1       6.354  -5.859  21.034  0.00  0.00    +0.277 C 
ATOM     27  O   UNL     1       5.766  -4.577  21.269  0.00  0.00    -0.495 OA
ENDBRANCH  20  27
BRANCH  23  28
ATOM     28  O   UNL     1       5.523  -3.653  26.726  0.00  0.00    -0.495 OA
ATOM     29  C   UNL     1       4.631  -2.679  27.256  0.00  0.00    +0.277 C 
ENDBRANCH  23  28
ENDBRANCH  18  24
ENDBRANCH   1  19
TORSDOF 5
ENDMDL
MODEL 3
REMARK VINA RESULT:      -6.8      3.527      6.275
REMARK  Name = 
REMARK  8 active torsions:
REMARK  status: ('A' for Active; 'I' for Inactive)
REMARK    1  A    between atoms: C_1  and  O_2
REMARK    2  A    between atoms: O_2  and  C_3
REMARK    3  A    between atoms: C_5  and  C_6
REMARK    4  A    between atoms: C_7  and  C_8
REMARK    5  A    between atoms: C_9  and  C_10
REMARK    6  A    between atoms: C_12  and  N_13
REMARK    7  A    between atoms: C_21  and  O_22
REMARK    8  A    between atoms: O_22  and  C_23
REMARK                            x       y       z     vdW  Elec       q    Type
REMARK                         _______ _______ _______ _____ _____    ______ ____
ROOT
ATOM      1  C   UNL     1       8.982  -1.969  22.411  0.00  0.00    -0.003 A 
ATOM      2  C   UNL     1      10.079  -2.267  23.197  0.00  0.00    +0.121 A 
ATOM      3  N   UNL     1      10.078  -3.163  24.204  0.00  0.00    -0.235 NA
ATOM      4  C   UNL     1       8.955  -3.820  24.486  0.00  0.00    +0.167 A 
ATOM      5  C   UNL     1       7.811  -3.704  23.689  0.00  0.00    +0.062 A 
ATOM      6  C   UNL     1       6.772  -4.571  24.098  0.00  0.00    +0.131 A 
ATOM      7  N   UNL     1       6.824  -5.319  25.206  0.00  0.00    -0.199 NA
ATOM      8  C   UNL     1       7.925  -5.231  25.934  0.00  0.00    +0.216 A 
ATOM      9  N   UNL     1       7.943  -5.877  27.150  0.00  0.00    -0.327 N 
ATOM     10  H   UNL     1       8.894  -6.055  27.442  0.00  0.00    +0.145 HD
ATOM     11  H   UNL     1       7.289  -6.645  27.162  0.00  0.00    +0.145 HD
ATOM     12  N   UNL     1       9.010  -4.560  25.580  0.00  0.00    -0.195 NA
ATOM     13  C   UNL     1       7.826  -2.745  22.608  0.00  0.00    -0.028 A 
ATOM     14  C   UNL     1       6.615  -2.528  21.736  0.00  0.00    +0.045 C 
ENDROOT
BRANCH   6  15
ATOM     15  N   UNL     1       5.586  -4.752  23.384  0.00  0.00    -0.342 N 
ATOM     16  H   UNL     1       5.682  -5.635  22.889  0.00  0.00    +0.144 HD
ATOM     17  H   UNL     1       4.776  -4.775  23.990  0.00  0.00    +0.144 HD
ENDBRANCH   6  15
BRANCH   1  19
ATOM     18  C   UNL     1       8.689   0.422  21.780  0.00  0.00    +0.012 C 
ATOM     19  C   UNL     1       9.056  -0.836  21.477  0.00  0.00    +0.010 C 
BRANCH  18  24
ATOM     20  C   UNL     1       6.328   1.030  24.647  0.00  0.00    +0.121 A 
ATOM     21  C   UNL     1       7.190   1.504  25.631  0.00  0.00    +0.049 A 
ATOM     22  C   UNL     1       8.551   1.655  25.356  0.00  0.00    +0.050 A 
ATOM     23  C   UNL     1       9.061   1.328  24.095  0.00  0.00    +0.127 A 
ATOM     24  C   UNL     1       8.183   0.863  23.094  0.00  0.00    +0.020 A 
ATOM     25  C   UNL     1       6.811   0.754  23.368  0.00  0.00    +0.057 A 
BRANCH  20  27
ATOM     26  C   UNL     1       4.520   1.441  26.057  0.00  0.00    +0.277 C 
ATOM     27  O   UNL     1       4.991   0.819  24.860  0.00  0.00    -0.495 OA
ENDBRANCH  20  27
BRANCH  23  28
ATOM     28  O   UNL     1      10.385   1.425  23.751  0.00  0.00    -0.495 OA
ATOM     29  C   UNL     1      11.318   0.733  24.574  0.00  0.00    +0.277 C 
ENDBRANCH  23  28
ENDBRANCH  18  24
ENDBRANCH   1  19
TORSDOF 5
ENDMDL
MODEL 4
REMARK VINA RESULT:      -6.6      4.189      6.644
REMARK  Name = 
REMARK  8 active torsions:
REMARK  status: ('A' for Active; 'I' for Inactive)
REMARK    1  A    between atoms: C_1  and  O_2
REMARK    2  A    between atoms: O_2  and  C_3
REMARK    3  A    between atoms: C_5  and  C_6
REMARK    4  A    between atoms: C_7  and  C_8
REMARK    5  A    between atoms: C_9  and  C_10
REMARK    6  A    between atoms: C_12  and  N_13
REMARK    7  A    between atoms: C_21  and  O_22
REMARK    8  A    between atoms: O_22  and  C_23
REMARK                            x       y       z     vdW  Elec       q    Type
REMARK                         _______ _______ _______ _____ _____    ______ ____
ROOT
ATOM      1  C   UNL     1       7.273  -3.004  23.194  0.00  0.00    -0.003 A 
ATOM      2  C   UNL     1       5.922  -3.069  22.905  0.00  0.00    +0.121 A 
ATOM      3  N   UNL     1       5.043  -3.874  23.534  0.00  0.00    -0.235 NA
ATOM      4  C   UNL     1       5.477  -4.675  24.504  0.00  0.00    +0.167 A 
ATOM      5  C   UNL     1       6.792  -4.616  24.979  0.00  0.00    +0.062 A 
ATOM      6  C   UNL     1       7.011  -5.470  26.084  0.00  0.00    +0.131 A 
ATOM      7  N   UNL     1       6.102  -6.340  26.541  0.00  0.00    -0.199 NA
ATOM      8  C   UNL     1       4.940  -6.373  25.910  0.00  0.00    +0.216 A 
ATOM      9  N   UNL     1       4.044  -7.358  26.267  0.00  0.00    -0.327 N 
ATOM     10  H   UNL     1       3.104  -7.088  26.014  0.00  0.00    +0.145 HD
ATOM     11  H   UNL     1       4.213  -7.675  27.210  0.00  0.00    +0.145 HD
ATOM     12  N   UNL     1       4.576  -5.532  24.955  0.00  0.00    -0.195 NA
ATOM     13  C   UNL     1       7.724  -3.745  24.301  0.00  0.00    -0.028 A 
ATOM     14  C   UNL     1       9.169  -3.663  24.723  0.00  0.00    +0.045 C 
ENDROOT
BRANCH   6  15
ATOM     15  N   UNL     1       8.192  -5.488  26.829  0.00  0.00    -0.342 N 
ATOM     16  H   UNL     1       8.455  -4.516  26.972  0.00  0.00    +0.144 HD
ATOM     17  H   UNL     1       8.074  -5.955  27.719  0.00  0.00    +0.144 HD
ENDBRANCH   6  15
BRANCH   1  19
ATOM     18  C   UNL     1       8.453  -0.931  22.477  0.00  0.00    +0.012 C 
ATOM     19  C   UNL     1       8.159  -2.234  22.310  0.00  0.00    +0.010 C 
BRANCH  18  24
ATOM     20  C   UNL     1       6.108   1.110  24.600  0.00  0.00    +0.121 A 
ATOM     21  C   UNL     1       6.888   1.363  25.724  0.00  0.00    +0.049 A 
ATOM     22  C   UNL     1       8.200   0.889  25.786  0.00  0.00    +0.050 A 
ATOM     23  C   UNL     1       8.741   0.154  24.726  0.00  0.00    +0.127 A 
ATOM     24  C   UNL     1       7.955  -0.087  23.581  0.00  0.00    +0.020 A 
ATOM     25  C   UNL     1       6.652   0.429  23.511  0.00  0.00    +0.057 A 
BRANCH  20  27
ATOM     26  C   UNL     1       4.668   2.784  23.857  0.00  0.00    +0.277 C 
ATOM     27  O   UNL     1       4.802   1.509  24.488  0.00  0.00    -0.495 OA
ENDBRANCH  20  27
BRANCH  23  28
ATOM     28  O   UNL     1      10.011  -0.366  24.718  0.00  0.00    -0.495 OA
ATOM     29  C   UNL     1      11.087   0.563  24.650  0.00  0.00    +0.277 C 
ENDBRANCH  23  28
ENDBRANCH  18  24
ENDBRANCH   1  19
TORSDOF 5
ENDMDL
MODEL 5
REMARK VINA RESULT:      -6.6      1.585      2.927
REMARK  Name = 
REMARK  8 active torsions:
REMARK  status: ('A' for Active; 'I' for Inactive)
REMARK    1  A    between atoms: C_1  and  O_2
REMARK    2  A    between atoms: O_2  and  C_3
REMARK    3  A    between atoms: C_5  and  C_6
REMARK    4  A    between atoms: C_7  and  C_8
REMARK    5  A    between atoms: C_9  and  C_10
REMARK    6  A    between atoms: C_12  and  N_13
REMARK    7  A    between atoms: C_21  and  O_22
REMARK    8  A    between atoms: O_22  and  C_23
REMARK                            x       y       z     vdW  Elec       q    Type
REMARK                         _______ _______ _______ _____ _____    ______ ____
ROOT
ATOM      1  C   UNL     1       9.247  -2.828  24.955  0.00  0.00    -0.003 A 
ATOM      2  C   UNL     1       9.784  -2.912  23.684  0.00  0.00    +0.121 A 
ATOM      3  N   UNL     1       9.866  -1.881  22.819  0.00  0.00    -0.235 NA
ATOM      4  C   UNL     1       9.401  -0.689  23.185  0.00  0.00    +0.167 A 
ATOM      5  C   UNL     1       8.948  -0.439  24.485  0.00  0.00    +0.062 A 
ATOM      6  C   UNL     1       8.607   0.916  24.692  0.00  0.00    +0.131 A 
ATOM      7  N   UNL     1       8.587   1.833  23.718  0.00  0.00    -0.199 NA
ATOM      8  C   UNL     1       8.921   1.422  22.506  0.00  0.00    +0.216 A 
ATOM      9  N   UNL     1       8.769   2.309  21.463  0.00  0.00    -0.327 N 
ATOM     10  H   UNL     1       9.364   2.050  20.689  0.00  0.00    +0.145 HD
ATOM     11  H   UNL     1       8.801   3.263  21.791  0.00  0.00    +0.145 HD
ATOM     12  N   UNL     1       9.385   0.216  22.221  0.00  0.00    -0.195 NA
ATOM     13  C   UNL     1       8.871  -1.550  25.406  0.00  0.00    -0.028 A 
ATOM     14  C   UNL     1       8.348  -1.371  26.809  0.00  0.00    +0.045 C 
ENDROOT
BRANCH   6  15
ATOM     15  N   UNL     1       8.268   1.450  25.938  0.00  0.00    -0.342 N 
ATOM     16  H   UNL     1       8.940   2.191  26.124  0.00  0.00    +0.144 HD
ATOM     17  H   UNL     1       7.326   1.818  25.951  0.00  0.00    +0.144 HD
ENDBRANCH   6  15
BRANCH   1  19
ATOM     18  C   UNL     1       7.883  -4.754  25.752  0.00  0.00    +0.012 C 
ATOM     19  C   UNL     1       9.037  -4.062  25.727  0.00  0.00    +0.010 C 
BRANCH  18  24
ATOM     20  C   UNL     1       4.601  -3.137  24.871  0.00  0.00    +0.121 A 
ATOM     21  C   UNL     1       4.431  -3.538  23.549  0.00  0.00    +0.049 A 
ATOM     22  C   UNL     1       5.378  -4.365  22.942  0.00  0.00    +0.050 A 
ATOM     23  C   UNL     1       6.505  -4.794  23.650  0.00  0.00    +0.127 A 
ATOM     24  C   UNL     1       6.668  -4.400  24.994  0.00  0.00    +0.020 A 
ATOM     25  C   UNL     1       5.690  -3.602  25.608  0.00  0.00    +0.057 A 
BRANCH  20  27
ATOM     26  C   UNL     1       3.606  -2.597  26.907  0.00  0.00    +0.277 C 
ATOM     27  O   UNL     1       3.734  -2.294  25.516  0.00  0.00    -0.495 OA
ENDBRANCH  20  27
BRANCH  23  28
ATOM     28  O   UNL     1       7.492  -5.587  23.121  0.00  0.00    -0.495 OA
ATOM     29  C   UNL     1       7.303  -6.047  21.787  0.00  0.00    +0.277 C 
ENDBRANCH  23  28
ENDBRANCH  18  24
ENDBRANCH   1  19
TORSDOF 5
ENDMDL
MODEL 6
REMARK VINA RESULT:      -6.6      3.848      6.676
REMARK  Name = 
REMARK  8 active torsions:
REMARK  status: ('A' for Active; 'I' for Inactive)
REMARK    1  A    between atoms: C_1  and  O_2
REMARK    2  A    between atoms: O_2  and  C_3
REMARK    3  A    between atoms: C_5  and  C_6
REMARK    4  A    between atoms: C_7  and  C_8
REMARK    5  A    between atoms: C_9  and  C_10
REMARK    6  A    between atoms: C_12  and  N_13
REMARK    7  A    between atoms: C_21  and  O_22
REMARK    8  A    between atoms: O_22  and  C_23
REMARK                            x       y       z     vdW  Elec       q    Type
REMARK                         _______ _______ _______ _____ _____    ______ ____
ROOT
ATOM      1  C   UNL     1       8.323  -3.157  23.532  0.00  0.00    -0.003 A 
ATOM      2  C   UNL     1       7.526  -2.839  22.448  0.00  0.00    +0.121 A 
ATOM      3  N   UNL     1       6.340  -3.418  22.175  0.00  0.00    -0.235 NA
ATOM      4  C   UNL     1       5.879  -4.366  22.987  0.00  0.00    +0.167 A 
ATOM      5  C   UNL     1       6.525  -4.694  24.184  0.00  0.00    +0.062 A 
ATOM      6  C   UNL     1       5.811  -5.644  24.947  0.00  0.00    +0.131 A 
ATOM      7  N   UNL     1       4.708  -6.266  24.513  0.00  0.00    -0.199 NA
ATOM      8  C   UNL     1       4.281  -5.945  23.303  0.00  0.00    +0.216 A 
ATOM      9  N   UNL     1       3.237  -6.675  22.778  0.00  0.00    -0.327 N 
ATOM     10  H   UNL     1       2.765  -6.147  22.056  0.00  0.00    +0.145 HD
ATOM     11  H   UNL     1       2.678  -7.086  23.510  0.00  0.00    +0.145 HD
ATOM     12  N   UNL     1       4.789  -4.978  22.556  0.00  0.00    -0.195 NA
ATOM     13  C   UNL     1       7.794  -4.063  24.470  0.00  0.00    -0.028 A 
ATOM     14  C   UNL     1       8.574  -4.399  25.715  0.00  0.00    +0.045 C 
ENDROOT
BRANCH   6  15
ATOM     15  N   UNL     1       6.167  -6.026  26.242  0.00  0.00    -0.342 N 
ATOM     16  H   UNL     1       7.064  -5.587  26.434  0.00  0.00    +0.144 HD
ATOM     17  H   UNL     1       5.480  -5.738  26.927  0.00  0.00    +0.144 HD
ENDBRANCH   6  15
BRANCH   1  19
ATOM     18  C   UNL     1       9.968  -1.371  24.085  0.00  0.00    +0.012 C 
ATOM     19  C   UNL     1       9.680  -2.598  23.613  0.00  0.00    +0.010 C 
BRANCH  18  24
ATOM     20  C   UNL     1       7.753   0.457  26.518  0.00  0.00    +0.121 A 
ATOM     21  C   UNL     1       7.245   1.482  25.726  0.00  0.00    +0.049 A 
ATOM     22  C   UNL     1       7.603   1.569  24.379  0.00  0.00    +0.050 A 
ATOM     23  C   UNL     1       8.476   0.634  23.815  0.00  0.00    +0.127 A 
ATOM     24  C   UNL     1       8.977  -0.414  24.614  0.00  0.00    +0.020 A 
ATOM     25  C   UNL     1       8.578  -0.517  25.955  0.00  0.00    +0.057 A 
BRANCH  20  27
ATOM     26  C   UNL     1       6.911   1.523  28.410  0.00  0.00    +0.277 C 
ATOM     27  O   UNL     1       7.477   0.334  27.854  0.00  0.00    -0.495 OA
ENDBRANCH  20  27
BRANCH  23  28
ATOM     28  O   UNL     1       8.895   0.662  22.509  0.00  0.00    -0.495 OA
ATOM     29  C   UNL     1       9.726   1.750  22.121  0.00  0.00    +0.277 C 
ENDBRANCH  23  28
ENDBRANCH  18  24
ENDBRANCH   1  19
TORSDOF 5
ENDMDL
MODEL 7
REMARK VINA RESULT:      -6.6      3.647      6.104
REMARK  Name = 
REMARK  8 active torsions:
REMARK  status: ('A' for Active; 'I' for Inactive)
REMARK    1  A    between atoms: C_1  and  O_2
REMARK    2  A    between atoms: O_2  and  C_3
REMARK    3  A    between atoms: C_5  and  C_6
REMARK    4  A    between atoms: C_7  and  C_8
REMARK    5  A    between atoms: C_9  and  C_10
REMARK    6  A    between atoms: C_12  and  N_13
REMARK    7  A    between atoms: C_21  and  O_22
REMARK    8  A    between atoms: O_22  and  C_23
REMARK                            x       y       z     vdW  Elec       q    Type
REMARK                         _______ _______ _______ _____ _____    ______ ____
ROOT
ATOM      1  C   UNL     1       8.656  -2.743  23.190  0.00  0.00    -0.003 A 
ATOM      2  C   UNL     1       7.747  -2.417  22.201  0.00  0.00    +0.121 A 
ATOM      3  N   UNL     1       6.550  -3.015  22.035  0.00  0.00    -0.235 NA
ATOM      4  C   UNL     1       6.193  -3.993  22.865  0.00  0.00    +0.167 A 
ATOM      5  C   UNL     1       6.964  -4.333  23.982  0.00  0.00    +0.062 A 
ATOM      6  C   UNL     1       6.350  -5.316  24.790  0.00  0.00    +0.131 A 
ATOM      7  N   UNL     1       5.221  -5.952  24.454  0.00  0.00    -0.199 NA
ATOM      8  C   UNL     1       4.667  -5.613  23.302  0.00  0.00    +0.216 A 
ATOM      9  N   UNL     1       3.589  -6.353  22.867  0.00  0.00    -0.327 N 
ATOM     10  H   UNL     1       3.036  -5.820  22.211  0.00  0.00    +0.145 HD
ATOM     11  H   UNL     1       3.116  -6.794  23.642  0.00  0.00    +0.145 HD
ATOM     12  N   UNL     1       5.077  -4.618  22.532  0.00  0.00    -0.195 NA
ATOM     13  C   UNL     1       8.242  -3.681  24.153  0.00  0.00    -0.028 A 
ATOM     14  C   UNL     1       9.152  -4.028  25.305  0.00  0.00    +0.045 C 
ENDROOT
BRANCH   6  15
ATOM     15  N   UNL     1       6.844  -5.720  26.032  0.00  0.00    -0.342 N 
ATOM     16  H   UNL     1       7.157  -6.681  25.917  0.00  0.00    +0.144 HD
ATOM     17  H   UNL     1       7.608  -5.137  26.347  0.00  0.00    +0.144 HD
ENDBRANCH   6  15
BRANCH   1  19
ATOM     18  C   UNL     1      10.270  -0.853  23.356  0.00  0.00    +0.012 C 
ATOM     19  C   UNL     1      10.003  -2.155  23.147  0.00  0.00    +0.010 C 
BRANCH  18  24
ATOM     20  C   UNL     1       7.692   1.853  22.914  0.00  0.00    +0.121 A 
ATOM     21  C   UNL     1       7.217   2.009  24.213  0.00  0.00    +0.049 A 
ATOM     22  C   UNL     1       7.755   1.247  25.251  0.00  0.00    +0.050 A 
ATOM     23  C   UNL     1       8.771   0.319  24.998  0.00  0.00    +0.127 A 
ATOM     24  C   UNL     1       9.263   0.174  23.685  0.00  0.00    +0.020 A 
ATOM     25  C   UNL     1       8.743   0.974  22.656  0.00  0.00    +0.057 A 
BRANCH  20  27
ATOM     26  C   UNL     1       6.913   3.908  22.142  0.00  0.00    +0.277 C 
ATOM     27  O   UNL     1       7.182   2.537  21.842  0.00  0.00    -0.495 OA
ENDBRANCH  20  27
BRANCH  23  28
ATOM     28  O   UNL     1       9.337  -0.483  25.956  0.00  0.00    -0.495 OA
ATOM     29  C   UNL     1       8.529  -0.814  27.080  0.00  0.00    +0.277 C 
ENDBRANCH  23  28
ENDBRANCH  18  24
ENDBRANCH   1  19
TORSDOF 5
ENDMDL
MODEL 8
REMARK VINA RESULT:      -6.6      0.933      2.123
REMARK  Name = 
REMARK  8 active torsions:
REMARK  status: ('A' for Active; 'I' for Inactive)
REMARK    1  A    between atoms: C_1  and  O_2
REMARK    2  A    between atoms: O_2  and  C_3
REMARK    3  A    between atoms: C_5  and  C_6
REMARK    4  A    between atoms: C_7  and  C_8
REMARK    5  A    between atoms: C_9  and  C_10
REMARK    6  A    between atoms: C_12  and  N_13
REMARK    7  A    between atoms: C_21  and  O_22
REMARK    8  A    between atoms: O_22  and  C_23
REMARK                            x       y       z     vdW  Elec       q    Type
REMARK                         _______ _______ _______ _____ _____    ______ ____
ROOT
ATOM      1  C   UNL     1       9.181  -1.667  24.622  0.00  0.00    -0.003 A 
ATOM      2  C   UNL     1       8.624  -1.077  25.742  0.00  0.00    +0.121 A 
ATOM      3  N   UNL     1       8.282   0.224  25.832  0.00  0.00    -0.235 NA
ATOM      4  C   UNL     1       8.486   1.021  24.787  0.00  0.00    +0.167 A 
ATOM      5  C   UNL     1       8.925   0.527  23.553  0.00  0.00    +0.062 A 
ATOM      6  C   UNL     1       8.966   1.521  22.550  0.00  0.00    +0.131 A 
ATOM      7  N   UNL     1       8.744   2.820  22.785  0.00  0.00    -0.199 NA
ATOM      8  C   UNL     1       8.461   3.160  24.031  0.00  0.00    +0.216 A 
ATOM      9  N   UNL     1       8.371   4.504  24.324  0.00  0.00    -0.327 N 
ATOM     10  H   UNL     1       7.817   4.648  25.157  0.00  0.00    +0.145 HD
ATOM     11  H   UNL     1       8.143   5.040  23.500  0.00  0.00    +0.145 HD
ATOM     12  N   UNL     1       8.263   2.304  25.020  0.00  0.00    -0.195 NA
ATOM     13  C   UNL     1       9.282  -0.871  23.466  0.00  0.00    -0.028 A 
ATOM     14  C   UNL     1       9.809  -1.468  22.186  0.00  0.00    +0.045 C 
ENDROOT
BRANCH   6  15
ATOM     15  N   UNL     1       9.229   1.257  21.205  0.00  0.00    -0.342 N 
ATOM     16  H   UNL     1      10.041   1.817  20.956  0.00  0.00    +0.144 HD
ATOM     17  H   UNL     1       9.414   0.276  21.038  0.00  0.00    +0.144 HD
ENDBRANCH   6  15
BRANCH   1  19
ATOM     18  C   UNL     1       8.951  -4.141  24.468  0.00  0.00    +0.012 C 
ATOM     19  C   UNL     1       9.688  -3.043  24.714  0.00  0.00    +0.010 C 
BRANCH  18  24
ATOM     20  C   UNL     1       5.907  -4.359  22.265  0.00  0.00    +0.121 A 
ATOM     21  C   UNL     1       4.876  -4.313  23.198  0.00  0.00    +0.049 A 
ATOM     22  C   UNL     1       5.168  -4.185  24.557  0.00  0.00    +0.050 A 
ATOM     23  C   UNL     1       6.494  -4.105  24.995  0.00  0.00    +0.127 A 
ATOM     24  C   UNL     1       7.537  -4.134  24.047  0.00  0.00    +0.020 A 
ATOM     25  C   UNL     1       7.232  -4.222  22.680  0.00  0.00    +0.057 A 
BRANCH  20  27
ATOM     26  C   UNL     1       6.073  -5.824  20.461  0.00  0.00    +0.277 C 
ATOM     27  O   UNL     1       5.697  -4.524  20.921  0.00  0.00    -0.495 OA
ENDBRANCH  20  27
BRANCH  23  28
ATOM     28  O   UNL     1       6.865  -4.000  26.311  0.00  0.00    -0.495 OA
ATOM     29  C   UNL     1       5.934  -3.389  27.197  0.00  0.00    +0.277 C 
ENDBRANCH  23  28
ENDBRANCH  18  24
ENDBRANCH   1  19
TORSDOF 5
ENDMDL
MODEL 9
REMARK VINA RESULT:      -6.5      4.339      6.854
REMARK  Name = 
REMARK  8 active torsions:
REMARK  status: ('A' for Active; 'I' for Inactive)
REMARK    1  A    between atoms: C_1  and  O_2
REMARK    2  A    between atoms: O_2  and  C_3
REMARK    3  A    between atoms: C_5  and  C_6
REMARK    4  A    between atoms: C_7  and  C_8
REMARK    5  A    between atoms: C_9  and  C_10
REMARK    6  A    between atoms: C_12  and  N_13
REMARK    7  A    between atoms: C_21  and  O_22
REMARK    8  A    between atoms: O_22  and  C_23
REMARK                            x       y       z     vdW  Elec       q    Type
REMARK                         _______ _______ _______ _____ _____    ______ ____
ROOT
ATOM      1  C   UNL     1       8.070  -3.907  23.818  0.00  0.00    -0.003 A 
ATOM      2  C   UNL     1       9.033  -3.937  24.810  0.00  0.00    +0.121 A 
ATOM      3  N   UNL     1       8.878  -4.534  26.009  0.00  0.00    -0.235 NA
ATOM      4  C   UNL     1       7.728  -5.142  26.286  0.00  0.00    +0.167 A 
ATOM      5  C   UNL     1       6.720  -5.293  25.327  0.00  0.00    +0.062 A 
ATOM      6  C   UNL     1       5.633  -6.066  25.794  0.00  0.00    +0.131 A 
ATOM      7  N   UNL     1       5.515  -6.491  27.058  0.00  0.00    -0.199 NA
ATOM      8  C   UNL     1       6.490  -6.164  27.890  0.00  0.00    +0.216 A 
ATOM      9  N   UNL     1       6.321  -6.464  29.224  0.00  0.00    -0.327 N 
ATOM     10  H   UNL     1       7.216  -6.515  29.691  0.00  0.00    +0.145 HD
ATOM     11  H   UNL     1       5.676  -7.230  29.344  0.00  0.00    +0.145 HD
ATOM     12  N   UNL     1       7.614  -5.563  27.535  0.00  0.00    -0.195 NA
ATOM     13  C   UNL     1       6.900  -4.655  24.043  0.00  0.00    -0.028 A 
ATOM     14  C   UNL     1       5.839  -4.731  22.974  0.00  0.00    +0.045 C 
ENDROOT
BRANCH   6  15
ATOM     15  N   UNL     1       4.573  -6.483  24.987  0.00  0.00    -0.342 N 
ATOM     16  H   UNL     1       3.734  -6.059  25.375  0.00  0.00    +0.144 HD
ATOM     17  H   UNL     1       4.695  -6.202  24.023  0.00  0.00    +0.144 HD
ENDBRANCH   6  15
BRANCH   1  19
ATOM     18  C   UNL     1       8.101  -1.728  22.614  0.00  0.00    +0.012 C 
ATOM     19  C   UNL     1       8.285  -3.061  22.636  0.00  0.00    +0.010 C 
BRANCH  18  24
ATOM     20  C   UNL     1       5.912  -0.180  25.255  0.00  0.00    +0.121 A 
ATOM     21  C   UNL     1       6.847   0.463  26.060  0.00  0.00    +0.049 A 
ATOM     22  C   UNL     1       8.203   0.418  25.730  0.00  0.00    +0.050 A 
ATOM     23  C   UNL     1       8.635  -0.276  24.595  0.00  0.00    +0.127 A 
ATOM     24  C   UNL     1       7.684  -0.912  23.771  0.00  0.00    +0.020 A 
ATOM     25  C   UNL     1       6.320  -0.826  24.089  0.00  0.00    +0.057 A 
BRANCH  20  27
ATOM     26  C   UNL     1       4.280   0.244  26.863  0.00  0.00    +0.277 C 
ATOM     27  O   UNL     1       4.572  -0.211  25.540  0.00  0.00    -0.495 OA
ENDBRANCH  20  27
BRANCH  23  28
ATOM     28  O   UNL     1       9.948  -0.387  24.214  0.00  0.00    -0.495 OA
ATOM     29  C   UNL     1      10.846   0.608  24.693  0.00  0.00    +0.277 C 
ENDBRANCH  23  28
ENDBRANCH  18  24
ENDBRANCH   1  19
TORSDOF 5
ENDMDL
