MODEL 1
REMARK VINA RESULT:      -6.2      0.000      0.000
REMARK  Name = 
REMARK  10 active torsions:
REMARK  status: ('A' for Active; 'I' for Inactive)
REMARK    1  A    between atoms: C_1  and  C_2
REMARK    2  A    between atoms: C_2  and  O_3
REMARK    3  A    between atoms: O_3  and  C_4
REMARK    4  A    between atoms: C_7  and  C_8
REMARK    5  A    between atoms: C_8  and  C_9
REMARK    6  A    between atoms: C_9  and  N_10
REMARK    7  A    between atoms: N_10  and  C_11
REMARK    8  A    between atoms: C_11  and  N_13
REMARK    9  A    between atoms: N_13  and  C_14
REMARK   10  A    between atoms: C_17  and  C_18
REMARK                            x       y       z     vdW  Elec       q    Type
REMARK                         _______ _______ _______ _____ _____    ______ ____
ROOT
ATOM      1  N   UNL     1       7.701  -3.159  22.110  0.00  0.00    -0.326 N 
ATOM      2  H   UNL     1       8.556  -3.511  21.695  0.00  0.00    +0.148 HD
ENDROOT
BRANCH   1   3
ATOM      3  C   UNL     1       7.891  -2.065  22.955  0.00  0.00    +0.136 C 
ATOM      4  S   UNL     1       6.646  -1.274  23.758  0.00  0.00    -0.019 S 
BRANCH   3   5
ATOM      5  N   UNL     1       9.223  -1.675  22.952  0.00  0.00    -0.282 N 
ATOM      6  H   UNL     1       9.818  -2.269  22.385  0.00  0.00    +0.155 HD
BRANCH   5   7
ATOM      7  C   UNL     1       9.712  -0.356  23.008  0.00  0.00    +0.124 A 
ATOM      8  N   UNL     1      10.126   0.069  24.220  0.00  0.00    -0.240 NA
ATOM      9  C   UNL     1      10.589   1.341  24.299  0.00  0.00    +0.116 A 
ATOM     10  C   UNL     1      10.596   2.243  23.240  0.00  0.00    -0.032 A 
ATOM     11  C   UNL     1      11.090   3.645  23.408  0.00  0.00    +0.045 C 
ATOM     12  C   UNL     1      10.109   1.790  22.018  0.00  0.00    +0.008 A 
ATOM     13  C   UNL     1       9.660   0.478  21.900  0.00  0.00    +0.044 A 
ENDBRANCH   5   7
ENDBRANCH   3   5
ENDBRANCH   1   3
BRANCH   1  14
ATOM     14  C   UNL     1       6.583  -4.095  22.255  0.00  0.00    +0.109 C 
BRANCH  14  15
ATOM     15  C   UNL     1       6.941  -5.492  22.773  0.00  0.00    +0.077 C 
BRANCH  15  20
ATOM     16  C   UNL     1       7.205  -4.944  26.535  0.00  0.00    +0.159 A 
ATOM     17  C   UNL     1       8.593  -4.871  26.641  0.00  0.00    +0.068 A 
ATOM     18  C   UNL     1       9.360  -5.051  25.503  0.00  0.00    +0.115 A 
ATOM     19  N   UNL     1       8.846  -5.292  24.279  0.00  0.00    -0.257 NA
ATOM     20  C   UNL     1       7.494  -5.356  24.170  0.00  0.00    +0.081 A 
ATOM     21  C   UNL     1       6.651  -5.188  25.273  0.00  0.00    +0.186 A 
ATOM     22  F   UNL     1       5.319  -5.233  25.110  0.00  0.00    -0.200 F 
BRANCH  16  23
ATOM     23  O   UNL     1       6.334  -4.781  27.586  0.00  0.00    -0.489 OA
BRANCH  23  25
ATOM     24  C   UNL     1       5.134  -6.812  28.143  0.00  0.00    +0.048 C 
ATOM     25  C   UNL     1       6.261  -5.869  28.511  0.00  0.00    +0.226 C 
ENDBRANCH  23  25
ENDBRANCH  16  23
ENDBRANCH  15  20
ENDBRANCH  14  15
ENDBRANCH   1  14
TORSDOF 8
ENDMDL
MODEL 2
REMARK VINA RESULT:      -6.1      3.596      5.394
REMARK  Name = 
REMARK  10 active torsions:
REMARK  status: ('A' for Active; 'I' for Inactive)
REMARK    1  A    between atoms: C_1  and  C_2
REMARK    2  A    between atoms: C_2  and  O_3
REMARK    3  A    between atoms: O_3  and  C_4
REMARK    4  A    between atoms: C_7  and  C_8
REMARK    5  A    between atoms: C_8  and  C_9
REMARK    6  A    between atoms: C_9  and  N_10
REMARK    7  A    between atoms: N_10  and  C_11
REMARK    8  A    between atoms: C_11  and  N_13
REMARK    9  A    between atoms: N_13  and  C_14
REMARK   10  A    between atoms: C_17  and  C_18
REMARK                            x       y       z     vdW  Elec       q    Type
REMARK                         _______ _______ _______ _____ _____    ______ ____
ROOT
ATOM      1  N   UNL     1       8.736   3.800  24.863  0.00  0.00    -0.326 N 
ATOM      2  H   UNL     1       9.193   3.710  25.764  0.00  0.00    +0.148 HD
ENDROOT
BRANCH   1   3
ATOM      3  C   UNL     1       9.455   4.558  23.938  0.00  0.00    +0.136 C 
ATOM      4  S   UNL     1       9.228   6.204  23.697  0.00  0.00    -0.019 S 
BRANCH   3   5
ATOM      5  N   UNL     1      10.295   3.744  23.191  0.00  0.00    -0.282 N 
ATOM      6  H   UNL     1      11.248   4.085  23.138  0.00  0.00    +0.155 HD
BRANCH   5   7
ATOM      7  C   UNL     1      10.243   2.340  23.102  0.00  0.00    +0.124 A 
ATOM      8  N   UNL     1      10.692   1.663  24.180  0.00  0.00    -0.240 NA
ATOM      9  C   UNL     1      10.662   0.309  24.110  0.00  0.00    +0.116 A 
ATOM     10  C   UNL     1      10.270  -0.412  22.988  0.00  0.00    -0.032 A 
ATOM     11  C   UNL     1      10.295  -1.908  22.969  0.00  0.00    +0.045 C 
ATOM     12  C   UNL     1       9.865   0.317  21.875  0.00  0.00    +0.008 A 
ATOM     13  C   UNL     1       9.853   1.708  21.930  0.00  0.00    +0.044 A 
ENDBRANCH   5   7
ENDBRANCH   3   5
ENDBRANCH   1   3
BRANCH   1  14
ATOM     14  C   UNL     1       7.277   3.671  24.828  0.00  0.00    +0.109 C 
BRANCH  14  15
ATOM     15  C   UNL     1       6.726   2.516  23.986  0.00  0.00    +0.077 C 
BRANCH  15  20
ATOM     16  C   UNL     1       7.106  -1.199  24.745  0.00  0.00    +0.159 A 
ATOM     17  C   UNL     1       7.486  -1.104  26.082  0.00  0.00    +0.068 A 
ATOM     18  C   UNL     1       7.644   0.152  26.644  0.00  0.00    +0.115 A 
ATOM     19  N   UNL     1       7.448   1.307  25.974  0.00  0.00    -0.257 NA
ATOM     20  C   UNL     1       7.069   1.217  24.673  0.00  0.00    +0.081 A 
ATOM     21  C   UNL     1       6.891  -0.013  24.033  0.00  0.00    +0.186 A 
ATOM     22  F   UNL     1       6.490  -0.050  22.753  0.00  0.00    -0.200 F 
BRANCH  16  23
ATOM     23  O   UNL     1       6.912  -2.383  24.073  0.00  0.00    -0.489 OA
BRANCH  23  25
ATOM     24  C   UNL     1       8.022  -4.527  24.289  0.00  0.00    +0.048 C 
ATOM     25  C   UNL     1       6.998  -3.570  24.864  0.00  0.00    +0.226 C 
ENDBRANCH  23  25
ENDBRANCH  16  23
ENDBRANCH  15  20
ENDBRANCH  14  15
ENDBRANCH   1  14
TORSDOF 8
ENDMDL
MODEL 3
REMARK VINA RESULT:      -6.1      2.984      7.758
REMARK  Name = 
REMARK  10 active torsions:
REMARK  status: ('A' for Active; 'I' for Inactive)
REMARK    1  A    between atoms: C_1  and  C_2
REMARK    2  A    between atoms: C_2  and  O_3
REMARK    3  A    between atoms: O_3  and  C_4
REMARK    4  A    between atoms: C_7  and  C_8
REMARK    5  A    between atoms: C_8  and  C_9
REMARK    6  A    between atoms: C_9  and  N_10
REMARK    7  A    between atoms: N_10  and  C_11
REMARK    8  A    between atoms: C_11  and  N_13
REMARK    9  A    between atoms: N_13  and  C_14
REMARK   10  A    between atoms: C_17  and  C_18
REMARK                            x       y       z     vdW  Elec       q    Type
REMARK                         _______ _______ _______ _____ _____    ______ ____
ROOT
ATOM      1  N   UNL     1       8.003  -4.049  23.313  0.00  0.00    -0.326 N 
ATOM      2  H   UNL     1       8.641  -4.369  22.592  0.00  0.00    +0.148 HD
ENDROOT
BRANCH   1   3
ATOM      3  C   UNL     1       6.656  -4.230  22.997  0.00  0.00    +0.136 C 
ATOM      4  S   UNL     1       5.683  -3.039  22.323  0.00  0.00    -0.019 S 
BRANCH   3   5
ATOM      5  N   UNL     1       6.225  -5.483  23.412  0.00  0.00    -0.282 N 
ATOM      6  H   UNL     1       6.741  -6.248  22.992  0.00  0.00    +0.155 HD
BRANCH   5   7
ATOM      7  C   UNL     1       5.740  -5.824  24.689  0.00  0.00    +0.124 A 
ATOM      8  N   UNL     1       6.518  -5.462  25.731  0.00  0.00    -0.240 NA
ATOM      9  C   UNL     1       6.075  -5.792  26.970  0.00  0.00    +0.116 A 
ATOM     10  C   UNL     1       4.924  -6.531  27.223  0.00  0.00    -0.032 A 
ATOM     11  C   UNL     1       4.514  -6.889  28.616  0.00  0.00    +0.045 C 
ATOM     12  C   UNL     1       4.176  -6.936  26.122  0.00  0.00    +0.008 A 
ATOM     13  C   UNL     1       4.588  -6.582  24.841  0.00  0.00    +0.044 A 
ENDBRANCH   5   7
ENDBRANCH   3   5
ENDBRANCH   1   3
BRANCH   1  14
ATOM     14  C   UNL     1       8.477  -2.998  24.218  0.00  0.00    +0.109 C 
BRANCH  14  15
ATOM     15  C   UNL     1       9.932  -2.557  24.028  0.00  0.00    +0.077 C 
BRANCH  15  20
ATOM     16  C   UNL     1      10.219   1.129  23.100  0.00  0.00    +0.159 A 
ATOM     17  C   UNL     1       9.696   1.063  21.810  0.00  0.00    +0.068 A 
ATOM     18  C   UNL     1       9.328  -0.171  21.300  0.00  0.00    +0.115 A 
ATOM     19  N   UNL     1       9.440  -1.330  21.981  0.00  0.00    -0.257 NA
ATOM     20  C   UNL     1       9.942  -1.269  23.242  0.00  0.00    +0.081 A 
ATOM     21  C   UNL     1      10.339  -0.063  23.826  0.00  0.00    +0.186 A 
ATOM     22  F   UNL     1      10.803  -0.050  25.085  0.00  0.00    -0.200 F 
BRANCH  16  23
ATOM     23  O   UNL     1      10.617   2.289  23.721  0.00  0.00    -0.489 OA
BRANCH  23  25
ATOM     24  C   UNL     1       8.647   3.117  24.865  0.00  0.00    +0.048 C 
ATOM     25  C   UNL     1       9.652   3.342  23.753  0.00  0.00    +0.226 C 
ENDBRANCH  23  25
ENDBRANCH  16  23
ENDBRANCH  15  20
ENDBRANCH  14  15
ENDBRANCH   1  14
TORSDOF 8
ENDMDL
MODEL 4
REMARK VINA RESULT:      -6.0      3.938      6.616
REMARK  Name = 
REMARK  10 active torsions:
REMARK  status: ('A' for Active; 'I' for Inactive)
REMARK    1  A    between atoms: C_1  and  C_2
REMARK    2  A    between atoms: C_2  and  O_3
REMARK    3  A    between atoms: O_3  and  C_4
REMARK    4  A    between atoms: C_7  and  C_8
REMARK    5  A    between atoms: C_8  and  C_9
REMARK    6  A    between atoms: C_9  and  N_10
REMARK    7  A    between atoms: N_10  and  C_11
REMARK    8  A    between atoms: C_11  and  N_13
REMARK    9  A    between atoms: N_13  and  C_14
REMARK   10  A    between atoms: C_17  and  C_18
REMARK                            x       y       z     vdW  Elec       q    Type
REMARK                         _______ _______ _______ _____ _____    ______ ____
ROOT
ATOM      1  N   UNL     1       7.527  -2.779  23.886  0.00  0.00    -0.326 N 
ATOM      2  H   UNL     1       7.178  -3.372  24.631  0.00  0.00    +0.148 HD
ENDROOT
BRANCH   1   3
ATOM      3  C   UNL     1       6.561  -2.428  22.942  0.00  0.00    +0.136 C 
ATOM      4  S   UNL     1       5.864  -3.515  21.868  0.00  0.00    -0.019 S 
BRANCH   3   5
ATOM      5  N   UNL     1       6.345  -1.058  22.955  0.00  0.00    -0.282 N 
ATOM      6  H   UNL     1       5.716  -0.740  22.226  0.00  0.00    +0.155 HD
BRANCH   5   7
ATOM      7  C   UNL     1       6.281  -0.228  24.091  0.00  0.00    +0.124 A 
ATOM      8  N   UNL     1       5.689  -0.763  25.179  0.00  0.00    -0.240 NA
ATOM      9  C   UNL     1       5.607   0.024  26.281  0.00  0.00    +0.116 A 
ATOM     10  C   UNL     1       6.023   1.350  26.334  0.00  0.00    -0.032 A 
ATOM     11  C   UNL     1       5.869   2.171  27.575  0.00  0.00    +0.045 C 
ATOM     12  C   UNL     1       6.578   1.887  25.177  0.00  0.00    +0.008 A 
ATOM     13  C   UNL     1       6.707   1.092  24.042  0.00  0.00    +0.044 A 
ENDBRANCH   5   7
ENDBRANCH   3   5
ENDBRANCH   1   3
BRANCH   1  14
ATOM     14  C   UNL     1       8.958  -2.853  23.576  0.00  0.00    +0.109 C 
BRANCH  14  15
ATOM     15  C   UNL     1       9.847  -1.809  24.258  0.00  0.00    +0.077 C 
BRANCH  15  20
ATOM     16  C   UNL     1      10.283   1.784  23.063  0.00  0.00    +0.159 A 
ATOM     17  C   UNL     1       9.743   1.648  21.785  0.00  0.00    +0.068 A 
ATOM     18  C   UNL     1       9.316   0.399  21.369  0.00  0.00    +0.115 A 
ATOM     19  N   UNL     1       9.386  -0.713  22.131  0.00  0.00    -0.257 NA
ATOM     20  C   UNL     1       9.904  -0.583  23.380  0.00  0.00    +0.081 A 
ATOM     21  C   UNL     1      10.359   0.644  23.871  0.00  0.00    +0.186 A 
ATOM     22  F   UNL     1      10.838   0.726  25.122  0.00  0.00    -0.200 F 
BRANCH  16  23
ATOM     23  O   UNL     1      10.739   2.967  23.594  0.00  0.00    -0.489 OA
BRANCH  23  25
ATOM     24  C   UNL     1      10.377   5.346  23.884  0.00  0.00    +0.048 C 
ATOM     25  C   UNL     1       9.747   3.969  23.826  0.00  0.00    +0.226 C 
ENDBRANCH  23  25
ENDBRANCH  16  23
ENDBRANCH  15  20
ENDBRANCH  14  15
ENDBRANCH   1  14
TORSDOF 8
ENDMDL
MODEL 5
REMARK VINA RESULT:      -6.0      3.393      5.428
REMARK  Name = 
REMARK  10 active torsions:
REMARK  status: ('A' for Active; 'I' for Inactive)
REMARK    1  A    between atoms: C_1  and  C_2
REMARK    2  A    between atoms: C_2  and  O_3
REMARK    3  A    between atoms: O_3  and  C_4
REMARK    4  A    between atoms: C_7  and  C_8
REMARK    5  A    between atoms: C_8  and  C_9
REMARK    6  A    between atoms: C_9  and  N_10
REMARK    7  A    between atoms: N_10  and  C_11
REMARK    8  A    between atoms: C_11  and  N_13
REMARK    9  A    between atoms: N_13  and  C_14
REMARK   10  A    between atoms: C_17  and  C_18
REMARK                            x       y       z     vdW  Elec       q    Type
REMARK                         _______ _______ _______ _____ _____    ______ ____
ROOT
ATOM      1  N   UNL     1       7.955   1.874  26.015  0.00  0.00    -0.326 N 
ATOM      2  H   UNL     1       8.349   2.601  26.601  0.00  0.00    +0.148 HD
ENDROOT
BRANCH   1   3
ATOM      3  C   UNL     1       7.476   2.334  24.788  0.00  0.00    +0.136 C 
ATOM      4  S   UNL     1       6.640   1.377  23.690  0.00  0.00    -0.019 S 
BRANCH   3   5
ATOM      5  N   UNL     1       7.875   3.646  24.572  0.00  0.00    -0.282 N 
ATOM      6  H   UNL     1       7.442   4.310  25.204  0.00  0.00    +0.155 HD
BRANCH   5   7
ATOM      7  C   UNL     1       9.149   4.078  24.158  0.00  0.00    +0.124 A 
ATOM      8  N   UNL     1      10.013   3.107  23.798  0.00  0.00    -0.240 NA
ATOM      9  C   UNL     1      11.251   3.501  23.407  0.00  0.00    +0.116 A 
ATOM     10  C   UNL     1      11.699   4.817  23.424  0.00  0.00    -0.032 A 
ATOM     11  C   UNL     1      13.092   5.176  23.011  0.00  0.00    +0.045 C 
ATOM     12  C   UNL     1      10.800   5.788  23.854  0.00  0.00    +0.008 A 
ATOM     13  C   UNL     1       9.512   5.416  24.228  0.00  0.00    +0.044 A 
ENDBRANCH   5   7
ENDBRANCH   3   5
ENDBRANCH   1   3
BRANCH   1  14
ATOM     14  C   UNL     1       7.430   0.679  26.680  0.00  0.00    +0.109 C 
BRANCH  14  15
ATOM     15  C   UNL     1       8.470  -0.355  27.121  0.00  0.00    +0.077 C 
BRANCH  15  20
ATOM     16  C   UNL     1       9.469  -2.079  23.871  0.00  0.00    +0.159 A 
ATOM     17  C   UNL     1       8.637  -3.194  23.960  0.00  0.00    +0.068 A 
ATOM     18  C   UNL     1       7.841  -3.347  25.082  0.00  0.00    +0.115 A 
ATOM     19  N   UNL     1       7.814  -2.473  26.111  0.00  0.00    -0.257 NA
ATOM     20  C   UNL     1       8.618  -1.382  26.025  0.00  0.00    +0.081 A 
ATOM     21  C   UNL     1       9.452  -1.158  24.926  0.00  0.00    +0.186 A 
ATOM     22  F   UNL     1      10.208  -0.050  24.874  0.00  0.00    -0.200 F 
BRANCH  16  23
ATOM     23  O   UNL     1      10.302  -1.811  22.811  0.00  0.00    -0.489 OA
BRANCH  23  25
ATOM     24  C   UNL     1       9.660   0.181  21.588  0.00  0.00    +0.048 C 
ATOM     25  C   UNL     1       9.666  -1.334  21.623  0.00  0.00    +0.226 C 
ENDBRANCH  23  25
ENDBRANCH  16  23
ENDBRANCH  15  20
ENDBRANCH  14  15
ENDBRANCH   1  14
TORSDOF 8
ENDMDL
MODEL 6
REMARK VINA RESULT:      -5.9      3.850      8.223
REMARK  Name = 
REMARK  10 active torsions:
REMARK  status: ('A' for Active; 'I' for Inactive)
REMARK    1  A    between atoms: C_1  and  C_2
REMARK    2  A    between atoms: C_2  and  O_3
REMARK    3  A    between atoms: O_3  and  C_4
REMARK    4  A    between atoms: C_7  and  C_8
REMARK    5  A    between atoms: C_8  and  C_9
REMARK    6  A    between atoms: C_9  and  N_10
REMARK    7  A    between atoms: N_10  and  C_11
REMARK    8  A    between atoms: C_11  and  N_13
REMARK    9  A    between atoms: N_13  and  C_14
REMARK   10  A    between atoms: C_17  and  C_18
REMARK                            x       y       z     vdW  Elec       q    Type
REMARK                         _______ _______ _______ _____ _____    ______ ____
ROOT
ATOM      1  N   UNL     1       8.528  -0.738  23.228  0.00  0.00    -0.326 N 
ATOM      2  H   UNL     1       7.854  -0.542  22.496  0.00  0.00    +0.148 HD
ENDROOT
BRANCH   1   3
ATOM      3  C   UNL     1       7.978  -0.775  24.509  0.00  0.00    +0.136 C 
ATOM      4  S   UNL     1       8.233   0.409  25.673  0.00  0.00    -0.019 S 
BRANCH   3   5
ATOM      5  N   UNL     1       7.287  -1.962  24.708  0.00  0.00    -0.282 N 
ATOM      6  H   UNL     1       6.498  -1.871  25.338  0.00  0.00    +0.155 HD
BRANCH   5   7
ATOM      7  C   UNL     1       7.077  -2.980  23.758  0.00  0.00    +0.124 A 
ATOM      8  N   UNL     1       6.195  -2.698  22.776  0.00  0.00    -0.240 NA
ATOM      9  C   UNL     1       5.969  -3.669  21.857  0.00  0.00    +0.116 A 
ATOM     10  C   UNL     1       6.526  -4.943  21.906  0.00  0.00    -0.032 A 
ATOM     11  C   UNL     1       6.203  -5.979  20.876  0.00  0.00    +0.045 C 
ATOM     12  C   UNL     1       7.387  -5.219  22.963  0.00  0.00    +0.008 A 
ATOM     13  C   UNL     1       7.664  -4.229  23.901  0.00  0.00    +0.044 A 
ENDBRANCH   5   7
ENDBRANCH   3   5
ENDBRANCH   1   3
BRANCH   1  14
ATOM     14  C   UNL     1       9.928  -0.390  22.969  0.00  0.00    +0.109 C 
BRANCH  14  15
ATOM     15  C   UNL     1      10.166   0.676  21.895  0.00  0.00    +0.077 C 
BRANCH  15  20
ATOM     16  C   UNL     1       9.087   3.936  23.549  0.00  0.00    +0.159 A 
ATOM     17  C   UNL     1       7.780   3.994  23.067  0.00  0.00    +0.068 A 
ATOM     18  C   UNL     1       7.343   3.007  22.201  0.00  0.00    +0.115 A 
ATOM     19  N   UNL     1       8.107   1.974  21.789  0.00  0.00    -0.257 NA
ATOM     20  C   UNL     1       9.378   1.909  22.263  0.00  0.00    +0.081 A 
ATOM     21  C   UNL     1       9.895   2.869  23.138  0.00  0.00    +0.186 A 
ATOM     22  F   UNL     1      11.149   2.746  23.601  0.00  0.00    -0.200 F 
BRANCH  16  23
ATOM     23  O   UNL     1       9.640   4.850  24.414  0.00  0.00    -0.489 OA
BRANCH  23  25
ATOM     24  C   UNL     1      11.729   6.029  24.073  0.00  0.00    +0.048 C 
ATOM     25  C   UNL     1      10.237   5.999  23.810  0.00  0.00    +0.226 C 
ENDBRANCH  23  25
ENDBRANCH  16  23
ENDBRANCH  15  20
ENDBRANCH  14  15
ENDBRANCH   1  14
TORSDOF 8
ENDMDL
MODEL 7
REMARK VINA RESULT:      -5.9      3.210      4.769
REMARK  Name = 
REMARK  10 active torsions:
REMARK  status: ('A' for Active; 'I' for Inactive)
REMARK    1  A    between atoms: C_1  and  C_2
REMARK    2  A    between atoms: C_2  and  O_3
REMARK    3  A    between atoms: O_3  and  C_4
REMARK    4  A    between atoms: C_7  and  C_8
REMARK    5  A    between atoms: C_8  and  C_9
REMARK    6  A    between atoms: C_9  and  N_10
REMARK    7  A    between atoms: N_10  and  C_11
REMARK    8  A    between atoms: C_11  and  N_13
REMARK    9  A    between atoms: N_13  and  C_14
REMARK   10  A    between atoms: C_17  and  C_18
REMARK                            x       y       z     vdW  Elec       q    Type
REMARK                         _______ _______ _______ _____ _____    ______ ____
ROOT
ATOM      1  N   UNL     1       8.400   1.482  25.613  0.00  0.00    -0.326 N 
ATOM      2  H   UNL     1       9.145   2.038  26.017  0.00  0.00    +0.148 HD
ENDROOT
BRANCH   1   3
ATOM      3  C   UNL     1       7.603   2.179  24.704  0.00  0.00    +0.136 C 
ATOM      4  S   UNL     1       6.430   1.458  23.742  0.00  0.00    -0.019 S 
BRANCH   3   5
ATOM      5  N   UNL     1       7.988   3.511  24.642  0.00  0.00    -0.282 N 
ATOM      6  H   UNL     1       7.608   4.077  25.391  0.00  0.00    +0.155 HD
BRANCH   5   7
ATOM      7  C   UNL     1       9.228   4.006  24.196  0.00  0.00    +0.124 A 
ATOM      8  N   UNL     1      10.102   3.084  23.740  0.00  0.00    -0.240 NA
ATOM      9  C   UNL     1      11.308   3.539  23.317  0.00  0.00    +0.116 A 
ATOM     10  C   UNL     1      11.718   4.866  23.389  0.00  0.00    -0.032 A 
ATOM     11  C   UNL     1      13.078   5.292  22.935  0.00  0.00    +0.045 C 
ATOM     12  C   UNL     1      10.812   5.781  23.916  0.00  0.00    +0.008 A 
ATOM     13  C   UNL     1       9.555   5.348  24.327  0.00  0.00    +0.044 A 
ENDBRANCH   5   7
ENDBRANCH   3   5
ENDBRANCH   1   3
BRANCH   1  14
ATOM     14  C   UNL     1       7.914   0.337  26.388  0.00  0.00    +0.109 C 
BRANCH  14  15
ATOM     15  C   UNL     1       8.694  -0.970  26.213  0.00  0.00    +0.077 C 
BRANCH  15  20
ATOM     16  C   UNL     1       8.000  -2.515  22.799  0.00  0.00    +0.159 A 
ATOM     17  C   UNL     1       9.107  -2.018  22.113  0.00  0.00    +0.068 A 
ATOM     18  C   UNL     1       9.982  -1.178  22.778  0.00  0.00    +0.115 A 
ATOM     19  N   UNL     1       9.836  -0.804  24.067  0.00  0.00    -0.257 NA
ATOM     20  C   UNL     1       8.762  -1.293  24.740  0.00  0.00    +0.081 A 
ATOM     21  C   UNL     1       7.832  -2.144  24.138  0.00  0.00    +0.186 A 
ATOM     22  F   UNL     1       6.802  -2.623  24.854  0.00  0.00    -0.200 F 
BRANCH  16  23
ATOM     23  O   UNL     1       7.061  -3.359  22.254  0.00  0.00    -0.489 OA
BRANCH  23  25
ATOM     24  C   UNL     1       6.675  -5.554  21.301  0.00  0.00    +0.048 C 
ATOM     25  C   UNL     1       7.303  -4.757  22.426  0.00  0.00    +0.226 C 
ENDBRANCH  23  25
ENDBRANCH  16  23
ENDBRANCH  15  20
ENDBRANCH  14  15
ENDBRANCH   1  14
TORSDOF 8
ENDMDL
MODEL 8
REMARK VINA RESULT:      -5.9      3.398      5.565
REMARK  Name = 
REMARK  10 active torsions:
REMARK  status: ('A' for Active; 'I' for Inactive)
REMARK    1  A    between atoms: C_1  and  C_2
REMARK    2  A    between atoms: C_2  and  O_3
REMARK    3  A    between atoms: O_3  and  C_4
REMARK    4  A    between atoms: C_7  and  C_8
REMARK    5  A    between atoms: C_8  and  C_9
REMARK    6  A    between atoms: C_9  and  N_10
REMARK    7  A    between atoms: N_10  and  C_11
REMARK    8  A    between atoms: C_11  and  N_13
REMARK    9  A    between atoms: N_13  and  C_14
REMARK   10  A    between atoms: C_17  and  C_18
REMARK                            x       y       z     vdW  Elec       q    Type
REMARK                         _______ _______ _______ _____ _____    ______ ____
ROOT
ATOM      1  N   UNL     1       4.560  -7.152  25.075  0.00  0.00    -0.326 N 
ATOM      2  H   UNL     1       5.376  -7.493  24.578  0.00  0.00    +0.148 HD
ENDROOT
BRANCH   1   3
ATOM      3  C   UNL     1       3.536  -6.704  24.240  0.00  0.00    +0.136 C 
ATOM      4  S   UNL     1       1.904  -6.807  24.622  0.00  0.00    -0.019 S 
BRANCH   3   5
ATOM      5  N   UNL     1       4.053  -6.266  23.029  0.00  0.00    -0.282 N 
ATOM      6  H   UNL     1       3.369  -6.245  22.281  0.00  0.00    +0.155 HD
BRANCH   5   7
ATOM      7  C   UNL     1       5.052  -5.292  22.845  0.00  0.00    +0.124 A 
ATOM      8  N   UNL     1       6.273  -5.756  22.506  0.00  0.00    -0.240 NA
ATOM      9  C   UNL     1       7.254  -4.835  22.336  0.00  0.00    +0.116 A 
ATOM     10  C   UNL     1       7.099  -3.471  22.557  0.00  0.00    -0.032 A 
ATOM     11  C   UNL     1       8.236  -2.514  22.384  0.00  0.00    +0.045 C 
ATOM     12  C   UNL     1       5.842  -3.033  22.961  0.00  0.00    +0.008 A 
ATOM     13  C   UNL     1       4.807  -3.952  23.110  0.00  0.00    +0.044 A 
ENDBRANCH   5   7
ENDBRANCH   3   5
ENDBRANCH   1   3
BRANCH   1  14
ATOM     14  C   UNL     1       4.759  -6.648  26.437  0.00  0.00    +0.109 C 
BRANCH  14  15
ATOM     15  C   UNL     1       4.823  -5.125  26.585  0.00  0.00    +0.077 C 
BRANCH  15  20
ATOM     16  C   UNL     1       7.971  -2.980  26.443  0.00  0.00    +0.159 A 
ATOM     17  C   UNL     1       8.859  -3.941  25.963  0.00  0.00    +0.068 A 
ATOM     18  C   UNL     1       8.402  -5.232  25.761  0.00  0.00    +0.115 A 
ATOM     19  N   UNL     1       7.134  -5.627  25.997  0.00  0.00    -0.257 NA
ATOM     20  C   UNL     1       6.263  -4.692  26.457  0.00  0.00    +0.081 A 
ATOM     21  C   UNL     1       6.649  -3.369  26.690  0.00  0.00    +0.186 A 
ATOM     22  F   UNL     1       5.745  -2.474  27.119  0.00  0.00    -0.200 F 
BRANCH  16  23
ATOM     23  O   UNL     1       8.299  -1.667  26.682  0.00  0.00    -0.489 OA
BRANCH  23  25
ATOM     24  C   UNL     1       8.059   0.088  25.028  0.00  0.00    +0.048 C 
ATOM     25  C   UNL     1       8.956  -0.983  25.613  0.00  0.00    +0.226 C 
ENDBRANCH  23  25
ENDBRANCH  16  23
ENDBRANCH  15  20
ENDBRANCH  14  15
ENDBRANCH   1  14
TORSDOF 8
ENDMDL
MODEL 9
REMARK VINA RESULT:      -5.8      1.838      2.410
REMARK  Name = 
REMARK  10 active torsions:
REMARK  status: ('A' for Active; 'I' for Inactive)
REMARK    1  A    between atoms: C_1  and  C_2
REMARK    2  A    between atoms: C_2  and  O_3
REMARK    3  A    between atoms: O_3  and  C_4
REMARK    4  A    between atoms: C_7  and  C_8
REMARK    5  A    between atoms: C_8  and  C_9
REMARK    6  A    between atoms: C_9  and  N_10
REMARK    7  A    between atoms: N_10  and  C_11
REMARK    8  A    between atoms: C_11  and  N_13
REMARK    9  A    between atoms: N_13  and  C_14
REMARK   10  A    between atoms: C_17  and  C_18
REMARK                            x       y       z     vdW  Elec       q    Type
REMARK                         _______ _______ _______ _____ _____    ______ ____
ROOT
ATOM      1  N   UNL     1       8.303  -2.718  24.423  0.00  0.00    -0.326 N 
ATOM      2  H   UNL     1       7.520  -2.413  24.992  0.00  0.00    +0.148 HD
ENDROOT
BRANCH   1   3
ATOM      3  C   UNL     1       8.106  -2.547  23.052  0.00  0.00    +0.136 C 
ATOM      4  S   UNL     1       6.754  -3.100  22.224  0.00  0.00    -0.019 S 
BRANCH   3   5
ATOM      5  N   UNL     1       9.220  -1.956  22.472  0.00  0.00    -0.282 N 
ATOM      6  H   UNL     1       9.409  -2.285  21.532  0.00  0.00    +0.155 HD
BRANCH   5   7
ATOM      7  C   UNL     1       9.660  -0.632  22.657  0.00  0.00    +0.124 A 
ATOM      8  N   UNL     1      10.133  -0.334  23.885  0.00  0.00    -0.240 NA
ATOM      9  C   UNL     1      10.552   0.940  24.088  0.00  0.00    +0.116 A 
ATOM     10  C   UNL     1      10.457   1.959  23.146  0.00  0.00    -0.032 A 
ATOM     11  C   UNL     1      10.907   3.353  23.451  0.00  0.00    +0.045 C 
ATOM     12  C   UNL     1       9.912   1.630  21.909  0.00  0.00    +0.008 A 
ATOM     13  C   UNL     1       9.507   0.322  21.661  0.00  0.00    +0.044 A 
ENDBRANCH   5   7
ENDBRANCH   3   5
ENDBRANCH   1   3
BRANCH   1  14
ATOM     14  C   UNL     1       9.185  -3.746  24.982  0.00  0.00    +0.109 C 
BRANCH  14  15
ATOM     15  C   UNL     1       8.625  -5.172  25.001  0.00  0.00    +0.077 C 
BRANCH  15  20
ATOM     16  C   UNL     1       4.945  -5.401  25.966  0.00  0.00    +0.159 A 
ATOM     17  C   UNL     1       5.037  -4.910  27.267  0.00  0.00    +0.068 A 
ATOM     18  C   UNL     1       6.284  -4.581  27.770  0.00  0.00    +0.115 A 
ATOM     19  N   UNL     1       7.433  -4.702  27.074  0.00  0.00    -0.257 NA
ATOM     20  C   UNL     1       7.347  -5.173  25.803  0.00  0.00    +0.081 A 
ATOM     21  C   UNL     1       6.126  -5.529  25.224  0.00  0.00    +0.186 A 
ATOM     22  F   UNL     1       6.088  -5.964  23.954  0.00  0.00    -0.200 F 
BRANCH  16  23
ATOM     23  O   UNL     1       3.770  -5.759  25.350  0.00  0.00    -0.489 OA
BRANCH  23  25
ATOM     24  C   UNL     1       2.714  -7.858  24.756  0.00  0.00    +0.048 C 
ATOM     25  C   UNL     1       3.119  -6.919  25.873  0.00  0.00    +0.226 C 
ENDBRANCH  23  25
ENDBRANCH  16  23
ENDBRANCH  15  20
ENDBRANCH  14  15
ENDBRANCH   1  14
TORSDOF 8
ENDMDL
