MODEL 1
REMARK VINA RESULT:      -6.2      0.000      0.000
REMARK  Name = 
REMARK  1 active torsions:
REMARK  status: ('A' for Active; 'I' for Inactive)
REMARK    1  A    between atoms: C_1  and  C_2
REMARK                            x       y       z     vdW  Elec       q    Type
REMARK                         _______ _______ _______ _____ _____    ______ ____
ROOT
ATOM      1  C   UNL     1       5.940  -5.877  21.118  0.00  0.00    +0.113 C 
ATOM      2  C   UNL     1       6.570  -4.942  22.100  0.00  0.00    +0.229 C 
ATOM      3  N   UNL     1       6.414  -5.233  23.479  0.00  0.00    -0.277 N 
ATOM      4  C   UNL     1       5.368  -5.881  24.145  0.00  0.00    +0.096 A 
ATOM      5  C   UNL     1       4.074  -6.309  23.650  0.00  0.00    +0.180 C 
ATOM      6  C   UNL     1       3.341  -7.280  24.568  0.00  0.00    +0.081 C 
ATOM      7  C   UNL     1       3.373  -6.766  26.008  0.00  0.00    +0.013 C 
ATOM      8  C   UNL     1       4.812  -6.633  26.518  0.00  0.00    +0.038 C 
ATOM      9  O   UNL     1       3.561  -5.935  22.603  0.00  0.00    -0.290 OA
ATOM     10  C   UNL     1       5.698  -5.995  25.491  0.00  0.00    -0.011 A 
ATOM     11  C   UNL     1       6.956  -5.391  25.691  0.00  0.00    +0.004 A 
ATOM     12  C   UNL     1       7.773  -5.214  26.830  0.00  0.00    +0.010 A 
ATOM     13  C   UNL     1       9.003  -4.566  26.709  0.00  0.00    +0.001 A 
ATOM     14  C   UNL     1       9.425  -4.096  25.474  0.00  0.00    +0.002 A 
ATOM     15  C   UNL     1       8.632  -4.256  24.334  0.00  0.00    +0.027 A 
ATOM     16  C   UNL     1       7.383  -4.902  24.454  0.00  0.00    +0.057 A 
ATOM     17  O   UNL     1       7.288  -4.009  21.751  0.00  0.00    -0.273 OA
ENDROOT
TORSDOF 0
ENDMDL
MODEL 2
REMARK VINA RESULT:      -6.1      1.956      3.214
REMARK  Name = 
REMARK  1 active torsions:
REMARK  status: ('A' for Active; 'I' for Inactive)
REMARK    1  A    between atoms: C_1  and  C_2
REMARK                            x       y       z     vdW  Elec       q    Type
REMARK                         _______ _______ _______ _____ _____    ______ ____
ROOT
ATOM      1  C   UNL     1       5.331  -5.658  22.060  0.00  0.00    +0.113 C 
ATOM      2  C   UNL     1       5.910  -4.279  22.072  0.00  0.00    +0.229 C 
ATOM      3  N   UNL     1       6.788  -3.943  23.135  0.00  0.00    -0.277 N 
ATOM      4  C   UNL     1       6.820  -4.412  24.452  0.00  0.00    +0.096 A 
ATOM      5  C   UNL     1       5.879  -5.258  25.162  0.00  0.00    +0.180 C 
ATOM      6  C   UNL     1       6.415  -5.834  26.467  0.00  0.00    +0.081 C 
ATOM      7  C   UNL     1       7.082  -4.732  27.292  0.00  0.00    +0.013 C 
ATOM      8  C   UNL     1       8.261  -4.109  26.535  0.00  0.00    +0.038 C 
ATOM      9  O   UNL     1       4.736  -5.501  24.797  0.00  0.00    -0.290 OA
ATOM     10  C   UNL     1       7.909  -3.843  25.103  0.00  0.00    -0.011 A 
ATOM     11  C   UNL     1       8.565  -2.984  24.198  0.00  0.00    +0.004 A 
ATOM     12  C   UNL     1       9.708  -2.159  24.304  0.00  0.00    +0.010 A 
ATOM     13  C   UNL     1      10.129  -1.410  23.204  0.00  0.00    +0.001 A 
ATOM     14  C   UNL     1       9.429  -1.474  22.008  0.00  0.00    +0.002 A 
ATOM     15  C   UNL     1       8.293  -2.279  21.882  0.00  0.00    +0.027 A 
ATOM     16  C   UNL     1       7.858  -3.029  22.995  0.00  0.00    +0.057 A 
ATOM     17  O   UNL     1       5.731  -3.483  21.155  0.00  0.00    -0.273 OA
ENDROOT
TORSDOF 0
ENDMDL
MODEL 3
REMARK VINA RESULT:      -6.1      2.183      4.010
REMARK  Name = 
REMARK  1 active torsions:
REMARK  status: ('A' for Active; 'I' for Inactive)
REMARK    1  A    between atoms: C_1  and  C_2
REMARK                            x       y       z     vdW  Elec       q    Type
REMARK                         _______ _______ _______ _____ _____    ______ ____
ROOT
ATOM      1  C   UNL     1       9.013  -4.291  26.711  0.00  0.00    +0.113 C 
ATOM      2  C   UNL     1       8.767  -5.088  25.470  0.00  0.00    +0.229 C 
ATOM      3  N   UNL     1       7.421  -5.388  25.137  0.00  0.00    -0.277 N 
ATOM      4  C   UNL     1       6.313  -5.575  25.970  0.00  0.00    +0.096 A 
ATOM      5  C   UNL     1       6.240  -5.668  27.415  0.00  0.00    +0.180 C 
ATOM      6  C   UNL     1       4.832  -5.530  27.983  0.00  0.00    +0.081 C 
ATOM      7  C   UNL     1       3.862  -6.419  27.203  0.00  0.00    +0.013 C 
ATOM      8  C   UNL     1       3.813  -6.021  25.723  0.00  0.00    +0.038 C 
ATOM      9  O   UNL     1       7.194  -5.863  28.158  0.00  0.00    -0.290 OA
ATOM     10  C   UNL     1       5.188  -5.780  25.178  0.00  0.00    -0.011 A 
ATOM     11  C   UNL     1       5.587  -5.747  23.826  0.00  0.00    +0.004 A 
ATOM     12  C   UNL     1       4.886  -5.891  22.608  0.00  0.00    +0.010 A 
ATOM     13  C   UNL     1       5.572  -5.800  21.396  0.00  0.00    +0.001 A 
ATOM     14  C   UNL     1       6.940  -5.569  21.385  0.00  0.00    +0.002 A 
ATOM     15  C   UNL     1       7.655  -5.429  22.578  0.00  0.00    +0.027 A 
ATOM     16  C   UNL     1       6.966  -5.530  23.805  0.00  0.00    +0.057 A 
ATOM     17  O   UNL     1       9.669  -5.394  24.696  0.00  0.00    -0.273 OA
ENDROOT
TORSDOF 0
ENDMDL
MODEL 4
REMARK VINA RESULT:      -5.9      3.683      6.553
REMARK  Name = 
REMARK  1 active torsions:
REMARK  status: ('A' for Active; 'I' for Inactive)
REMARK    1  A    between atoms: C_1  and  C_2
REMARK                            x       y       z     vdW  Elec       q    Type
REMARK                         _______ _______ _______ _____ _____    ______ ____
ROOT
ATOM      1  C   UNL     1       8.803  -0.764  27.052  0.00  0.00    +0.113 C 
ATOM      2  C   UNL     1       7.725  -1.535  26.358  0.00  0.00    +0.229 C 
ATOM      3  N   UNL     1       7.911  -1.835  24.984  0.00  0.00    -0.277 N 
ATOM      4  C   UNL     1       8.606  -1.126  23.999  0.00  0.00    +0.096 A 
ATOM      5  C   UNL     1       9.209   0.193  24.052  0.00  0.00    +0.180 C 
ATOM      6  C   UNL     1      10.169   0.490  22.906  0.00  0.00    +0.081 C 
ATOM      7  C   UNL     1       9.532   0.096  21.573  0.00  0.00    +0.013 C 
ATOM      8  C   UNL     1       9.206  -1.401  21.535  0.00  0.00    +0.038 C 
ATOM      9  O   UNL     1       8.982   1.037  24.909  0.00  0.00    -0.290 OA
ATOM     10  C   UNL     1       8.569  -1.853  22.815  0.00  0.00    -0.011 A 
ATOM     11  C   UNL     1       7.822  -3.027  23.040  0.00  0.00    +0.004 A 
ATOM     12  C   UNL     1       7.463  -4.117  22.215  0.00  0.00    +0.010 A 
ATOM     13  C   UNL     1       6.702  -5.164  22.739  0.00  0.00    +0.001 A 
ATOM     14  C   UNL     1       6.299  -5.136  24.066  0.00  0.00    +0.002 A 
ATOM     15  C   UNL     1       6.638  -4.066  24.899  0.00  0.00    +0.027 A 
ATOM     16  C   UNL     1       7.398  -3.001  24.370  0.00  0.00    +0.057 A 
ATOM     17  O   UNL     1       6.756  -1.993  26.956  0.00  0.00    -0.273 OA
ENDROOT
TORSDOF 0
ENDMDL
MODEL 5
REMARK VINA RESULT:      -5.8      2.315      5.162
REMARK  Name = 
REMARK  1 active torsions:
REMARK  status: ('A' for Active; 'I' for Inactive)
REMARK    1  A    between atoms: C_1  and  C_2
REMARK                            x       y       z     vdW  Elec       q    Type
REMARK                         _______ _______ _______ _____ _____    ______ ____
ROOT
ATOM      1  C   UNL     1       9.447  -4.910  26.268  0.00  0.00    +0.113 C 
ATOM      2  C   UNL     1       7.998  -5.126  26.566  0.00  0.00    +0.229 C 
ATOM      3  N   UNL     1       7.061  -4.804  25.551  0.00  0.00    -0.277 N 
ATOM      4  C   UNL     1       7.131  -3.837  24.542  0.00  0.00    +0.096 A 
ATOM      5  C   UNL     1       8.105  -2.783  24.330  0.00  0.00    +0.180 C 
ATOM      6  C   UNL     1       8.048  -2.147  22.946  0.00  0.00    +0.081 C 
ATOM      7  C   UNL     1       6.601  -1.808  22.584  0.00  0.00    +0.013 C 
ATOM      8  C   UNL     1       5.727  -3.067  22.557  0.00  0.00    +0.038 C 
ATOM      9  O   UNL     1       8.908  -2.387  25.164  0.00  0.00    -0.290 OA
ATOM     10  C   UNL     1       6.001  -3.945  23.740  0.00  0.00    -0.011 A 
ATOM     11  C   UNL     1       5.189  -4.976  24.256  0.00  0.00    +0.004 A 
ATOM     12  C   UNL     1       3.947  -5.519  23.858  0.00  0.00    +0.010 A 
ATOM     13  C   UNL     1       3.382  -6.568  24.585  0.00  0.00    +0.001 A 
ATOM     14  C   UNL     1       4.037  -7.078  25.696  0.00  0.00    +0.002 A 
ATOM     15  C   UNL     1       5.264  -6.554  26.112  0.00  0.00    +0.027 A 
ATOM     16  C   UNL     1       5.834  -5.486  25.385  0.00  0.00    +0.057 A 
ATOM     17  O   UNL     1       7.613  -5.658  27.604  0.00  0.00    -0.273 OA
ENDROOT
TORSDOF 0
ENDMDL
MODEL 6
REMARK VINA RESULT:      -5.8      2.650      4.320
REMARK  Name = 
REMARK  1 active torsions:
REMARK  status: ('A' for Active; 'I' for Inactive)
REMARK    1  A    between atoms: C_1  and  C_2
REMARK                            x       y       z     vdW  Elec       q    Type
REMARK                         _______ _______ _______ _____ _____    ______ ____
ROOT
ATOM      1  C   UNL     1       6.430  -3.818  27.033  0.00  0.00    +0.113 C 
ATOM      2  C   UNL     1       7.694  -3.473  26.313  0.00  0.00    +0.229 C 
ATOM      3  N   UNL     1       7.658  -3.444  24.896  0.00  0.00    -0.277 N 
ATOM      4  C   UNL     1       6.868  -4.178  24.005  0.00  0.00    +0.096 A 
ATOM      5  C   UNL     1       5.967  -5.288  24.257  0.00  0.00    +0.180 C 
ATOM      6  C   UNL     1       5.026  -5.606  23.101  0.00  0.00    +0.081 C 
ATOM      7  C   UNL     1       5.808  -5.661  21.788  0.00  0.00    +0.013 C 
ATOM      8  C   UNL     1       6.482  -4.317  21.488  0.00  0.00    +0.038 C 
ATOM      9  O   UNL     1       5.942  -5.956  25.283  0.00  0.00    -0.290 OA
ATOM     10  C   UNL     1       7.139  -3.752  22.710  0.00  0.00    -0.011 A 
ATOM     11  C   UNL     1       8.130  -2.751  22.773  0.00  0.00    +0.004 A 
ATOM     12  C   UNL     1       8.780  -1.972  21.789  0.00  0.00    +0.010 A 
ATOM     13  C   UNL     1       9.739  -1.031  22.170  0.00  0.00    +0.001 A 
ATOM     14  C   UNL     1      10.053  -0.860  23.510  0.00  0.00    +0.002 A 
ATOM     15  C   UNL     1       9.426  -1.622  24.500  0.00  0.00    +0.027 A 
ATOM     16  C   UNL     1       8.464  -2.581  24.118  0.00  0.00    +0.057 A 
ATOM     17  O   UNL     1       8.712  -3.123  26.904  0.00  0.00    -0.273 OA
ENDROOT
TORSDOF 0
ENDMDL
MODEL 7
REMARK VINA RESULT:      -5.8      4.427      6.292
REMARK  Name = 
REMARK  1 active torsions:
REMARK  status: ('A' for Active; 'I' for Inactive)
REMARK    1  A    between atoms: C_1  and  C_2
REMARK                            x       y       z     vdW  Elec       q    Type
REMARK                         _______ _______ _______ _____ _____    ______ ____
ROOT
ATOM      1  C   UNL     1       9.429  -0.007  21.376  0.00  0.00    +0.113 C 
ATOM      2  C   UNL     1       9.898  -0.939  22.448  0.00  0.00    +0.229 C 
ATOM      3  N   UNL     1       9.208  -0.918  23.687  0.00  0.00    -0.277 N 
ATOM      4  C   UNL     1       8.542   0.135  24.323  0.00  0.00    +0.096 A 
ATOM      5  C   UNL     1       8.489   1.544  23.982  0.00  0.00    +0.180 C 
ATOM      6  C   UNL     1       7.394   2.323  24.702  0.00  0.00    +0.081 C 
ATOM      7  C   UNL     1       7.411   1.993  26.195  0.00  0.00    +0.013 C 
ATOM      8  C   UNL     1       7.161   0.500  26.436  0.00  0.00    +0.038 C 
ATOM      9  O   UNL     1       9.249   2.111  23.208  0.00  0.00    -0.290 OA
ATOM     10  C   UNL     1       7.957  -0.345  25.489  0.00  0.00    -0.011 A 
ATOM     11  C   UNL     1       8.272  -1.714  25.611  0.00  0.00    +0.004 A 
ATOM     12  C   UNL     1       7.954  -2.697  26.574  0.00  0.00    +0.010 A 
ATOM     13  C   UNL     1       8.419  -4.004  26.414  0.00  0.00    +0.001 A 
ATOM     14  C   UNL     1       9.191  -4.338  25.311  0.00  0.00    +0.002 A 
ATOM     15  C   UNL     1       9.522  -3.381  24.347  0.00  0.00    +0.027 A 
ATOM     16  C   UNL     1       9.063  -2.057  24.512  0.00  0.00    +0.057 A 
ATOM     17  O   UNL     1      10.778  -1.773  22.254  0.00  0.00    -0.273 OA
ENDROOT
TORSDOF 0
ENDMDL
MODEL 8
REMARK VINA RESULT:      -5.7      1.491      4.231
REMARK  Name = 
REMARK  1 active torsions:
REMARK  status: ('A' for Active; 'I' for Inactive)
REMARK    1  A    between atoms: C_1  and  C_2
REMARK                            x       y       z     vdW  Elec       q    Type
REMARK                         _______ _______ _______ _____ _____    ______ ____
ROOT
ATOM      1  C   UNL     1       4.642  -5.715  22.830  0.00  0.00    +0.113 C 
ATOM      2  C   UNL     1       4.740  -6.510  24.093  0.00  0.00    +0.229 C 
ATOM      3  N   UNL     1       5.623  -6.041  25.099  0.00  0.00    -0.277 N 
ATOM      4  C   UNL     1       6.813  -5.316  24.979  0.00  0.00    +0.096 A 
ATOM      5  C   UNL     1       7.572  -4.963  23.794  0.00  0.00    +0.180 C 
ATOM      6  C   UNL     1       8.624  -3.883  24.022  0.00  0.00    +0.081 C 
ATOM      7  C   UNL     1       9.442  -4.204  25.273  0.00  0.00    +0.013 C 
ATOM      8  C   UNL     1       8.551  -4.260  26.519  0.00  0.00    +0.038 C 
ATOM      9  O   UNL     1       7.434  -5.474  22.691  0.00  0.00    -0.290 OA
ATOM     10  C   UNL     1       7.290  -5.024  26.252  0.00  0.00    -0.011 A 
ATOM     11  C   UNL     1       6.407  -5.589  27.195  0.00  0.00    +0.004 A 
ATOM     12  C   UNL     1       6.386  -5.610  28.608  0.00  0.00    +0.010 A 
ATOM     13  C   UNL     1       5.349  -6.262  29.278  0.00  0.00    +0.001 A 
ATOM     14  C   UNL     1       4.341  -6.888  28.560  0.00  0.00    +0.002 A 
ATOM     15  C   UNL     1       4.343  -6.884  27.162  0.00  0.00    +0.027 A 
ATOM     16  C   UNL     1       5.395  -6.235  26.481  0.00  0.00    +0.057 A 
ATOM     17  O   UNL     1       4.018  -7.477  24.318  0.00  0.00    -0.273 OA
ENDROOT
TORSDOF 0
ENDMDL
MODEL 9
REMARK VINA RESULT:      -5.7      3.858      6.078
REMARK  Name = 
REMARK  1 active torsions:
REMARK  status: ('A' for Active; 'I' for Inactive)
REMARK    1  A    between atoms: C_1  and  C_2
REMARK                            x       y       z     vdW  Elec       q    Type
REMARK                         _______ _______ _______ _____ _____    ______ ____
ROOT
ATOM      1  C   UNL     1       5.708   0.911  25.027  0.00  0.00    +0.113 C 
ATOM      2  C   UNL     1       5.755  -0.583  25.039  0.00  0.00    +0.229 C 
ATOM      3  N   UNL     1       6.941  -1.208  24.574  0.00  0.00    -0.277 N 
ATOM      4  C   UNL     1       7.863  -0.777  23.615  0.00  0.00    +0.096 A 
ATOM      5  C   UNL     1       7.804   0.353  22.708  0.00  0.00    +0.180 C 
ATOM      6  C   UNL     1       9.135   0.703  22.053  0.00  0.00    +0.081 C 
ATOM      7  C   UNL     1       9.799  -0.562  21.508  0.00  0.00    +0.013 C 
ATOM      8  C   UNL     1      10.078  -1.569  22.629  0.00  0.00    +0.038 C 
ATOM      9  O   UNL     1       6.792   0.989  22.441  0.00  0.00    -0.290 OA
ATOM     10  C   UNL     1       8.904  -1.697  23.551  0.00  0.00    -0.011 A 
ATOM     11  C   UNL     1       8.631  -2.738  24.462  0.00  0.00    +0.004 A 
ATOM     12  C   UNL     1       9.324  -3.918  24.817  0.00  0.00    +0.010 A 
ATOM     13  C   UNL     1       8.790  -4.772  25.784  0.00  0.00    +0.001 A 
ATOM     14  C   UNL     1       7.584  -4.465  26.395  0.00  0.00    +0.002 A 
ATOM     15  C   UNL     1       6.879  -3.307  26.056  0.00  0.00    +0.027 A 
ATOM     16  C   UNL     1       7.409  -2.446  25.072  0.00  0.00    +0.057 A 
ATOM     17  O   UNL     1       4.856  -1.265  25.523  0.00  0.00    -0.273 OA
ENDROOT
TORSDOF 0
ENDMDL
