MODEL 1
REMARK VINA RESULT:      -5.7      0.000      0.000
REMARK  Name = 
REMARK  6 active torsions:
REMARK  status: ('A' for Active; 'I' for Inactive)
REMARK    1  A    between atoms: C_8  and  C_9
REMARK    2  A    between atoms: C_9  and  C_10
REMARK    3  A    between atoms: N_12  and  C_13
REMARK    4  A    between atoms: C_13  and  N_15
REMARK    5  A    between atoms: N_15  and  C_16
REMARK    6  A    between atoms: C_19  and  C_22
REMARK                            x       y       z     vdW  Elec       q    Type
REMARK                         _______ _______ _______ _____ _____    ______ ____
ROOT
ATOM      1  C   UNL     1       4.273  -6.240  24.587  0.00  0.00    +0.289 C 
ATOM      2  N   UNL     1       4.393  -5.796  25.887  0.00  0.00    -0.186 N 
ATOM      3  H   UNL     1       3.852  -4.975  26.133  0.00  0.00    +0.300 HD
ATOM      4  N   UNL     1       4.507  -7.472  24.301  0.00  0.00    -0.103 NA
ATOM      5  H   UNL     1       4.379  -7.659  23.302  0.00  0.00    +0.363 HD
ENDROOT
BRANCH   2   6
ATOM      6  C   UNL     1       5.245  -6.215  26.901  0.00  0.00    +0.229 C 
ATOM      7  S   UNL     1       4.772  -6.939  28.330  0.00  0.00    +0.010 S 
BRANCH   6   8
ATOM      8  N   UNL     1       6.588  -6.184  26.588  0.00  0.00    -0.277 N 
ATOM      9  H   UNL     1       7.095  -7.040  26.792  0.00  0.00    +0.156 HD
BRANCH   8  10
ATOM     10  C   UNL     1       7.351  -5.064  26.208  0.00  0.00    +0.034 A 
ATOM     11  C   UNL     1       8.291  -5.210  25.186  0.00  0.00    +0.024 A 
ATOM     12  C   UNL     1       9.006  -4.095  24.728  0.00  0.00    +0.020 A 
ATOM     13  C   UNL     1       8.820  -2.844  25.326  0.00  0.00    +0.052 A 
ATOM     14  C   UNL     1       7.950  -2.722  26.412  0.00  0.00    +0.020 A 
ATOM     15  C   UNL     1       7.220  -3.829  26.850  0.00  0.00    +0.024 A 
BRANCH  13  16
ATOM     16  C   UNL     1       9.502  -1.691  24.822  0.00  0.00    +0.099 C 
ATOM     17  N   UNL     1      10.059  -0.769  24.386  0.00  0.00    -0.191 NA
ENDBRANCH  13  16
ENDBRANCH   8  10
ENDBRANCH   6   8
ENDBRANCH   2   6
BRANCH   1  18
ATOM     18  C   UNL     1       3.845  -5.218  23.542  0.00  0.00    +0.166 C 
BRANCH  18  21
ATOM     19 CL   UNL     1       5.925  -5.955  21.291  0.00  0.00    -0.083 Cl
ATOM     20  C   UNL     1       5.842  -4.446  22.133  0.00  0.00    +0.046 A 
ATOM     21  C   UNL     1       4.908  -4.203  23.163  0.00  0.00    +0.001 A 
ATOM     22  C   UNL     1       5.034  -2.981  23.856  0.00  0.00    +0.046 A 
ATOM     23 CL   UNL     1       4.108  -2.624  25.275  0.00  0.00    -0.083 Cl
ATOM     24  C   UNL     1       5.975  -2.015  23.477  0.00  0.00    +0.020 A 
ATOM     25  C   UNL     1       6.846  -2.257  22.423  0.00  0.00    +0.003 A 
ATOM     26  C   UNL     1       6.797  -3.483  21.770  0.00  0.00    +0.020 A 
ENDBRANCH  18  21
ENDBRANCH   1  18
TORSDOF 6
ENDMDL
MODEL 2
REMARK VINA RESULT:      -5.7      3.109      5.373
REMARK  Name = 
REMARK  6 active torsions:
REMARK  status: ('A' for Active; 'I' for Inactive)
REMARK    1  A    between atoms: C_8  and  C_9
REMARK    2  A    between atoms: C_9  and  C_10
REMARK    3  A    between atoms: N_12  and  C_13
REMARK    4  A    between atoms: C_13  and  N_15
REMARK    5  A    between atoms: N_15  and  C_16
REMARK    6  A    between atoms: C_19  and  C_22
REMARK                            x       y       z     vdW  Elec       q    Type
REMARK                         _______ _______ _______ _____ _____    ______ ____
ROOT
ATOM      1  C   UNL     1       6.563  -2.330  22.686  0.00  0.00    +0.289 C 
ATOM      2  N   UNL     1       7.777  -2.983  22.628  0.00  0.00    -0.186 N 
ATOM      3  H   UNL     1       7.815  -3.809  22.043  0.00  0.00    +0.300 HD
ATOM      4  N   UNL     1       6.517  -1.079  22.981  0.00  0.00    -0.103 NA
ATOM      5  H   UNL     1       5.554  -0.728  22.987  0.00  0.00    +0.363 HD
ENDROOT
BRANCH   2   6
ATOM      6  C   UNL     1       8.943  -2.769  23.352  0.00  0.00    +0.229 C 
ATOM      7  S   UNL     1       9.391  -3.590  24.736  0.00  0.00    +0.010 S 
BRANCH   6   8
ATOM      8  N   UNL     1       9.864  -1.938  22.749  0.00  0.00    -0.277 N 
ATOM      9  H   UNL     1      10.577  -2.412  22.204  0.00  0.00    +0.156 HD
BRANCH   8  10
ATOM     10  C   UNL     1      10.033  -0.556  22.959  0.00  0.00    +0.034 A 
ATOM     11  C   UNL     1       9.839   0.313  21.884  0.00  0.00    +0.024 A 
ATOM     12  C   UNL     1       9.917   1.698  22.080  0.00  0.00    +0.020 A 
ATOM     13  C   UNL     1      10.242   2.214  23.339  0.00  0.00    +0.052 A 
ATOM     14  C   UNL     1      10.529   1.339  24.389  0.00  0.00    +0.020 A 
ATOM     15  C   UNL     1      10.425  -0.040  24.197  0.00  0.00    +0.024 A 
BRANCH  13  16
ATOM     16  C   UNL     1      10.263   3.629  23.560  0.00  0.00    +0.099 C 
ATOM     17  N   UNL     1      10.308   4.773  23.753  0.00  0.00    -0.191 NA
ENDBRANCH  13  16
ENDBRANCH   8  10
ENDBRANCH   6   8
ENDBRANCH   2   6
BRANCH   1  18
ATOM     18  C   UNL     1       5.319  -3.151  22.374  0.00  0.00    +0.166 C 
BRANCH  18  21
ATOM     19 CL   UNL     1       4.349  -2.567  25.317  0.00  0.00    -0.083 Cl
ATOM     20  C   UNL     1       4.589  -4.135  24.625  0.00  0.00    +0.046 A 
ATOM     21  C   UNL     1       5.068  -4.319  23.311  0.00  0.00    +0.001 A 
ATOM     22  C   UNL     1       5.344  -5.645  22.917  0.00  0.00    +0.046 A 
ATOM     23 CL   UNL     1       6.132  -6.020  21.422  0.00  0.00    -0.083 Cl
ATOM     24  C   UNL     1       5.063  -6.733  23.754  0.00  0.00    +0.020 A 
ATOM     25  C   UNL     1       4.539  -6.527  25.023  0.00  0.00    +0.003 A 
ATOM     26  C   UNL     1       4.328  -5.227  25.468  0.00  0.00    +0.020 A 
ENDBRANCH  18  21
ENDBRANCH   1  18
TORSDOF 6
ENDMDL
MODEL 3
REMARK VINA RESULT:      -5.7      3.375      5.568
REMARK  Name = 
REMARK  6 active torsions:
REMARK  status: ('A' for Active; 'I' for Inactive)
REMARK    1  A    between atoms: C_8  and  C_9
REMARK    2  A    between atoms: C_9  and  C_10
REMARK    3  A    between atoms: N_12  and  C_13
REMARK    4  A    between atoms: C_13  and  N_15
REMARK    5  A    between atoms: N_15  and  C_16
REMARK    6  A    between atoms: C_19  and  C_22
REMARK                            x       y       z     vdW  Elec       q    Type
REMARK                         _______ _______ _______ _____ _____    ______ ____
ROOT
ATOM      1  C   UNL     1       7.838  -2.209  22.371  0.00  0.00    +0.289 C 
ATOM      2  N   UNL     1       6.829  -3.131  22.184  0.00  0.00    -0.186 N 
ATOM      3  H   UNL     1       5.889  -2.760  22.107  0.00  0.00    +0.300 HD
ATOM      4  N   UNL     1       9.042  -2.489  22.017  0.00  0.00    -0.103 NA
ATOM      5  H   UNL     1       9.683  -1.715  22.214  0.00  0.00    +0.363 HD
ENDROOT
BRANCH   2   6
ATOM      6  C   UNL     1       6.869  -4.519  22.215  0.00  0.00    +0.229 C 
ATOM      7  S   UNL     1       6.249  -5.535  21.042  0.00  0.00    +0.010 S 
BRANCH   6   8
ATOM      8  N   UNL     1       7.652  -5.062  23.212  0.00  0.00    -0.277 N 
ATOM      9  H   UNL     1       8.478  -5.554  22.889  0.00  0.00    +0.156 HD
BRANCH   8  10
ATOM     10  C   UNL     1       7.338  -5.171  24.580  0.00  0.00    +0.034 A 
ATOM     11  C   UNL     1       6.017  -5.441  24.945  0.00  0.00    +0.024 A 
ATOM     12  C   UNL     1       5.689  -5.639  26.293  0.00  0.00    +0.020 A 
ATOM     13  C   UNL     1       6.671  -5.515  27.282  0.00  0.00    +0.052 A 
ATOM     14  C   UNL     1       7.970  -5.151  26.922  0.00  0.00    +0.020 A 
ATOM     15  C   UNL     1       8.300  -4.979  25.576  0.00  0.00    +0.024 A 
BRANCH  13  16
ATOM     16  C   UNL     1       6.354  -5.777  28.654  0.00  0.00    +0.099 C 
ATOM     17  N   UNL     1       6.119  -6.012  29.767  0.00  0.00    -0.191 NA
ENDBRANCH  13  16
ENDBRANCH   8  10
ENDBRANCH   6   8
ENDBRANCH   2   6
BRANCH   1  18
ATOM     18  C   UNL     1       7.449  -0.872  22.990  0.00  0.00    +0.166 C 
BRANCH  18  21
ATOM     19 CL   UNL     1       8.891  -1.411  25.741  0.00  0.00    -0.083 Cl
ATOM     20  C   UNL     1       9.335  -0.199  24.588  0.00  0.00    +0.046 A 
ATOM     21  C   UNL     1       8.614   0.012  23.394  0.00  0.00    +0.001 A 
ATOM     22  C   UNL     1       9.002   1.117  22.607  0.00  0.00    +0.046 A 
ATOM     23 CL   UNL     1       8.089   1.636  21.231  0.00  0.00    -0.083 Cl
ATOM     24  C   UNL     1      10.110   1.904  22.943  0.00  0.00    +0.020 A 
ATOM     25  C   UNL     1      10.838   1.641  24.096  0.00  0.00    +0.003 A 
ATOM     26  C   UNL     1      10.433   0.606  24.931  0.00  0.00    +0.020 A 
ENDBRANCH  18  21
ENDBRANCH   1  18
TORSDOF 6
ENDMDL
MODEL 4
REMARK VINA RESULT:      -5.6      2.829      5.801
REMARK  Name = 
REMARK  6 active torsions:
REMARK  status: ('A' for Active; 'I' for Inactive)
REMARK    1  A    between atoms: C_8  and  C_9
REMARK    2  A    between atoms: C_9  and  C_10
REMARK    3  A    between atoms: N_12  and  C_13
REMARK    4  A    between atoms: C_13  and  N_15
REMARK    5  A    between atoms: N_15  and  C_16
REMARK    6  A    between atoms: C_19  and  C_22
REMARK                            x       y       z     vdW  Elec       q    Type
REMARK                         _______ _______ _______ _____ _____    ______ ____
ROOT
ATOM      1  C   UNL     1       8.919  -1.580  24.926  0.00  0.00    +0.289 C 
ATOM      2  N   UNL     1       7.961  -0.702  24.463  0.00  0.00    -0.186 N 
ATOM      3  H   UNL     1       7.481  -0.150  25.164  0.00  0.00    +0.300 HD
ATOM      4  N   UNL     1       9.876  -1.957  24.154  0.00  0.00    -0.103 NA
ATOM      5  H   UNL     1      10.511  -2.606  24.629  0.00  0.00    +0.363 HD
ENDROOT
BRANCH   2   6
ATOM      6  C   UNL     1       7.441  -0.538  23.185  0.00  0.00    +0.229 C 
ATOM      7  S   UNL     1       7.127   0.926  22.445  0.00  0.00    +0.010 S 
BRANCH   6   8
ATOM      8  N   UNL     1       7.365  -1.690  22.431  0.00  0.00    -0.277 N 
ATOM      9  H   UNL     1       7.726  -1.608  21.485  0.00  0.00    +0.156 HD
BRANCH   8  10
ATOM     10  C   UNL     1       6.684  -2.879  22.753  0.00  0.00    +0.034 A 
ATOM     11  C   UNL     1       7.348  -4.096  22.589  0.00  0.00    +0.024 A 
ATOM     12  C   UNL     1       6.729  -5.291  22.980  0.00  0.00    +0.020 A 
ATOM     13  C   UNL     1       5.425  -5.275  23.487  0.00  0.00    +0.052 A 
ATOM     14  C   UNL     1       4.729  -4.067  23.560  0.00  0.00    +0.020 A 
ATOM     15  C   UNL     1       5.358  -2.875  23.194  0.00  0.00    +0.024 A 
BRANCH  13  16
ATOM     16  C   UNL     1       4.811  -6.484  23.945  0.00  0.00    +0.099 C 
ATOM     17  N   UNL     1       4.290  -7.448  24.332  0.00  0.00    -0.191 NA
ENDBRANCH  13  16
ENDBRANCH   8  10
ENDBRANCH   6   8
ENDBRANCH   2   6
BRANCH   1  18
ATOM     18  C   UNL     1       8.787  -2.051  26.368  0.00  0.00    +0.166 C 
BRANCH  18  21
ATOM     19 CL   UNL     1       9.802  -4.989  25.841  0.00  0.00    -0.083 Cl
ATOM     20  C   UNL     1       8.228  -4.552  26.410  0.00  0.00    +0.046 A 
ATOM     21  C   UNL     1       7.830  -3.209  26.582  0.00  0.00    +0.001 A 
ATOM     22  C   UNL     1       6.479  -2.988  26.925  0.00  0.00    +0.046 A 
ATOM     23 CL   UNL     1       5.784  -1.403  26.964  0.00  0.00    -0.083 Cl
ATOM     24  C   UNL     1       5.603  -4.051  27.179  0.00  0.00    +0.020 A 
ATOM     25  C   UNL     1       6.036  -5.364  27.057  0.00  0.00    +0.003 A 
ATOM     26  C   UNL     1       7.341  -5.614  26.646  0.00  0.00    +0.020 A 
ENDBRANCH  18  21
ENDBRANCH   1  18
TORSDOF 6
ENDMDL
MODEL 5
REMARK VINA RESULT:      -5.6      2.616      4.911
REMARK  Name = 
REMARK  6 active torsions:
REMARK  status: ('A' for Active; 'I' for Inactive)
REMARK    1  A    between atoms: C_8  and  C_9
REMARK    2  A    between atoms: C_9  and  C_10
REMARK    3  A    between atoms: N_12  and  C_13
REMARK    4  A    between atoms: C_13  and  N_15
REMARK    5  A    between atoms: N_15  and  C_16
REMARK    6  A    between atoms: C_19  and  C_22
REMARK                            x       y       z     vdW  Elec       q    Type
REMARK                         _______ _______ _______ _____ _____    ______ ____
ROOT
ATOM      1  C   UNL     1       6.415  -2.148  22.876  0.00  0.00    +0.289 C 
ATOM      2  N   UNL     1       7.736  -2.514  22.721  0.00  0.00    -0.186 N 
ATOM      3  H   UNL     1       7.937  -3.166  21.973  0.00  0.00    +0.300 HD
ATOM      4  N   UNL     1       6.116  -1.028  23.434  0.00  0.00    -0.103 NA
ATOM      5  H   UNL     1       5.103  -0.889  23.482  0.00  0.00    +0.363 HD
ENDROOT
BRANCH   2   6
ATOM      6  C   UNL     1       8.841  -2.233  23.515  0.00  0.00    +0.229 C 
ATOM      7  S   UNL     1      10.338  -1.743  22.957  0.00  0.00    +0.010 S 
BRANCH   6   8
ATOM      8  N   UNL     1       8.594  -2.187  24.870  0.00  0.00    -0.277 N 
ATOM      9  H   UNL     1       9.012  -1.401  25.356  0.00  0.00    +0.156 HD
BRANCH   8  10
ATOM     10  C   UNL     1       8.002  -3.187  25.665  0.00  0.00    +0.034 A 
ATOM     11  C   UNL     1       8.428  -4.508  25.507  0.00  0.00    +0.024 A 
ATOM     12  C   UNL     1       7.919  -5.512  26.341  0.00  0.00    +0.020 A 
ATOM     13  C   UNL     1       6.946  -5.207  27.298  0.00  0.00    +0.052 A 
ATOM     14  C   UNL     1       6.453  -3.904  27.389  0.00  0.00    +0.020 A 
ATOM     15  C   UNL     1       6.980  -2.899  26.574  0.00  0.00    +0.024 A 
BRANCH  13  16
ATOM     16  C   UNL     1       6.467  -6.217  28.194  0.00  0.00    +0.099 C 
ATOM     17  N   UNL     1       6.094  -7.022  28.944  0.00  0.00    -0.191 NA
ENDBRANCH  13  16
ENDBRANCH   8  10
ENDBRANCH   6   8
ENDBRANCH   2   6
BRANCH   1  18
ATOM     18  C   UNL     1       5.363  -3.115  22.351  0.00  0.00    +0.166 C 
BRANCH  18  21
ATOM     19 CL   UNL     1       3.699  -2.937  25.022  0.00  0.00    -0.083 Cl
ATOM     20  C   UNL     1       4.399  -4.375  24.364  0.00  0.00    +0.046 A 
ATOM     21  C   UNL     1       5.170  -4.371  23.182  0.00  0.00    +0.001 A 
ATOM     22  C   UNL     1       5.793  -5.586  22.827  0.00  0.00    +0.046 A 
ATOM     23 CL   UNL     1       6.936  -5.694  21.532  0.00  0.00    -0.083 Cl
ATOM     24  C   UNL     1       5.575  -6.762  23.556  0.00  0.00    +0.020 A 
ATOM     25  C   UNL     1       4.767  -6.752  24.684  0.00  0.00    +0.003 A 
ATOM     26  C   UNL     1       4.201  -5.552  25.103  0.00  0.00    +0.020 A 
ENDBRANCH  18  21
ENDBRANCH   1  18
TORSDOF 6
ENDMDL
MODEL 6
REMARK VINA RESULT:      -5.4      3.472      5.559
REMARK  Name = 
REMARK  6 active torsions:
REMARK  status: ('A' for Active; 'I' for Inactive)
REMARK    1  A    between atoms: C_8  and  C_9
REMARK    2  A    between atoms: C_9  and  C_10
REMARK    3  A    between atoms: N_12  and  C_13
REMARK    4  A    between atoms: C_13  and  N_15
REMARK    5  A    between atoms: N_15  and  C_16
REMARK    6  A    between atoms: C_19  and  C_22
REMARK                            x       y       z     vdW  Elec       q    Type
REMARK                         _______ _______ _______ _____ _____    ______ ____
ROOT
ATOM      1  C   UNL     1       7.721  -3.258  23.351  0.00  0.00    +0.289 C 
ATOM      2  N   UNL     1       7.505  -2.272  24.292  0.00  0.00    -0.186 N 
ATOM      3  H   UNL     1       7.890  -2.439  25.214  0.00  0.00    +0.300 HD
ATOM      4  N   UNL     1       7.710  -2.968  22.098  0.00  0.00    -0.103 NA
ATOM      5  H   UNL     1       7.884  -3.794  21.518  0.00  0.00    +0.363 HD
ENDROOT
BRANCH   2   6
ATOM      6  C   UNL     1       6.724  -1.125  24.223  0.00  0.00    +0.229 C 
ATOM      7  S   UNL     1       5.555  -0.679  25.330  0.00  0.00    +0.010 S 
BRANCH   6   8
ATOM      8  N   UNL     1       7.097  -0.219  23.253  0.00  0.00    -0.277 N 
ATOM      9  H   UNL     1       6.614  -0.318  22.365  0.00  0.00    +0.156 HD
BRANCH   8  10
ATOM     10  C   UNL     1       8.179   0.680  23.294  0.00  0.00    +0.034 A 
ATOM     11  C   UNL     1       8.933   0.876  22.135  0.00  0.00    +0.024 A 
ATOM     12  C   UNL     1       9.963   1.825  22.121  0.00  0.00    +0.020 A 
ATOM     13  C   UNL     1      10.275   2.544  23.280  0.00  0.00    +0.052 A 
ATOM     14  C   UNL     1       9.582   2.277  24.463  0.00  0.00    +0.020 A 
ATOM     15  C   UNL     1       8.539   1.349  24.468  0.00  0.00    +0.024 A 
BRANCH  13  16
ATOM     16  C   UNL     1      11.285   3.558  23.255  0.00  0.00    +0.099 C 
ATOM     17  N   UNL     1      12.084   4.402  23.247  0.00  0.00    -0.191 NA
ENDBRANCH  13  16
ENDBRANCH   8  10
ENDBRANCH   6   8
ENDBRANCH   2   6
BRANCH   1  18
ATOM     18  C   UNL     1       7.979  -4.666  23.870  0.00  0.00    +0.166 C 
BRANCH  18  21
ATOM     19 CL   UNL     1       7.670  -5.002  26.990  0.00  0.00    -0.083 Cl
ATOM     20  C   UNL     1       6.530  -5.530  25.800  0.00  0.00    +0.046 A 
ATOM     21  C   UNL     1       6.757  -5.384  24.415  0.00  0.00    +0.001 A 
ATOM     22  C   UNL     1       5.811  -5.975  23.552  0.00  0.00    +0.046 A 
ATOM     23 CL   UNL     1       6.053  -6.068  21.840  0.00  0.00    -0.083 Cl
ATOM     24  C   UNL     1       4.652  -6.590  24.043  0.00  0.00    +0.020 A 
ATOM     25  C   UNL     1       4.425  -6.672  25.410  0.00  0.00    +0.003 A 
ATOM     26  C   UNL     1       5.377  -6.166  26.288  0.00  0.00    +0.020 A 
ENDBRANCH  18  21
ENDBRANCH   1  18
TORSDOF 6
ENDMDL
MODEL 7
REMARK VINA RESULT:      -5.4      5.873      8.089
REMARK  Name = 
REMARK  6 active torsions:
REMARK  status: ('A' for Active; 'I' for Inactive)
REMARK    1  A    between atoms: C_8  and  C_9
REMARK    2  A    between atoms: C_9  and  C_10
REMARK    3  A    between atoms: N_12  and  C_13
REMARK    4  A    between atoms: C_13  and  N_15
REMARK    5  A    between atoms: N_15  and  C_16
REMARK    6  A    between atoms: C_19  and  C_22
REMARK                            x       y       z     vdW  Elec       q    Type
REMARK                         _______ _______ _______ _____ _____    ______ ____
ROOT
ATOM      1  C   UNL     1       6.667   1.504  24.678  0.00  0.00    +0.289 C 
ATOM      2  N   UNL     1       6.270   2.709  24.134  0.00  0.00    -0.186 N 
ATOM      3  H   UNL     1       5.627   2.659  23.353  0.00  0.00    +0.300 HD
ATOM      4  N   UNL     1       7.067   1.447  25.899  0.00  0.00    -0.103 NA
ATOM      5  H   UNL     1       7.329   0.494  26.166  0.00  0.00    +0.363 HD
ENDROOT
BRANCH   2   6
ATOM      6  C   UNL     1       6.713   3.999  24.399  0.00  0.00    +0.229 C 
ATOM      7  S   UNL     1       5.823   5.395  24.179  0.00  0.00    +0.010 S 
BRANCH   6   8
ATOM      8  N   UNL     1       7.917   4.080  25.067  0.00  0.00    -0.277 N 
ATOM      9  H   UNL     1       7.850   4.032  26.079  0.00  0.00    +0.156 HD
BRANCH   8  10
ATOM     10  C   UNL     1       9.174   4.407  24.525  0.00  0.00    +0.034 A 
ATOM     11  C   UNL     1       9.933   3.394  23.935  0.00  0.00    +0.024 A 
ATOM     12  C   UNL     1      11.150   3.702  23.313  0.00  0.00    +0.020 A 
ATOM     13  C   UNL     1      11.635   5.015  23.326  0.00  0.00    +0.052 A 
ATOM     14  C   UNL     1      10.920   6.007  24.000  0.00  0.00    +0.020 A 
ATOM     15  C   UNL     1       9.695   5.702  24.597  0.00  0.00    +0.024 A 
BRANCH  13  16
ATOM     16  C   UNL     1      12.847   5.346  22.639  0.00  0.00    +0.099 C 
ATOM     17  N   UNL     1      13.837   5.585  22.080  0.00  0.00    -0.191 NA
ENDBRANCH  13  16
ENDBRANCH   8  10
ENDBRANCH   6   8
ENDBRANCH   2   6
BRANCH   1  18
ATOM     18  C   UNL     1       6.592   0.280  23.775  0.00  0.00    +0.166 C 
BRANCH  18  21
ATOM     19 CL   UNL     1       7.963  -2.001  25.466  0.00  0.00    -0.083 Cl
ATOM     20  C   UNL     1       8.582  -1.319  24.001  0.00  0.00    +0.046 A 
ATOM     21  C   UNL     1       7.933  -0.268  23.321  0.00  0.00    +0.001 A 
ATOM     22  C   UNL     1       8.611   0.284  22.214  0.00  0.00    +0.046 A 
ATOM     23 CL   UNL     1       8.053   1.710  21.405  0.00  0.00    -0.083 Cl
ATOM     24  C   UNL     1       9.820  -0.251  21.752  0.00  0.00    +0.020 A 
ATOM     25  C   UNL     1      10.411  -1.322  22.408  0.00  0.00    +0.003 A 
ATOM     26  C   UNL     1       9.805  -1.839  23.548  0.00  0.00    +0.020 A 
ENDBRANCH  18  21
ENDBRANCH   1  18
TORSDOF 6
ENDMDL
MODEL 8
REMARK VINA RESULT:      -5.4      2.493      3.444
REMARK  Name = 
REMARK  6 active torsions:
REMARK  status: ('A' for Active; 'I' for Inactive)
REMARK    1  A    between atoms: C_8  and  C_9
REMARK    2  A    between atoms: C_9  and  C_10
REMARK    3  A    between atoms: N_12  and  C_13
REMARK    4  A    between atoms: C_13  and  N_15
REMARK    5  A    between atoms: N_15  and  C_16
REMARK    6  A    between atoms: C_19  and  C_22
REMARK                            x       y       z     vdW  Elec       q    Type
REMARK                         _______ _______ _______ _____ _____    ______ ____
ROOT
ATOM      1  C   UNL     1       6.273  -5.135  25.207  0.00  0.00    +0.289 C 
ATOM      2  N   UNL     1       5.168  -4.309  25.190  0.00  0.00    -0.186 N 
ATOM      3  H   UNL     1       4.743  -4.146  24.286  0.00  0.00    +0.300 HD
ATOM      4  N   UNL     1       6.587  -5.771  26.280  0.00  0.00    -0.103 NA
ATOM      5  H   UNL     1       7.426  -6.344  26.147  0.00  0.00    +0.363 HD
ENDROOT
BRANCH   2   6
ATOM      6  C   UNL     1       4.607  -3.545  26.206  0.00  0.00    +0.229 C 
ATOM      7  S   UNL     1       3.048  -3.699  26.789  0.00  0.00    +0.010 S 
BRANCH   6   8
ATOM      8  N   UNL     1       5.490  -2.734  26.887  0.00  0.00    -0.277 N 
ATOM      9  H   UNL     1       5.402  -2.758  27.898  0.00  0.00    +0.156 HD
BRANCH   8  10
ATOM     10  C   UNL     1       6.347  -1.758  26.344  0.00  0.00    +0.034 A 
ATOM     11  C   UNL     1       5.849  -0.903  25.359  0.00  0.00    +0.024 A 
ATOM     12  C   UNL     1       6.651   0.131  24.859  0.00  0.00    +0.020 A 
ATOM     13  C   UNL     1       7.968   0.280  25.305  0.00  0.00    +0.052 A 
ATOM     14  C   UNL     1       8.493  -0.636  26.219  0.00  0.00    +0.020 A 
ATOM     15  C   UNL     1       7.684  -1.650  26.735  0.00  0.00    +0.024 A 
BRANCH  13  16
ATOM     16  C   UNL     1       8.771   1.372  24.844  0.00  0.00    +0.099 C 
ATOM     17  N   UNL     1       9.431   2.241  24.444  0.00  0.00    -0.191 NA
ENDBRANCH  13  16
ENDBRANCH   8  10
ENDBRANCH   6   8
ENDBRANCH   2   6
BRANCH   1  18
ATOM     18  C   UNL     1       7.067  -5.255  23.913  0.00  0.00    +0.166 C 
BRANCH  18  21
ATOM     19 CL   UNL     1       9.818  -4.748  25.367  0.00  0.00    -0.083 Cl
ATOM     20  C   UNL     1       9.141  -3.763  24.116  0.00  0.00    +0.046 A 
ATOM     21  C   UNL     1       7.880  -4.028  23.541  0.00  0.00    +0.001 A 
ATOM     22  C   UNL     1       7.387  -3.074  22.627  0.00  0.00    +0.046 A 
ATOM     23 CL   UNL     1       5.775  -3.143  21.998  0.00  0.00    -0.083 Cl
ATOM     24  C   UNL     1       8.153  -1.969  22.235  0.00  0.00    +0.020 A 
ATOM     25  C   UNL     1       9.415  -1.760  22.775  0.00  0.00    +0.003 A 
ATOM     26  C   UNL     1       9.896  -2.643  23.735  0.00  0.00    +0.020 A 
ENDBRANCH  18  21
ENDBRANCH   1  18
TORSDOF 6
ENDMDL
MODEL 9
REMARK VINA RESULT:      -5.3      2.864      4.580
REMARK  Name = 
REMARK  6 active torsions:
REMARK  status: ('A' for Active; 'I' for Inactive)
REMARK    1  A    between atoms: C_8  and  C_9
REMARK    2  A    between atoms: C_9  and  C_10
REMARK    3  A    between atoms: N_12  and  C_13
REMARK    4  A    between atoms: C_13  and  N_15
REMARK    5  A    between atoms: N_15  and  C_16
REMARK    6  A    between atoms: C_19  and  C_22
REMARK                            x       y       z     vdW  Elec       q    Type
REMARK                         _______ _______ _______ _____ _____    ______ ____
ROOT
ATOM      1  C   UNL     1       5.404  -4.174  24.689  0.00  0.00    +0.289 C 
ATOM      2  N   UNL     1       6.324  -4.762  23.845  0.00  0.00    -0.186 N 
ATOM      3  H   UNL     1       7.021  -5.352  24.282  0.00  0.00    +0.300 HD
ATOM      4  N   UNL     1       4.251  -3.820  24.242  0.00  0.00    -0.103 NA
ATOM      5  H   UNL     1       3.675  -3.399  24.976  0.00  0.00    +0.363 HD
ENDROOT
BRANCH   2   6
ATOM      6  C   UNL     1       6.539  -4.573  22.486  0.00  0.00    +0.229 C 
ATOM      7  S   UNL     1       6.572  -5.780  21.331  0.00  0.00    +0.010 S 
BRANCH   6   8
ATOM      8  N   UNL     1       6.536  -3.259  22.068  0.00  0.00    -0.277 N 
ATOM      9  H   UNL     1       5.994  -3.076  21.230  0.00  0.00    +0.156 HD
BRANCH   8  10
ATOM     10  C   UNL     1       7.337  -2.207  22.552  0.00  0.00    +0.034 A 
ATOM     11  C   UNL     1       8.724  -2.372  22.565  0.00  0.00    +0.024 A 
ATOM     12  C   UNL     1       9.552  -1.313  22.961  0.00  0.00    +0.020 A 
ATOM     13  C   UNL     1       8.992  -0.106  23.394  0.00  0.00    +0.052 A 
ATOM     14  C   UNL     1       7.604   0.022  23.471  0.00  0.00    +0.020 A 
ATOM     15  C   UNL     1       6.782  -1.025  23.051  0.00  0.00    +0.024 A 
BRANCH  13  16
ATOM     16  C   UNL     1       9.834   0.999  23.742  0.00  0.00    +0.099 C 
ATOM     17  N   UNL     1      10.494   1.915  24.013  0.00  0.00    -0.191 NA
ENDBRANCH  13  16
ENDBRANCH   8  10
ENDBRANCH   6   8
ENDBRANCH   2   6
BRANCH   1  18
ATOM     18  C   UNL     1       5.819  -3.987  26.143  0.00  0.00    +0.166 C 
BRANCH  18  21
ATOM     19 CL   UNL     1       4.159  -1.366  26.702  0.00  0.00    -0.083 Cl
ATOM     20  C   UNL     1       5.883  -1.497  26.745  0.00  0.00    +0.046 A 
ATOM     21  C   UNL     1       6.560  -2.696  26.439  0.00  0.00    +0.001 A 
ATOM     22  C   UNL     1       7.969  -2.632  26.382  0.00  0.00    +0.046 A 
ATOM     23 CL   UNL     1       8.932  -3.955  25.818  0.00  0.00    -0.083 Cl
ATOM     24  C   UNL     1       8.664  -1.461  26.710  0.00  0.00    +0.020 A 
ATOM     25  C   UNL     1       7.974  -0.308  27.061  0.00  0.00    +0.003 A 
ATOM     26  C   UNL     1       6.584  -0.320  27.052  0.00  0.00    +0.020 A 
ENDBRANCH  18  21
ENDBRANCH   1  18
TORSDOF 6
ENDMDL
