MODEL 1
REMARK VINA RESULT:      -7.2      0.000      0.000
REMARK  Name = 
REMARK  8 active torsions:
REMARK  status: ('A' for Active; 'I' for Inactive)
REMARK    1  A    between atoms: C_1  and  O_2
REMARK    2  A    between atoms: O_2  and  C_3
REMARK    3  A    between atoms: C_6  and  C_9
REMARK    4  A    between atoms: N_11  and  C_12
REMARK    5  A    between atoms: C_17  and  C_18
REMARK    6  A    between atoms: C_18  and  C_19
REMARK    7  A    between atoms: C_19  and  C_20
REMARK    8  A    between atoms: N_25  and  C_26
REMARK                            x       y       z     vdW  Elec       q    Type
REMARK                         _______ _______ _______ _____ _____    ______ ____
ROOT
ATOM      1  C   UNL     1       7.370  -3.404  22.856  0.00  0.00    +0.037 A 
ATOM      2  C   UNL     1       7.306  -4.393  23.866  0.00  0.00    -0.026 A 
ATOM      3  C   UNL     1       6.681  -5.628  23.571  0.00  0.00    +0.005 A 
ATOM      4  C   UNL     1       6.134  -5.895  22.321  0.00  0.00    +0.000 A 
ATOM      5  C   UNL     1       6.220  -4.939  21.327  0.00  0.00    +0.002 A 
ATOM      6  C   UNL     1       6.837  -3.716  21.593  0.00  0.00    +0.023 A 
ENDROOT
BRANCH   1   8
ATOM      7  C   UNL     1       9.312  -1.833  23.051  0.00  0.00    +0.248 C 
ATOM      8  N   UNL     1       7.950  -2.124  23.097  0.00  0.00    -0.281 N 
ATOM      9  H   UNL     1       7.321  -1.338  23.133  0.00  0.00    +0.155 HD
ATOM     10  O   UNL     1      10.227  -2.638  22.896  0.00  0.00    -0.270 OA
BRANCH   7  14
ATOM     11  C   UNL     1      10.550   2.256  23.319  0.00  0.00    +0.120 A 
ATOM     12  C   UNL     1      10.010   1.784  22.117  0.00  0.00    +0.046 A 
ATOM     13  C   UNL     1       9.592   0.452  21.993  0.00  0.00    +0.016 A 
ATOM     14  C   UNL     1       9.701  -0.405  23.088  0.00  0.00    +0.037 A 
ATOM     15  C   UNL     1      10.163   0.096  24.316  0.00  0.00    +0.016 A 
ATOM     16  C   UNL     1      10.586   1.419  24.432  0.00  0.00    +0.046 A 
BRANCH  11  18
ATOM     17  C   UNL     1      10.018   4.500  23.781  0.00  0.00    +0.277 C 
ATOM     18  O   UNL     1      10.984   3.554  23.323  0.00  0.00    -0.495 OA
ENDBRANCH  11  18
ENDBRANCH   7  14
ENDBRANCH   1   8
BRANCH   2  19
ATOM     19  C   UNL     1       7.914  -4.289  25.247  0.00  0.00    +0.038 C 
BRANCH  19  20
ATOM     20  C   UNL     1       7.679  -5.418  26.251  0.00  0.00    +0.023 C 
BRANCH  20  21
ATOM     21  C   UNL     1       6.864  -5.092  27.525  0.00  0.00    +0.057 C 
ATOM     22  N   UNL     1       6.207  -6.351  27.954  0.00  0.00    -0.302 NA
ATOM     23  C   UNL     1       5.836  -6.340  29.367  0.00  0.00    +0.105 C 
ATOM     24  C   UNL     1       5.071  -6.726  27.098  0.00  0.00    +0.084 C 
ATOM     25  C   UNL     1       4.036  -5.619  26.901  0.00  0.00    +0.015 C 
ATOM     26  C   UNL     1       4.675  -4.305  26.464  0.00  0.00    +0.003 C 
ATOM     27  C   UNL     1       5.853  -3.940  27.365  0.00  0.00    +0.019 C 
ENDBRANCH  20  21
ENDBRANCH  19  20
ENDBRANCH   2  19
TORSDOF 6
ENDMDL
MODEL 2
REMARK VINA RESULT:      -6.8      3.365      7.636
REMARK  Name = 
REMARK  8 active torsions:
REMARK  status: ('A' for Active; 'I' for Inactive)
REMARK    1  A    between atoms: C_1  and  O_2
REMARK    2  A    between atoms: O_2  and  C_3
REMARK    3  A    between atoms: C_6  and  C_9
REMARK    4  A    between atoms: N_11  and  C_12
REMARK    5  A    between atoms: C_17  and  C_18
REMARK    6  A    between atoms: C_18  and  C_19
REMARK    7  A    between atoms: C_19  and  C_20
REMARK    8  A    between atoms: N_25  and  C_26
REMARK                            x       y       z     vdW  Elec       q    Type
REMARK                         _______ _______ _______ _____ _____    ______ ____
ROOT
ATOM      1  C   UNL     1      10.601   3.556  23.405  0.00  0.00    +0.037 A 
ATOM      2  C   UNL     1       9.676   4.467  23.969  0.00  0.00    -0.026 A 
ATOM      3  C   UNL     1      10.127   5.758  24.331  0.00  0.00    +0.005 A 
ATOM      4  C   UNL     1      11.447   6.155  24.145  0.00  0.00    +0.000 A 
ATOM      5  C   UNL     1      12.343   5.274  23.571  0.00  0.00    +0.002 A 
ATOM      6  C   UNL     1      11.920   3.998  23.200  0.00  0.00    +0.023 A 
ENDROOT
BRANCH   1   8
ATOM      7  C   UNL     1      10.604   1.073  23.737  0.00  0.00    +0.248 C 
ATOM      8  N   UNL     1      10.224   2.227  23.054  0.00  0.00    -0.281 N 
ATOM      9  H   UNL     1       9.492   2.126  22.370  0.00  0.00    +0.155 HD
ATOM     10  O   UNL     1      11.392   1.004  24.676  0.00  0.00    -0.270 OA
BRANCH   7  14
ATOM     11  C   UNL     1       8.585  -2.603  22.874  0.00  0.00    +0.120 A 
ATOM     12  C   UNL     1       8.759  -1.663  21.851  0.00  0.00    +0.046 A 
ATOM     13  C   UNL     1       9.417  -0.450  22.096  0.00  0.00    +0.016 A 
ATOM     14  C   UNL     1       9.918  -0.187  23.371  0.00  0.00    +0.037 A 
ATOM     15  C   UNL     1       9.815  -1.168  24.370  0.00  0.00    +0.016 A 
ATOM     16  C   UNL     1       9.152  -2.370  24.125  0.00  0.00    +0.046 A 
BRANCH  11  18
ATOM     17  C   UNL     1       7.799  -4.699  23.596  0.00  0.00    +0.277 C 
ATOM     18  O   UNL     1       7.878  -3.729  22.551  0.00  0.00    -0.495 OA
ENDBRANCH  11  18
ENDBRANCH   7  14
ENDBRANCH   1   8
BRANCH   2  19
ATOM     19  C   UNL     1       8.197   4.218  24.167  0.00  0.00    +0.038 C 
BRANCH  19  20
ATOM     20  C   UNL     1       7.738   3.385  25.364  0.00  0.00    +0.023 C 
BRANCH  20  21
ATOM     21  C   UNL     1       6.274   2.880  25.371  0.00  0.00    +0.057 C 
ATOM     22  N   UNL     1       6.201   1.775  26.357  0.00  0.00    -0.302 NA
ATOM     23  C   UNL     1       4.843   1.544  26.845  0.00  0.00    +0.105 C 
ATOM     24  C   UNL     1       6.823   0.533  25.875  0.00  0.00    +0.084 C 
ATOM     25  C   UNL     1       6.324   0.067  24.507  0.00  0.00    +0.015 C 
ATOM     26  C   UNL     1       6.379   1.180  23.465  0.00  0.00    +0.003 C 
ATOM     27  C   UNL     1       5.732   2.458  23.992  0.00  0.00    +0.019 C 
ENDBRANCH  20  21
ENDBRANCH  19  20
ENDBRANCH   2  19
TORSDOF 6
ENDMDL
MODEL 3
REMARK VINA RESULT:      -6.7      1.859      3.066
REMARK  Name = 
REMARK  8 active torsions:
REMARK  status: ('A' for Active; 'I' for Inactive)
REMARK    1  A    between atoms: C_1  and  O_2
REMARK    2  A    between atoms: O_2  and  C_3
REMARK    3  A    between atoms: C_6  and  C_9
REMARK    4  A    between atoms: N_11  and  C_12
REMARK    5  A    between atoms: C_17  and  C_18
REMARK    6  A    between atoms: C_18  and  C_19
REMARK    7  A    between atoms: C_19  and  C_20
REMARK    8  A    between atoms: N_25  and  C_26
REMARK                            x       y       z     vdW  Elec       q    Type
REMARK                         _______ _______ _______ _____ _____    ______ ____
ROOT
ATOM      1  C   UNL     1       7.201  -3.686  23.146  0.00  0.00    +0.037 A 
ATOM      2  C   UNL     1       6.653  -4.408  24.234  0.00  0.00    -0.026 A 
ATOM      3  C   UNL     1       6.030  -5.652  23.980  0.00  0.00    +0.005 A 
ATOM      4  C   UNL     1       5.944  -6.183  22.697  0.00  0.00    +0.000 A 
ATOM      5  C   UNL     1       6.502  -5.490  21.640  0.00  0.00    +0.002 A 
ATOM      6  C   UNL     1       7.127  -4.264  21.867  0.00  0.00    +0.023 A 
ENDROOT
BRANCH   1   8
ATOM      7  C   UNL     1       9.161  -2.185  23.579  0.00  0.00    +0.248 C 
ATOM      8  N   UNL     1       7.808  -2.408  23.326  0.00  0.00    -0.281 N 
ATOM      9  H   UNL     1       7.256  -1.602  23.081  0.00  0.00    +0.155 HD
ATOM     10  O   UNL     1      10.017  -3.041  23.784  0.00  0.00    -0.270 OA
BRANCH   7  14
ATOM     11  C   UNL     1      10.449   1.876  23.163  0.00  0.00    +0.120 A 
ATOM     12  C   UNL     1      10.588   1.239  24.402  0.00  0.00    +0.046 A 
ATOM     13  C   UNL     1      10.179  -0.090  24.576  0.00  0.00    +0.016 A 
ATOM     14  C   UNL     1       9.645  -0.789  23.493  0.00  0.00    +0.037 A 
ATOM     15  C   UNL     1       9.587  -0.173  22.232  0.00  0.00    +0.016 A 
ATOM     16  C   UNL     1       9.986   1.152  22.067  0.00  0.00    +0.046 A 
BRANCH  11  18
ATOM     17  C   UNL     1       9.927   4.088  23.769  0.00  0.00    +0.277 C 
ATOM     18  O   UNL     1      10.822   3.192  23.110  0.00  0.00    -0.495 OA
ENDBRANCH  11  18
ENDBRANCH   7  14
ENDBRANCH   1   8
BRANCH   2  19
ATOM     19  C   UNL     1       6.728  -4.006  25.690  0.00  0.00    +0.038 C 
BRANCH  19  20
ATOM     20  C   UNL     1       5.483  -3.435  26.369  0.00  0.00    +0.023 C 
BRANCH  20  21
ATOM     21  C   UNL     1       4.952  -2.070  25.870  0.00  0.00    +0.057 C 
ATOM     22  N   UNL     1       6.125  -1.174  25.725  0.00  0.00    -0.302 NA
ATOM     23  C   UNL     1       5.877  -0.062  24.810  0.00  0.00    +0.105 C 
ATOM     24  C   UNL     1       6.653  -0.707  27.016  0.00  0.00    +0.084 C 
ATOM     25  C   UNL     1       5.606  -0.078  27.935  0.00  0.00    +0.015 C 
ATOM     26  C   UNL     1       4.379  -0.969  28.104  0.00  0.00    +0.003 C 
ATOM     27  C   UNL     1       3.854  -1.444  26.751  0.00  0.00    +0.019 C 
ENDBRANCH  20  21
ENDBRANCH  19  20
ENDBRANCH   2  19
TORSDOF 6
ENDMDL
MODEL 4
REMARK VINA RESULT:      -6.4      2.006      5.266
REMARK  Name = 
REMARK  8 active torsions:
REMARK  status: ('A' for Active; 'I' for Inactive)
REMARK    1  A    between atoms: C_1  and  O_2
REMARK    2  A    between atoms: O_2  and  C_3
REMARK    3  A    between atoms: C_6  and  C_9
REMARK    4  A    between atoms: N_11  and  C_12
REMARK    5  A    between atoms: C_17  and  C_18
REMARK    6  A    between atoms: C_18  and  C_19
REMARK    7  A    between atoms: C_19  and  C_20
REMARK    8  A    between atoms: N_25  and  C_26
REMARK                            x       y       z     vdW  Elec       q    Type
REMARK                         _______ _______ _______ _____ _____    ______ ____
ROOT
ATOM      1  C   UNL     1       5.632  -4.997  27.803  0.00  0.00    +0.037 A 
ATOM      2  C   UNL     1       4.661  -5.666  27.021  0.00  0.00    -0.026 A 
ATOM      3  C   UNL     1       3.841  -6.639  27.639  0.00  0.00    +0.005 A 
ATOM      4  C   UNL     1       3.960  -6.950  28.989  0.00  0.00    +0.000 A 
ATOM      5  C   UNL     1       4.890  -6.278  29.759  0.00  0.00    +0.002 A 
ATOM      6  C   UNL     1       5.706  -5.311  29.172  0.00  0.00    +0.023 A 
ENDROOT
BRANCH   1   8
ATOM      7  C   UNL     1       7.757  -4.318  26.662  0.00  0.00    +0.248 C 
ATOM      8  N   UNL     1       6.518  -4.035  27.235  0.00  0.00    -0.281 N 
ATOM      9  H   UNL     1       6.149  -3.111  27.080  0.00  0.00    +0.155 HD
ATOM     10  O   UNL     1       8.322  -5.408  26.642  0.00  0.00    -0.270 OA
BRANCH   7  14
ATOM     11  C   UNL     1       9.709  -1.297  24.340  0.00  0.00    +0.120 A 
ATOM     12  C   UNL     1       8.854  -0.912  25.379  0.00  0.00    +0.046 A 
ATOM     13  C   UNL     1       8.199  -1.873  26.162  0.00  0.00    +0.016 A 
ATOM     14  C   UNL     1       8.419  -3.228  25.910  0.00  0.00    +0.037 A 
ATOM     15  C   UNL     1       9.343  -3.607  24.924  0.00  0.00    +0.016 A 
ATOM     16  C   UNL     1       9.985  -2.648  24.141  0.00  0.00    +0.046 A 
BRANCH  11  18
ATOM     17  C   UNL     1      10.892   0.736  24.361  0.00  0.00    +0.277 C 
ATOM     18  O   UNL     1      10.254  -0.286  23.596  0.00  0.00    -0.495 OA
ENDBRANCH  11  18
ENDBRANCH   7  14
ENDBRANCH   1   8
BRANCH   2  19
ATOM     19  C   UNL     1       4.355  -5.392  25.565  0.00  0.00    +0.038 C 
BRANCH  19  20
ATOM     20  C   UNL     1       5.310  -5.919  24.493  0.00  0.00    +0.023 C 
BRANCH  20  21
ATOM     21  C   UNL     1       5.036  -5.517  23.024  0.00  0.00    +0.057 C 
ATOM     22  N   UNL     1       6.275  -5.798  22.258  0.00  0.00    -0.302 NA
ATOM     23  C   UNL     1       6.030  -5.957  20.826  0.00  0.00    +0.105 C 
ATOM     24  C   UNL     1       7.346  -4.824  22.521  0.00  0.00    +0.084 C 
ATOM     25  C   UNL     1       6.927  -3.364  22.348  0.00  0.00    +0.015 C 
ATOM     26  C   UNL     1       5.651  -3.038  23.117  0.00  0.00    +0.003 C 
ATOM     27  C   UNL     1       4.558  -4.065  22.832  0.00  0.00    +0.019 C 
ENDBRANCH  20  21
ENDBRANCH  19  20
ENDBRANCH   2  19
TORSDOF 6
ENDMDL
MODEL 5
REMARK VINA RESULT:      -6.3      3.064      6.944
REMARK  Name = 
REMARK  8 active torsions:
REMARK  status: ('A' for Active; 'I' for Inactive)
REMARK    1  A    between atoms: C_1  and  O_2
REMARK    2  A    between atoms: O_2  and  C_3
REMARK    3  A    between atoms: C_6  and  C_9
REMARK    4  A    between atoms: N_11  and  C_12
REMARK    5  A    between atoms: C_17  and  C_18
REMARK    6  A    between atoms: C_18  and  C_19
REMARK    7  A    between atoms: C_19  and  C_20
REMARK    8  A    between atoms: N_25  and  C_26
REMARK                            x       y       z     vdW  Elec       q    Type
REMARK                         _______ _______ _______ _____ _____    ______ ____
ROOT
ATOM      1  C   UNL     1       8.809  -1.229  23.743  0.00  0.00    +0.037 A 
ATOM      2  C   UNL     1       9.292  -0.698  24.963  0.00  0.00    -0.026 A 
ATOM      3  C   UNL     1      10.204   0.384  24.920  0.00  0.00    +0.005 A 
ATOM      4  C   UNL     1      10.632   0.938  23.719  0.00  0.00    +0.000 A 
ATOM      5  C   UNL     1      10.139   0.436  22.529  0.00  0.00    +0.002 A 
ATOM      6  C   UNL     1       9.235  -0.626  22.547  0.00  0.00    +0.023 A 
ENDROOT
BRANCH   1   8
ATOM      7  C   UNL     1       8.265  -3.660  24.012  0.00  0.00    +0.248 C 
ATOM      8  N   UNL     1       7.920  -2.343  23.712  0.00  0.00    -0.281 N 
ATOM      9  H   UNL     1       6.936  -2.140  23.638  0.00  0.00    +0.155 HD
ATOM     10  O   UNL     1       9.392  -4.085  24.250  0.00  0.00    -0.270 OA
BRANCH   7  14
ATOM     11  C   UNL     1       5.107  -6.540  24.262  0.00  0.00    +0.120 A 
ATOM     12  C   UNL     1       5.599  -5.963  25.439  0.00  0.00    +0.046 A 
ATOM     13  C   UNL     1       6.631  -5.015  25.396  0.00  0.00    +0.016 A 
ATOM     14  C   UNL     1       7.158  -4.632  24.162  0.00  0.00    +0.037 A 
ATOM     15  C   UNL     1       6.603  -5.150  22.981  0.00  0.00    +0.016 A 
ATOM     16  C   UNL     1       5.583  -6.100  23.029  0.00  0.00    +0.046 A 
BRANCH  11  18
ATOM     17  C   UNL     1       2.805  -7.018  24.276  0.00  0.00    +0.277 C 
ATOM     18  O   UNL     1       4.142  -7.498  24.413  0.00  0.00    -0.495 OA
ENDBRANCH  11  18
ENDBRANCH   7  14
ENDBRANCH   1   8
BRANCH   2  19
ATOM     19  C   UNL     1       8.871  -1.136  26.348  0.00  0.00    +0.038 C 
BRANCH  19  20
ATOM     20  C   UNL     1       7.855  -0.292  27.118  0.00  0.00    +0.023 C 
BRANCH  20  21
ATOM     21  C   UNL     1       6.396  -0.803  27.184  0.00  0.00    +0.057 C 
ATOM     22  N   UNL     1       5.916  -0.926  25.786  0.00  0.00    -0.302 NA
ATOM     23  C   UNL     1       4.789  -1.847  25.656  0.00  0.00    +0.105 C 
ATOM     24  C   UNL     1       5.629   0.374  25.161  0.00  0.00    +0.084 C 
ATOM     25  C   UNL     1       4.697   1.273  25.972  0.00  0.00    +0.015 C 
ATOM     26  C   UNL     1       5.155   1.419  27.420  0.00  0.00    +0.003 C 
ATOM     27  C   UNL     1       5.450   0.058  28.044  0.00  0.00    +0.019 C 
ENDBRANCH  20  21
ENDBRANCH  19  20
ENDBRANCH   2  19
TORSDOF 6
ENDMDL
MODEL 6
REMARK VINA RESULT:      -6.2      1.044      1.843
REMARK  Name = 
REMARK  8 active torsions:
REMARK  status: ('A' for Active; 'I' for Inactive)
REMARK    1  A    between atoms: C_1  and  O_2
REMARK    2  A    between atoms: O_2  and  C_3
REMARK    3  A    between atoms: C_6  and  C_9
REMARK    4  A    between atoms: N_11  and  C_12
REMARK    5  A    between atoms: C_17  and  C_18
REMARK    6  A    between atoms: C_18  and  C_19
REMARK    7  A    between atoms: C_19  and  C_20
REMARK    8  A    between atoms: N_25  and  C_26
REMARK                            x       y       z     vdW  Elec       q    Type
REMARK                         _______ _______ _______ _____ _____    ______ ____
ROOT
ATOM      1  C   UNL     1       7.411  -3.552  22.758  0.00  0.00    +0.037 A 
ATOM      2  C   UNL     1       7.507  -4.666  23.626  0.00  0.00    -0.026 A 
ATOM      3  C   UNL     1       6.999  -5.913  23.192  0.00  0.00    +0.005 A 
ATOM      4  C   UNL     1       6.415  -6.074  21.941  0.00  0.00    +0.000 A 
ATOM      5  C   UNL     1       6.346  -4.993  21.083  0.00  0.00    +0.002 A 
ATOM      6  C   UNL     1       6.845  -3.754  21.487  0.00  0.00    +0.023 A 
ENDROOT
BRANCH   1   8
ATOM      7  C   UNL     1       9.146  -1.752  22.924  0.00  0.00    +0.248 C 
ATOM      8  N   UNL     1       7.866  -2.258  23.146  0.00  0.00    -0.281 N 
ATOM      9  H   UNL     1       7.166  -1.600  23.447  0.00  0.00    +0.155 HD
ATOM     10  O   UNL     1      10.103  -2.362  22.455  0.00  0.00    -0.270 OA
BRANCH   7  14
ATOM     11  C   UNL     1       9.737   2.454  23.462  0.00  0.00    +0.120 A 
ATOM     12  C   UNL     1       9.360   1.672  24.560  0.00  0.00    +0.046 A 
ATOM     13  C   UNL     1       9.159   0.291  24.423  0.00  0.00    +0.016 A 
ATOM     14  C   UNL     1       9.356  -0.308  23.178  0.00  0.00    +0.037 A 
ATOM     15  C   UNL     1       9.817   0.466  22.102  0.00  0.00    +0.016 A 
ATOM     16  C   UNL     1      10.006   1.841  22.241  0.00  0.00    +0.046 A 
BRANCH  11  18
ATOM     17  C   UNL     1       8.853   4.344  24.547  0.00  0.00    +0.277 C 
ATOM     18  O   UNL     1       9.850   3.800  23.684  0.00  0.00    -0.495 OA
ENDBRANCH  11  18
ENDBRANCH   7  14
ENDBRANCH   1   8
BRANCH   2  19
ATOM     19  C   UNL     1       8.177  -4.675  24.983  0.00  0.00    +0.038 C 
BRANCH  19  20
ATOM     20  C   UNL     1       7.309  -4.609  26.240  0.00  0.00    +0.023 C 
BRANCH  20  21
ATOM     21  C   UNL     1       5.781  -4.785  26.071  0.00  0.00    +0.057 C 
ATOM     22  N   UNL     1       5.130  -3.785  26.953  0.00  0.00    -0.302 NA
ATOM     23  C   UNL     1       3.761  -3.479  26.542  0.00  0.00    +0.105 C 
ATOM     24  C   UNL     1       5.201  -4.143  28.377  0.00  0.00    +0.084 C 
ATOM     25  C   UNL     1       4.702  -5.552  28.700  0.00  0.00    +0.015 C 
ATOM     26  C   UNL     1       5.346  -6.608  27.809  0.00  0.00    +0.003 C 
ATOM     27  C   UNL     1       5.263  -6.212  26.337  0.00  0.00    +0.019 C 
ENDBRANCH  20  21
ENDBRANCH  19  20
ENDBRANCH   2  19
TORSDOF 6
ENDMDL
MODEL 7
REMARK VINA RESULT:      -6.1      2.668      6.956
REMARK  Name = 
REMARK  8 active torsions:
REMARK  status: ('A' for Active; 'I' for Inactive)
REMARK    1  A    between atoms: C_1  and  O_2
REMARK    2  A    between atoms: O_2  and  C_3
REMARK    3  A    between atoms: C_6  and  C_9
REMARK    4  A    between atoms: N_11  and  C_12
REMARK    5  A    between atoms: C_17  and  C_18
REMARK    6  A    between atoms: C_18  and  C_19
REMARK    7  A    between atoms: C_19  and  C_20
REMARK    8  A    between atoms: N_25  and  C_26
REMARK                            x       y       z     vdW  Elec       q    Type
REMARK                         _______ _______ _______ _____ _____    ______ ____
ROOT
ATOM      1  C   UNL     1       8.372  -0.395  24.833  0.00  0.00    +0.037 A 
ATOM      2  C   UNL     1       9.041  -0.910  23.697  0.00  0.00    -0.026 A 
ATOM      3  C   UNL     1       9.916  -0.060  22.979  0.00  0.00    +0.005 A 
ATOM      4  C   UNL     1      10.137   1.259  23.360  0.00  0.00    +0.000 A 
ATOM      5  C   UNL     1       9.504   1.753  24.485  0.00  0.00    +0.002 A 
ATOM      6  C   UNL     1       8.642   0.932  25.212  0.00  0.00    +0.023 A 
ENDROOT
BRANCH   1   8
ATOM      7  C   UNL     1       6.062  -1.155  25.435  0.00  0.00    +0.248 C 
ATOM      8  N   UNL     1       7.448  -1.184  25.578  0.00  0.00    -0.281 N 
ATOM      9  H   UNL     1       7.829  -1.939  26.124  0.00  0.00    +0.155 HD
ATOM     10  O   UNL     1       5.416  -0.388  24.726  0.00  0.00    -0.270 OA
BRANCH   7  14
ATOM     11  C   UNL     1       3.954  -4.212  27.565  0.00  0.00    +0.120 A 
ATOM     12  C   UNL     1       3.302  -3.525  26.535  0.00  0.00    +0.046 A 
ATOM     13  C   UNL     1       3.960  -2.519  25.814  0.00  0.00    +0.016 A 
ATOM     14  C   UNL     1       5.288  -2.215  26.119  0.00  0.00    +0.037 A 
ATOM     15  C   UNL     1       5.963  -2.966  27.094  0.00  0.00    +0.016 A 
ATOM     16  C   UNL     1       5.301  -3.960  27.815  0.00  0.00    +0.046 A 
BRANCH  11  18
ATOM     17  C   UNL     1       3.863  -6.384  28.463  0.00  0.00    +0.277 C 
ATOM     18  O   UNL     1       3.209  -5.134  28.248  0.00  0.00    -0.495 OA
ENDBRANCH  11  18
ENDBRANCH   7  14
ENDBRANCH   1   8
BRANCH   2  19
ATOM     19  C   UNL     1       8.967  -2.335  23.196  0.00  0.00    +0.038 C 
BRANCH  19  20
ATOM     20  C   UNL     1       7.669  -2.833  22.560  0.00  0.00    +0.023 C 
BRANCH  20  21
ATOM     21  C   UNL     1       7.544  -4.348  22.269  0.00  0.00    +0.057 C 
ATOM     22  N   UNL     1       6.183  -4.575  21.727  0.00  0.00    -0.302 NA
ATOM     23  C   UNL     1       6.084  -5.809  20.949  0.00  0.00    +0.105 C 
ATOM     24  C   UNL     1       5.135  -4.498  22.756  0.00  0.00    +0.084 C 
ATOM     25  C   UNL     1       5.382  -5.383  23.977  0.00  0.00    +0.015 C 
ATOM     26  C   UNL     1       6.777  -5.181  24.560  0.00  0.00    +0.003 C 
ATOM     27  C   UNL     1       7.845  -5.262  23.473  0.00  0.00    +0.019 C 
ENDBRANCH  20  21
ENDBRANCH  19  20
ENDBRANCH   2  19
TORSDOF 6
ENDMDL
MODEL 8
REMARK VINA RESULT:      -6.1      2.116      4.528
REMARK  Name = 
REMARK  8 active torsions:
REMARK  status: ('A' for Active; 'I' for Inactive)
REMARK    1  A    between atoms: C_1  and  O_2
REMARK    2  A    between atoms: O_2  and  C_3
REMARK    3  A    between atoms: C_6  and  C_9
REMARK    4  A    between atoms: N_11  and  C_12
REMARK    5  A    between atoms: C_17  and  C_18
REMARK    6  A    between atoms: C_18  and  C_19
REMARK    7  A    between atoms: C_19  and  C_20
REMARK    8  A    between atoms: N_25  and  C_26
REMARK                            x       y       z     vdW  Elec       q    Type
REMARK                         _______ _______ _______ _____ _____    ______ ____
ROOT
ATOM      1  C   UNL     1       5.784  -2.020  26.730  0.00  0.00    +0.037 A 
ATOM      2  C   UNL     1       6.225  -3.356  26.885  0.00  0.00    -0.026 A 
ATOM      3  C   UNL     1       5.435  -4.249  27.646  0.00  0.00    +0.005 A 
ATOM      4  C   UNL     1       4.242  -3.853  28.240  0.00  0.00    +0.000 A 
ATOM      5  C   UNL     1       3.798  -2.556  28.066  0.00  0.00    +0.002 A 
ATOM      6  C   UNL     1       4.557  -1.658  27.315  0.00  0.00    +0.023 A 
ENDROOT
BRANCH   1   8
ATOM      7  C   UNL     1       7.450  -0.155  26.575  0.00  0.00    +0.248 C 
ATOM      8  N   UNL     1       6.550  -1.057  26.010  0.00  0.00    -0.281 N 
ATOM      9  H   UNL     1       6.574  -1.150  25.008  0.00  0.00    +0.155 HD
ATOM     10  O   UNL     1       7.653   0.023  27.773  0.00  0.00    -0.270 OA
BRANCH   7  14
ATOM     11  C   UNL     1      10.069   1.839  23.837  0.00  0.00    +0.120 A 
ATOM     12  C   UNL     1       8.939   2.513  24.314  0.00  0.00    +0.046 A 
ATOM     13  C   UNL     1       8.059   1.893  25.213  0.00  0.00    +0.016 A 
ATOM     14  C   UNL     1       8.328   0.595  25.648  0.00  0.00    +0.037 A 
ATOM     15  C   UNL     1       9.508  -0.044  25.234  0.00  0.00    +0.016 A 
ATOM     16  C   UNL     1      10.374   0.573  24.332  0.00  0.00    +0.046 A 
BRANCH  11  18
ATOM     17  C   UNL     1      11.323   3.771  23.362  0.00  0.00    +0.277 C 
ATOM     18  O   UNL     1      10.832   2.507  22.918  0.00  0.00    -0.495 OA
ENDBRANCH  11  18
ENDBRANCH   7  14
ENDBRANCH   1   8
BRANCH   2  19
ATOM     19  C   UNL     1       7.455  -3.961  26.247  0.00  0.00    +0.038 C 
BRANCH  19  20
ATOM     20  C   UNL     1       7.288  -4.890  25.044  0.00  0.00    +0.023 C 
BRANCH  20  21
ATOM     21  C   UNL     1       7.920  -4.451  23.701  0.00  0.00    +0.057 C 
ATOM     22  N   UNL     1       7.507  -3.045  23.467  0.00  0.00    -0.302 NA
ATOM     23  C   UNL     1       8.398  -2.342  22.547  0.00  0.00    +0.105 C 
ATOM     24  C   UNL     1       6.099  -2.921  23.059  0.00  0.00    +0.084 C 
ATOM     25  C   UNL     1       5.705  -3.803  21.874  0.00  0.00    +0.015 C 
ATOM     26  C   UNL     1       6.119  -5.257  22.076  0.00  0.00    +0.003 C 
ATOM     27  C   UNL     1       7.581  -5.358  22.502  0.00  0.00    +0.019 C 
ENDBRANCH  20  21
ENDBRANCH  19  20
ENDBRANCH   2  19
TORSDOF 6
ENDMDL
MODEL 9
REMARK VINA RESULT:      -6.0      3.456      8.761
REMARK  Name = 
REMARK  8 active torsions:
REMARK  status: ('A' for Active; 'I' for Inactive)
REMARK    1  A    between atoms: C_1  and  O_2
REMARK    2  A    between atoms: O_2  and  C_3
REMARK    3  A    between atoms: C_6  and  C_9
REMARK    4  A    between atoms: N_11  and  C_12
REMARK    5  A    between atoms: C_17  and  C_18
REMARK    6  A    between atoms: C_18  and  C_19
REMARK    7  A    between atoms: C_19  and  C_20
REMARK    8  A    between atoms: N_25  and  C_26
REMARK                            x       y       z     vdW  Elec       q    Type
REMARK                         _______ _______ _______ _____ _____    ______ ____
ROOT
ATOM      1  C   UNL     1       9.818   2.936  24.085  0.00  0.00    +0.037 A 
ATOM      2  C   UNL     1       9.057   3.940  24.731  0.00  0.00    -0.026 A 
ATOM      3  C   UNL     1       9.498   5.282  24.655  0.00  0.00    +0.005 A 
ATOM      4  C   UNL     1      10.650   5.640  23.963  0.00  0.00    +0.000 A 
ATOM      5  C   UNL     1      11.377   4.663  23.311  0.00  0.00    +0.002 A 
ATOM      6  C   UNL     1      10.959   3.334  23.367  0.00  0.00    +0.023 A 
ENDROOT
BRANCH   1   8
ATOM      7  C   UNL     1       8.782   0.851  23.160  0.00  0.00    +0.248 C 
ATOM      8  N   UNL     1       9.453   1.560  24.155  0.00  0.00    -0.281 N 
ATOM      9  H   UNL     1       9.860   1.017  24.899  0.00  0.00    +0.155 HD
ATOM     10  O   UNL     1       8.316   1.311  22.121  0.00  0.00    -0.270 OA
BRANCH   7  14
ATOM     11  C   UNL     1       8.723  -3.393  23.722  0.00  0.00    +0.120 A 
ATOM     12  C   UNL     1       7.600  -2.761  23.175  0.00  0.00    +0.046 A 
ATOM     13  C   UNL     1       7.584  -1.374  22.974  0.00  0.00    +0.016 A 
ATOM     14  C   UNL     1       8.709  -0.620  23.309  0.00  0.00    +0.037 A 
ATOM     15  C   UNL     1       9.863  -1.270  23.777  0.00  0.00    +0.016 A 
ATOM     16  C   UNL     1       9.871  -2.649  23.983  0.00  0.00    +0.046 A 
BRANCH  11  18
ATOM     17  C   UNL     1       8.870  -5.151  25.278  0.00  0.00    +0.277 C 
ATOM     18  O   UNL     1       8.619  -4.741  23.934  0.00  0.00    -0.495 OA
ENDBRANCH  11  18
ENDBRANCH   7  14
ENDBRANCH   1   8
BRANCH   2  19
ATOM     19  C   UNL     1       7.748   3.728  25.459  0.00  0.00    +0.038 C 
BRANCH  19  20
ATOM     20  C   UNL     1       6.470   3.520  24.645  0.00  0.00    +0.023 C 
BRANCH  20  21
ATOM     21  C   UNL     1       6.439   4.073  23.200  0.00  0.00    +0.057 C 
ATOM     22  N   UNL     1       6.199   5.533  23.299  0.00  0.00    -0.302 NA
ATOM     23  C   UNL     1       6.638   6.259  22.109  0.00  0.00    +0.105 C 
ATOM     24  C   UNL     1       4.811   5.864  23.655  0.00  0.00    +0.084 C 
ATOM     25  C   UNL     1       3.757   5.205  22.765  0.00  0.00    +0.015 C 
ATOM     26  C   UNL     1       3.974   3.701  22.633  0.00  0.00    +0.003 C 
ATOM     27  C   UNL     1       5.422   3.384  22.268  0.00  0.00    +0.019 C 
ENDBRANCH  20  21
ENDBRANCH  19  20
ENDBRANCH   2  19
TORSDOF 6
ENDMDL
