MODEL 1
REMARK VINA RESULT:      -3.1      0.000      0.000
REMARK  Name = 
REMARK  3 active torsions:
REMARK  status: ('A' for Active; 'I' for Inactive)
REMARK    1  A    between atoms: O_1  and  C_2
REMARK    2  A    between atoms: C_2  and  C_3
REMARK    3  A    between atoms: C_3  and  C_4
REMARK                            x       y       z     vdW  Elec       q    Type
REMARK                         _______ _______ _______ _____ _____    ______ ____
ROOT
ATOM      1  C   UNL     1       9.867  -0.097  21.835  0.00  0.00    +0.070 C 
ENDROOT
BRANCH   1   2
ATOM      2  C   UNL     1      10.122  -0.729  23.179  0.00  0.00    -0.009 C 
ATOM      3  C   UNL     1       9.989  -2.041  23.412  0.00  0.00    +0.020 C 
ATOM      4 BR   UNL     1      10.568   0.449  24.564  0.00  0.00    -0.055 Br
ENDBRANCH   1   2
BRANCH   1   5
ATOM      5  C   UNL     1       9.213   1.283  21.904  0.00  0.00    +0.161 C 
BRANCH   5   6
ATOM      6  O   UNL     1      10.165   2.269  21.512  0.00  0.00    -0.395 OA
ATOM      7  H   UNL     1       9.789   3.136  21.744  0.00  0.00    +0.209 HD
ENDBRANCH   5   6
ENDBRANCH   1   5
TORSDOF 3
ENDMDL
MODEL 2
REMARK VINA RESULT:      -3.1      1.394      1.624
REMARK  Name = 
REMARK  3 active torsions:
REMARK  status: ('A' for Active; 'I' for Inactive)
REMARK    1  A    between atoms: O_1  and  C_2
REMARK    2  A    between atoms: C_2  and  C_3
REMARK    3  A    between atoms: C_3  and  C_4
REMARK                            x       y       z     vdW  Elec       q    Type
REMARK                         _______ _______ _______ _____ _____    ______ ____
ROOT
ATOM      1  C   UNL     1       9.891   0.004  21.983  0.00  0.00    +0.070 C 
ENDROOT
BRANCH   1   2
ATOM      2  C   UNL     1      10.134  -0.462  23.396  0.00  0.00    -0.009 C 
ATOM      3  C   UNL     1      10.610   0.335  24.361  0.00  0.00    +0.020 C 
ATOM      4 BR   UNL     1       9.802  -2.275  23.726  0.00  0.00    -0.055 Br
ENDBRANCH   1   2
BRANCH   1   5
ATOM      5  C   UNL     1       9.263   1.393  21.880  0.00  0.00    +0.161 C 
BRANCH   5   6
ATOM      6  O   UNL     1      10.277   2.339  21.546  0.00  0.00    -0.395 OA
ATOM      7  H   UNL     1      10.860   1.912  20.894  0.00  0.00    +0.209 HD
ENDBRANCH   5   6
ENDBRANCH   1   5
TORSDOF 3
ENDMDL
MODEL 3
REMARK VINA RESULT:      -3.0      1.998      2.805
REMARK  Name = 
REMARK  3 active torsions:
REMARK  status: ('A' for Active; 'I' for Inactive)
REMARK    1  A    between atoms: O_1  and  C_2
REMARK    2  A    between atoms: C_2  and  C_3
REMARK    3  A    between atoms: C_3  and  C_4
REMARK                            x       y       z     vdW  Elec       q    Type
REMARK                         _______ _______ _______ _____ _____    ______ ____
ROOT
ATOM      1  C   UNL     1       9.844   0.852  21.873  0.00  0.00    +0.070 C 
ENDROOT
BRANCH   1   2
ATOM      2  C   UNL     1      10.241   1.498  23.175  0.00  0.00    -0.009 C 
ATOM      3  C   UNL     1      10.495   2.807  23.300  0.00  0.00    +0.020 C 
ATOM      4 BR   UNL     1      10.441   0.340  24.633  0.00  0.00    -0.055 Br
ENDBRANCH   1   2
BRANCH   1   5
ATOM      5  C   UNL     1       9.289  -0.564  22.018  0.00  0.00    +0.161 C 
BRANCH   5   6
ATOM      6  O   UNL     1      10.206  -1.486  21.433  0.00  0.00    -0.395 OA
ATOM      7  H   UNL     1       9.962  -1.573  20.494  0.00  0.00    +0.209 HD
ENDBRANCH   5   6
ENDBRANCH   1   5
TORSDOF 3
ENDMDL
MODEL 4
REMARK VINA RESULT:      -3.0      2.489      3.251
REMARK  Name = 
REMARK  3 active torsions:
REMARK  status: ('A' for Active; 'I' for Inactive)
REMARK    1  A    between atoms: O_1  and  C_2
REMARK    2  A    between atoms: C_2  and  C_3
REMARK    3  A    between atoms: C_3  and  C_4
REMARK                            x       y       z     vdW  Elec       q    Type
REMARK                         _______ _______ _______ _____ _____    ______ ____
ROOT
ATOM      1  C   UNL     1      10.165  -1.227  22.353  0.00  0.00    +0.070 C 
ENDROOT
BRANCH   1   2
ATOM      2  C   UNL     1      10.158   0.218  22.779  0.00  0.00    -0.009 C 
ATOM      3  C   UNL     1       9.884   1.230  21.946  0.00  0.00    +0.020 C 
ATOM      4 BR   UNL     1      10.640   0.547  24.559  0.00  0.00    -0.055 Br
ENDBRANCH   1   2
BRANCH   1   5
ATOM      5  C   UNL     1       9.337  -2.149  23.249  0.00  0.00    +0.161 C 
BRANCH   5   6
ATOM      6  O   UNL     1      10.209  -3.075  23.895  0.00  0.00    -0.395 OA
ATOM      7  H   UNL     1       9.667  -3.584  24.524  0.00  0.00    +0.209 HD
ENDBRANCH   5   6
ENDBRANCH   1   5
TORSDOF 3
ENDMDL
MODEL 5
REMARK VINA RESULT:      -2.9      2.309      2.894
REMARK  Name = 
REMARK  3 active torsions:
REMARK  status: ('A' for Active; 'I' for Inactive)
REMARK    1  A    between atoms: O_1  and  C_2
REMARK    2  A    between atoms: C_2  and  C_3
REMARK    3  A    between atoms: C_3  and  C_4
REMARK                            x       y       z     vdW  Elec       q    Type
REMARK                         _______ _______ _______ _____ _____    ______ ____
ROOT
ATOM      1  C   UNL     1       9.219  -0.646  23.461  0.00  0.00    +0.070 C 
ENDROOT
BRANCH   1   2
ATOM      2  C   UNL     1      10.118   0.559  23.567  0.00  0.00    -0.009 C 
ATOM      3  C   UNL     1      10.971   0.753  24.581  0.00  0.00    +0.020 C 
ATOM      4 BR   UNL     1       9.923   1.845  22.220  0.00  0.00    -0.055 Br
ENDBRANCH   1   2
BRANCH   1   5
ATOM      5  C   UNL     1       9.908  -1.895  22.912  0.00  0.00    +0.161 C 
BRANCH   5   6
ATOM      6  O   UNL     1      10.275  -1.665  21.553  0.00  0.00    -0.395 OA
ATOM      7  H   UNL     1      10.832  -0.867  21.540  0.00  0.00    +0.209 HD
ENDBRANCH   5   6
ENDBRANCH   1   5
TORSDOF 3
ENDMDL
MODEL 6
REMARK VINA RESULT:      -2.9      5.654      6.340
REMARK  Name = 
REMARK  3 active torsions:
REMARK  status: ('A' for Active; 'I' for Inactive)
REMARK    1  A    between atoms: O_1  and  C_2
REMARK    2  A    between atoms: C_2  and  C_3
REMARK    3  A    between atoms: C_3  and  C_4
REMARK                            x       y       z     vdW  Elec       q    Type
REMARK                         _______ _______ _______ _____ _____    ______ ____
ROOT
ATOM      1  C   UNL     1       8.186  -5.123  24.552  0.00  0.00    +0.070 C 
ENDROOT
BRANCH   1   2
ATOM      2  C   UNL     1       7.750  -4.548  23.229  0.00  0.00    -0.009 C 
ATOM      3  C   UNL     1       7.821  -3.243  22.936  0.00  0.00    +0.020 C 
ATOM      4 BR   UNL     1       7.013  -5.765  22.012  0.00  0.00    -0.055 Br
ENDBRANCH   1   2
BRANCH   1   5
ATOM      5  C   UNL     1       9.493  -4.541  25.089  0.00  0.00    +0.161 C 
BRANCH   5   6
ATOM      6  O   UNL     1      10.387  -5.609  25.396  0.00  0.00    -0.395 OA
ATOM      7  H   UNL     1      11.208  -5.445  24.900  0.00  0.00    +0.209 HD
ENDBRANCH   5   6
ENDBRANCH   1   5
TORSDOF 3
ENDMDL
MODEL 7
REMARK VINA RESULT:      -2.7      2.817      3.316
REMARK  Name = 
REMARK  3 active torsions:
REMARK  status: ('A' for Active; 'I' for Inactive)
REMARK    1  A    between atoms: O_1  and  C_2
REMARK    2  A    between atoms: C_2  and  C_3
REMARK    3  A    between atoms: C_3  and  C_4
REMARK                            x       y       z     vdW  Elec       q    Type
REMARK                         _______ _______ _______ _____ _____    ______ ____
ROOT
ATOM      1  C   UNL     1      10.264   1.803  23.600  0.00  0.00    +0.070 C 
ENDROOT
BRANCH   1   2
ATOM      2  C   UNL     1       9.466   1.257  22.444  0.00  0.00    -0.009 C 
ATOM      3  C   UNL     1       9.797   0.138  21.785  0.00  0.00    +0.020 C 
ATOM      4 BR   UNL     1       7.996   2.285  21.909  0.00  0.00    -0.055 Br
ENDBRANCH   1   2
BRANCH   1   5
ATOM      5  C   UNL     1      11.007   0.739  24.408  0.00  0.00    +0.161 C 
BRANCH   5   6
ATOM      6  O   UNL     1      10.250   0.430  25.576  0.00  0.00    -0.395 OA
ATOM      7  H   UNL     1      10.686   0.874  26.324  0.00  0.00    +0.209 HD
ENDBRANCH   5   6
ENDBRANCH   1   5
TORSDOF 3
ENDMDL
MODEL 8
REMARK VINA RESULT:      -2.7      5.817      6.407
REMARK  Name = 
REMARK  3 active torsions:
REMARK  status: ('A' for Active; 'I' for Inactive)
REMARK    1  A    between atoms: O_1  and  C_2
REMARK    2  A    between atoms: C_2  and  C_3
REMARK    3  A    between atoms: C_3  and  C_4
REMARK                            x       y       z     vdW  Elec       q    Type
REMARK                         _______ _______ _______ _____ _____    ______ ____
ROOT
ATOM      1  C   UNL     1       8.669  -3.962  26.306  0.00  0.00    +0.070 C 
ENDROOT
BRANCH   1   2
ATOM      2  C   UNL     1       8.719  -4.003  24.800  0.00  0.00    -0.009 C 
ATOM      3  C   UNL     1       8.178  -4.989  24.073  0.00  0.00    +0.020 C 
ATOM      4 BR   UNL     1       9.665  -2.612  23.976  0.00  0.00    -0.055 Br
ENDBRANCH   1   2
BRANCH   1   5
ATOM      5  C   UNL     1       7.472  -4.691  26.914  0.00  0.00    +0.161 C 
BRANCH   5   6
ATOM      6  O   UNL     1       7.924  -5.896  27.528  0.00  0.00    -0.395 OA
ATOM      7  H   UNL     1       8.891  -5.828  27.610  0.00  0.00    +0.209 HD
ENDBRANCH   5   6
ENDBRANCH   1   5
TORSDOF 3
ENDMDL
MODEL 9
REMARK VINA RESULT:      -2.7      4.698      5.417
REMARK  Name = 
REMARK  3 active torsions:
REMARK  status: ('A' for Active; 'I' for Inactive)
REMARK    1  A    between atoms: O_1  and  C_2
REMARK    2  A    between atoms: C_2  and  C_3
REMARK    3  A    between atoms: C_3  and  C_4
REMARK                            x       y       z     vdW  Elec       q    Type
REMARK                         _______ _______ _______ _____ _____    ______ ____
ROOT
ATOM      1  C   UNL     1       8.144  -4.513  24.140  0.00  0.00    +0.070 C 
ENDROOT
BRANCH   1   2
ATOM      2  C   UNL     1       8.268  -3.232  23.356  0.00  0.00    -0.009 C 
ATOM      3  C   UNL     1       7.384  -2.851  22.424  0.00  0.00    +0.020 C 
ATOM      4 BR   UNL     1       9.798  -2.209  23.700  0.00  0.00    -0.055 Br
ENDBRANCH   1   2
BRANCH   1   5
ATOM      5  C   UNL     1       9.145  -4.646  25.287  0.00  0.00    +0.161 C 
BRANCH   5   6
ATOM      6  O   UNL     1      10.080  -5.675  24.973  0.00  0.00    -0.395 OA
ATOM      7  H   UNL     1       9.764  -6.488  25.404  0.00  0.00    +0.209 HD
ENDBRANCH   5   6
ENDBRANCH   1   5
TORSDOF 3
ENDMDL
