MODEL 1
REMARK VINA RESULT:      -7.2      0.000      0.000
REMARK  Name = 
REMARK  11 active torsions:
REMARK  status: ('A' for Active; 'I' for Inactive)
REMARK    1  A    between atoms: C_1  and  C_2
REMARK    2  A    between atoms: C_2  and  C_3
REMARK    3  A    between atoms: C_3  and  C_4
REMARK    4  A    between atoms: N_6  and  C_7
REMARK    5  A    between atoms: C_11  and  C_15
REMARK    6  A    between atoms: C_16  and  O_17
REMARK    7  A    between atoms: O_17  and  C_18
REMARK    8  A    between atoms: C_18  and  C_19
REMARK    9  A    between atoms: C_22  and  S_24
REMARK   10  A    between atoms: S_24  and  N_27
REMARK   11  A    between atoms: N_30  and  C_31
REMARK                            x       y       z     vdW  Elec       q    Type
REMARK                         _______ _______ _______ _____ _____    ______ ____
ROOT
ATOM      1  C   UNL     1       8.203  -1.399  24.784  0.00  0.00    +0.061 A 
ATOM      2  C   UNL     1       7.441  -2.238  25.611  0.00  0.00    +0.043 A 
ATOM      3  C   UNL     1       7.816  -3.577  25.759  0.00  0.00    +0.106 A 
ATOM      4  C   UNL     1       8.952  -4.075  25.120  0.00  0.00    +0.032 A 
ATOM      5  C   UNL     1       9.714  -3.241  24.305  0.00  0.00    +0.048 A 
ATOM      6  C   UNL     1       9.339  -1.908  24.108  0.00  0.00    +0.131 A 
ENDROOT
BRANCH   1  11
ATOM      7  C   UNL     1       8.978   3.410  23.879  0.00  0.00    +0.087 A 
ATOM      8  C   UNL     1       8.290   2.217  24.138  0.00  0.00    +0.095 A 
ATOM      9  N   UNL     1       8.700   0.967  24.348  0.00  0.00    -0.336 N 
ATOM     10  H   UNL     1       9.672   0.705  24.481  0.00  0.00    +0.167 HD
ATOM     11  C   UNL     1       7.721   0.012  24.560  0.00  0.00    +0.146 A 
ATOM     12  N   UNL     1       6.433   0.236  24.557  0.00  0.00    -0.189 NA
ATOM     13  C   UNL     1       5.941   1.525  24.366  0.00  0.00    +0.299 A 
ATOM     14  O   UNL     1       4.747   1.795  24.388  0.00  0.00    -0.263 OA
ATOM     15  C   UNL     1       6.961   2.505  24.148  0.00  0.00    +0.151 A 
ATOM     16  N   UNL     1       6.890   3.848  23.929  0.00  0.00    -0.260 N 
ATOM     17  C   UNL     1       5.700   4.665  23.886  0.00  0.00    +0.173 C 
ATOM     18  N   UNL     1       8.109   4.428  23.756  0.00  0.00    -0.174 NA
BRANCH   7  19
ATOM     19  C   UNL     1      10.449   3.621  23.743  0.00  0.00    +0.059 C 
BRANCH  19  21
ATOM     20  C   UNL     1      12.229   5.332  23.198  0.00  0.00    +0.004 C 
ATOM     21  C   UNL     1      10.833   5.105  23.753  0.00  0.00    +0.003 C 
ENDBRANCH  19  21
ENDBRANCH   7  19
ENDBRANCH   1  11
BRANCH   3  22
ATOM     22  S   UNL     1       6.737  -4.736  26.567  0.00  0.00    +0.061 S 
ATOM     23  O   UNL     1       6.490  -4.213  27.895  0.00  0.00    -0.153 OA
ATOM     24  O   UNL     1       7.305  -6.053  26.392  0.00  0.00    -0.153 OA
BRANCH  22  25
ATOM     25  N   UNL     1       5.288  -4.609  25.678  0.00  0.00    -0.174 NA
ATOM     26  C   UNL     1       4.138  -5.351  26.285  0.00  0.00    +0.125 C 
ATOM     27  C   UNL     1       4.242  -6.864  26.009  0.00  0.00    +0.101 C 
ATOM     28  N   UNL     1       4.330  -7.215  24.578  0.00  0.00    -0.303 NA
ATOM     29  C   UNL     1       3.047  -7.064  23.899  0.00  0.00    +0.105 C 
ATOM     30  C   UNL     1       5.395  -6.425  23.921  0.00  0.00    +0.101 C 
ATOM     31  C   UNL     1       5.372  -4.906  24.212  0.00  0.00    +0.125 C 
ENDBRANCH  22  25
ENDBRANCH   3  22
BRANCH   6  32
ATOM     32  O   UNL     1      10.006  -1.058  23.261  0.00  0.00    -0.492 OA
BRANCH  32  33
ATOM     33  C   UNL     1       9.908  -1.303  21.857  0.00  0.00    +0.226 C 
ATOM     34  C   UNL     1       9.311  -0.071  21.202  0.00  0.00    +0.048 C 
ENDBRANCH  32  33
ENDBRANCH   6  32
TORSDOF 7
ENDMDL
MODEL 2
REMARK VINA RESULT:      -7.2      2.668      8.366
REMARK  Name = 
REMARK  11 active torsions:
REMARK  status: ('A' for Active; 'I' for Inactive)
REMARK    1  A    between atoms: C_1  and  C_2
REMARK    2  A    between atoms: C_2  and  C_3
REMARK    3  A    between atoms: C_3  and  C_4
REMARK    4  A    between atoms: N_6  and  C_7
REMARK    5  A    between atoms: C_11  and  C_15
REMARK    6  A    between atoms: C_16  and  O_17
REMARK    7  A    between atoms: O_17  and  C_18
REMARK    8  A    between atoms: C_18  and  C_19
REMARK    9  A    between atoms: C_22  and  S_24
REMARK   10  A    between atoms: S_24  and  N_27
REMARK   11  A    between atoms: N_30  and  C_31
REMARK                            x       y       z     vdW  Elec       q    Type
REMARK                         _______ _______ _______ _____ _____    ______ ____
ROOT
ATOM      1  C   UNL     1       7.997  -2.384  23.082  0.00  0.00    +0.061 A 
ATOM      2  C   UNL     1       7.924  -1.093  22.541  0.00  0.00    +0.043 A 
ATOM      3  C   UNL     1       9.058  -0.275  22.564  0.00  0.00    +0.106 A 
ATOM      4  C   UNL     1      10.264  -0.741  23.091  0.00  0.00    +0.032 A 
ATOM      5  C   UNL     1      10.340  -2.026  23.622  0.00  0.00    +0.048 A 
ATOM      6  C   UNL     1       9.211  -2.851  23.647  0.00  0.00    +0.131 A 
ENDROOT
BRANCH   1  11
ATOM      7  C   UNL     1       3.586  -3.532  25.023  0.00  0.00    +0.087 A 
ATOM      8  C   UNL     1       4.707  -3.591  24.185  0.00  0.00    +0.095 A 
ATOM      9  N   UNL     1       5.831  -2.878  24.130  0.00  0.00    -0.336 N 
ATOM     10  H   UNL     1       6.108  -2.205  24.836  0.00  0.00    +0.167 HD
ATOM     11  C   UNL     1       6.736  -3.209  23.137  0.00  0.00    +0.146 A 
ATOM     12  N   UNL     1       6.571  -4.150  22.245  0.00  0.00    -0.189 NA
ATOM     13  C   UNL     1       5.428  -4.946  22.263  0.00  0.00    +0.299 A 
ATOM     14  O   UNL     1       5.239  -5.863  21.474  0.00  0.00    -0.263 OA
ATOM     15  C   UNL     1       4.498  -4.597  23.294  0.00  0.00    +0.151 A 
ATOM     16  N   UNL     1       3.290  -5.126  23.636  0.00  0.00    -0.260 N 
ATOM     17  C   UNL     1       2.622  -6.251  23.024  0.00  0.00    +0.173 C 
ATOM     18  N   UNL     1       2.706  -4.491  24.688  0.00  0.00    -0.174 NA
BRANCH   7  19
ATOM     19  C   UNL     1       3.317  -2.586  26.147  0.00  0.00    +0.059 C 
BRANCH  19  21
ATOM     20  C   UNL     1       4.899  -3.585  27.847  0.00  0.00    +0.004 C 
ATOM     21  C   UNL     1       3.453  -3.251  27.520  0.00  0.00    +0.003 C 
ENDBRANCH  19  21
ENDBRANCH   7  19
ENDBRANCH   1  11
BRANCH   3  22
ATOM     22  S   UNL     1       8.942   1.449  22.145  0.00  0.00    +0.061 S 
ATOM     23  O   UNL     1       8.000   1.544  21.048  0.00  0.00    -0.153 OA
ATOM     24  O   UNL     1      10.288   1.953  22.001  0.00  0.00    -0.153 OA
BRANCH  22  25
ATOM     25  N   UNL     1       8.212   2.139  23.522  0.00  0.00    -0.174 NA
ATOM     26  C   UNL     1       7.010   2.977  23.214  0.00  0.00    +0.125 C 
ATOM     27  C   UNL     1       7.418   4.359  22.667  0.00  0.00    +0.101 C 
ATOM     28  N   UNL     1       8.314   5.124  23.558  0.00  0.00    -0.303 NA
ATOM     29  C   UNL     1       7.602   5.663  24.713  0.00  0.00    +0.105 C 
ATOM     30  C   UNL     1       9.466   4.289  23.965  0.00  0.00    +0.101 C 
ATOM     31  C   UNL     1       9.116   2.869  24.467  0.00  0.00    +0.125 C 
ENDBRANCH  22  25
ENDBRANCH   3  22
BRANCH   6  32
ATOM     32  O   UNL     1       9.204  -4.098  24.222  0.00  0.00    -0.492 OA
BRANCH  32  33
ATOM     33  C   UNL     1       9.152  -4.175  25.647  0.00  0.00    +0.226 C 
ATOM     34  C   UNL     1       8.060  -5.156  26.030  0.00  0.00    +0.048 C 
ENDBRANCH  32  33
ENDBRANCH   6  32
TORSDOF 7
ENDMDL
MODEL 3
REMARK VINA RESULT:      -7.1      2.276      8.839
REMARK  Name = 
REMARK  11 active torsions:
REMARK  status: ('A' for Active; 'I' for Inactive)
REMARK    1  A    between atoms: C_1  and  C_2
REMARK    2  A    between atoms: C_2  and  C_3
REMARK    3  A    between atoms: C_3  and  C_4
REMARK    4  A    between atoms: N_6  and  C_7
REMARK    5  A    between atoms: C_11  and  C_15
REMARK    6  A    between atoms: C_16  and  O_17
REMARK    7  A    between atoms: O_17  and  C_18
REMARK    8  A    between atoms: C_18  and  C_19
REMARK    9  A    between atoms: C_22  and  S_24
REMARK   10  A    between atoms: S_24  and  N_27
REMARK   11  A    between atoms: N_30  and  C_31
REMARK                            x       y       z     vdW  Elec       q    Type
REMARK                         _______ _______ _______ _____ _____    ______ ____
ROOT
ATOM      1  C   UNL     1       7.436  -2.726  24.164  0.00  0.00    +0.061 A 
ATOM      2  C   UNL     1       7.730  -1.455  24.678  0.00  0.00    +0.043 A 
ATOM      3  C   UNL     1       8.432  -0.541  23.887  0.00  0.00    +0.106 A 
ATOM      4  C   UNL     1       8.815  -0.870  22.586  0.00  0.00    +0.032 A 
ATOM      5  C   UNL     1       8.517  -2.129  22.070  0.00  0.00    +0.048 A 
ATOM      6  C   UNL     1       7.851  -3.076  22.854  0.00  0.00    +0.131 A 
ENDROOT
BRANCH   1  11
ATOM      7  C   UNL     1       3.534  -5.411  25.618  0.00  0.00    +0.087 A 
ATOM      8  C   UNL     1       4.835  -4.890  25.596  0.00  0.00    +0.095 A 
ATOM      9  N   UNL     1       5.437  -3.999  24.809  0.00  0.00    -0.336 N 
ATOM     10  H   UNL     1       4.950  -3.430  24.124  0.00  0.00    +0.167 HD
ATOM     11  C   UNL     1       6.768  -3.729  25.071  0.00  0.00    +0.146 A 
ATOM     12  N   UNL     1       7.482  -4.285  26.013  0.00  0.00    -0.189 NA
ATOM     13  C   UNL     1       6.906  -5.208  26.884  0.00  0.00    +0.299 A 
ATOM     14  O   UNL     1       7.519  -5.732  27.804  0.00  0.00    -0.263 OA
ATOM     15  C   UNL     1       5.529  -5.480  26.606  0.00  0.00    +0.151 A 
ATOM     16  N   UNL     1       4.631  -6.302  27.217  0.00  0.00    -0.260 N 
ATOM     17  C   UNL     1       4.853  -7.132  28.378  0.00  0.00    +0.173 C 
ATOM     18  N   UNL     1       3.402  -6.285  26.631  0.00  0.00    -0.174 NA
BRANCH   7  19
ATOM     19  C   UNL     1       2.397  -5.103  24.701  0.00  0.00    +0.059 C 
BRANCH  19  21
ATOM     20  C   UNL     1       1.242  -6.151  22.711  0.00  0.00    +0.004 C 
ATOM     21  C   UNL     1       2.572  -5.734  23.315  0.00  0.00    +0.003 C 
ENDBRANCH  19  21
ENDBRANCH   7  19
ENDBRANCH   1  11
BRANCH   3  22
ATOM     22  S   UNL     1       9.062   0.967  24.587  0.00  0.00    +0.061 S 
ATOM     23  O   UNL     1      10.464   0.736  24.868  0.00  0.00    -0.153 OA
ATOM     24  O   UNL     1       8.159   1.368  25.641  0.00  0.00    -0.153 OA
BRANCH  22  25
ATOM     25  N   UNL     1       8.964   2.071  23.292  0.00  0.00    -0.174 NA
ATOM     26  C   UNL     1       9.890   3.241  23.422  0.00  0.00    +0.125 C 
ATOM     27  C   UNL     1       9.343   4.277  24.422  0.00  0.00    +0.101 C 
ATOM     28  N   UNL     1       7.991   4.776  24.101  0.00  0.00    -0.303 NA
ATOM     29  C   UNL     1       8.006   5.703  22.973  0.00  0.00    +0.105 C 
ATOM     30  C   UNL     1       7.068   3.643  23.867  0.00  0.00    +0.101 C 
ATOM     31  C   UNL     1       7.593   2.543  22.915  0.00  0.00    +0.125 C 
ENDBRANCH  22  25
ENDBRANCH   3  22
BRANCH   6  32
ATOM     32  O   UNL     1       7.594  -4.356  22.429  0.00  0.00    -0.492 OA
BRANCH  32  33
ATOM     33  C   UNL     1       6.538  -4.546  21.486  0.00  0.00    +0.226 C 
ATOM     34  C   UNL     1       6.033  -5.971  21.620  0.00  0.00    +0.048 C 
ENDBRANCH  32  33
ENDBRANCH   6  32
TORSDOF 7
ENDMDL
MODEL 4
REMARK VINA RESULT:      -7.1      1.897      2.078
REMARK  Name = 
REMARK  11 active torsions:
REMARK  status: ('A' for Active; 'I' for Inactive)
REMARK    1  A    between atoms: C_1  and  C_2
REMARK    2  A    between atoms: C_2  and  C_3
REMARK    3  A    between atoms: C_3  and  C_4
REMARK    4  A    between atoms: N_6  and  C_7
REMARK    5  A    between atoms: C_11  and  C_15
REMARK    6  A    between atoms: C_16  and  O_17
REMARK    7  A    between atoms: O_17  and  C_18
REMARK    8  A    between atoms: C_18  and  C_19
REMARK    9  A    between atoms: C_22  and  S_24
REMARK   10  A    between atoms: S_24  and  N_27
REMARK   11  A    between atoms: N_30  and  C_31
REMARK                            x       y       z     vdW  Elec       q    Type
REMARK                         _______ _______ _______ _____ _____    ______ ____
ROOT
ATOM      1  C   UNL     1       8.958  -0.135  24.769  0.00  0.00    +0.061 A 
ATOM      2  C   UNL     1       8.612  -1.320  25.434  0.00  0.00    +0.043 A 
ATOM      3  C   UNL     1       9.043  -2.546  24.918  0.00  0.00    +0.106 A 
ATOM      4  C   UNL     1       9.834  -2.600  23.770  0.00  0.00    +0.032 A 
ATOM      5  C   UNL     1      10.185  -1.423  23.113  0.00  0.00    +0.048 A 
ATOM      6  C   UNL     1       9.736  -0.186  23.585  0.00  0.00    +0.131 A 
ENDROOT
BRANCH   1  11
ATOM      7  C   UNL     1       8.760   4.814  24.901  0.00  0.00    +0.087 A 
ATOM      8  C   UNL     1       8.463   3.479  25.207  0.00  0.00    +0.095 A 
ATOM      9  N   UNL     1       8.954   2.321  24.767  0.00  0.00    -0.336 N 
ATOM     10  H   UNL     1       9.777   2.244  24.179  0.00  0.00    +0.167 HD
ATOM     11  C   UNL     1       8.399   1.165  25.287  0.00  0.00    +0.146 A 
ATOM     12  N   UNL     1       7.427   1.119  26.160  0.00  0.00    -0.189 NA
ATOM     13  C   UNL     1       6.886   2.294  26.676  0.00  0.00    +0.299 A 
ATOM     14  O   UNL     1       5.999   2.307  27.520  0.00  0.00    -0.263 OA
ATOM     15  C   UNL     1       7.467   3.484  26.133  0.00  0.00    +0.151 A 
ATOM     16  N   UNL     1       7.219   4.801  26.377  0.00  0.00    -0.260 N 
ATOM     17  C   UNL     1       6.272   5.354  27.317  0.00  0.00    +0.173 C 
ATOM     18  N   UNL     1       7.993   5.639  25.634  0.00  0.00    -0.174 NA
BRANCH   7  19
ATOM     19  C   UNL     1       9.762   5.340  23.927  0.00  0.00    +0.059 C 
BRANCH  19  21
ATOM     20  C   UNL     1      12.153   6.095  24.251  0.00  0.00    +0.004 C 
ATOM     21  C   UNL     1      10.692   6.387  24.549  0.00  0.00    +0.003 C 
ENDBRANCH  19  21
ENDBRANCH   7  19
ENDBRANCH   1  11
BRANCH   3  22
ATOM     22  S   UNL     1       8.405  -4.076  25.564  0.00  0.00    +0.061 S 
ATOM     23  O   UNL     1       8.898  -4.188  26.921  0.00  0.00    -0.153 OA
ATOM     24  O   UNL     1       8.687  -5.108  24.593  0.00  0.00    -0.153 OA
BRANCH  22  25
ATOM     25  N   UNL     1       6.725  -3.799  25.640  0.00  0.00    -0.174 NA
ATOM     26  C   UNL     1       6.061  -4.425  26.827  0.00  0.00    +0.125 C 
ATOM     27  C   UNL     1       5.861  -5.939  26.622  0.00  0.00    +0.101 C 
ATOM     28  N   UNL     1       5.093  -6.290  25.410  0.00  0.00    -0.303 NA
ATOM     29  C   UNL     1       3.669  -6.007  25.565  0.00  0.00    +0.105 C 
ATOM     30  C   UNL     1       5.662  -5.607  24.227  0.00  0.00    +0.101 C 
ATOM     31  C   UNL     1       5.939  -4.096  24.399  0.00  0.00    +0.125 C 
ENDBRANCH  22  25
ENDBRANCH   3  22
BRANCH   6  32
ATOM     32  O   UNL     1       9.987   1.000  22.941  0.00  0.00    -0.492 OA
BRANCH  32  33
ATOM     33  C   UNL     1       9.597   1.111  21.571  0.00  0.00    +0.226 C 
ATOM     34  C   UNL     1       8.189   1.674  21.524  0.00  0.00    +0.048 C 
ENDBRANCH  32  33
ENDBRANCH   6  32
TORSDOF 7
ENDMDL
MODEL 5
REMARK VINA RESULT:      -6.9      2.471      3.722
REMARK  Name = 
REMARK  11 active torsions:
REMARK  status: ('A' for Active; 'I' for Inactive)
REMARK    1  A    between atoms: C_1  and  C_2
REMARK    2  A    between atoms: C_2  and  C_3
REMARK    3  A    between atoms: C_3  and  C_4
REMARK    4  A    between atoms: N_6  and  C_7
REMARK    5  A    between atoms: C_11  and  C_15
REMARK    6  A    between atoms: C_16  and  O_17
REMARK    7  A    between atoms: O_17  and  C_18
REMARK    8  A    between atoms: C_18  and  C_19
REMARK    9  A    between atoms: C_22  and  S_24
REMARK   10  A    between atoms: S_24  and  N_27
REMARK   11  A    between atoms: N_30  and  C_31
REMARK                            x       y       z     vdW  Elec       q    Type
REMARK                         _______ _______ _______ _____ _____    ______ ____
ROOT
ATOM      1  C   UNL     1       7.665   0.951  24.854  0.00  0.00    +0.061 A 
ATOM      2  C   UNL     1       7.845  -0.164  24.022  0.00  0.00    +0.043 A 
ATOM      3  C   UNL     1       8.070  -1.418  24.597  0.00  0.00    +0.106 A 
ATOM      4  C   UNL     1       8.087  -1.576  25.983  0.00  0.00    +0.032 A 
ATOM      5  C   UNL     1       7.900  -0.471  26.811  0.00  0.00    +0.048 A 
ATOM      6  C   UNL     1       7.712   0.801  26.262  0.00  0.00    +0.131 A 
ENDROOT
BRANCH   1  11
ATOM      7  C   UNL     1       9.410   5.418  23.610  0.00  0.00    +0.087 A 
ATOM      8  C   UNL     1       8.519   4.343  23.729  0.00  0.00    +0.095 A 
ATOM      9  N   UNL     1       8.624   3.144  24.301  0.00  0.00    -0.336 N 
ATOM     10  H   UNL     1       9.400   2.865  24.892  0.00  0.00    +0.167 HD
ATOM     11  C   UNL     1       7.525   2.308  24.211  0.00  0.00    +0.146 A 
ATOM     12  N   UNL     1       6.405   2.593  23.601  0.00  0.00    -0.189 NA
ATOM     13  C   UNL     1       6.224   3.838  23.003  0.00  0.00    +0.299 A 
ATOM     14  O   UNL     1       5.184   4.169  22.449  0.00  0.00    -0.263 OA
ATOM     15  C   UNL     1       7.365   4.696  23.102  0.00  0.00    +0.151 A 
ATOM     16  N   UNL     1       7.580   5.966  22.658  0.00  0.00    -0.260 N 
ATOM     17  C   UNL     1       6.648   6.818  21.958  0.00  0.00    +0.173 C 
ATOM     18  N   UNL     1       8.825   6.432  22.949  0.00  0.00    -0.174 NA
BRANCH   7  19
ATOM     19  C   UNL     1      10.813   5.518  24.108  0.00  0.00    +0.059 C 
BRANCH  19  21
ATOM     20  C   UNL     1      13.032   5.368  22.904  0.00  0.00    +0.004 C 
ATOM     21  C   UNL     1      11.779   4.619  23.328  0.00  0.00    +0.003 C 
ENDBRANCH  19  21
ENDBRANCH   7  19
ENDBRANCH   1  11
BRANCH   3  22
ATOM     22  S   UNL     1       8.575  -2.798  23.594  0.00  0.00    +0.061 S 
ATOM     23  O   UNL     1       9.921  -3.137  24.007  0.00  0.00    -0.153 OA
ATOM     24  O   UNL     1       8.293  -2.461  22.218  0.00  0.00    -0.153 OA
BRANCH  22  25
ATOM     25  N   UNL     1       7.540  -4.052  24.105  0.00  0.00    -0.174 NA
ATOM     26  C   UNL     1       7.559  -5.254  23.211  0.00  0.00    +0.125 C 
ATOM     27  C   UNL     1       6.731  -5.013  21.935  0.00  0.00    +0.101 C 
ATOM     28  N   UNL     1       5.326  -4.630  22.185  0.00  0.00    -0.303 NA
ATOM     29  C   UNL     1       4.523  -5.765  22.630  0.00  0.00    +0.105 C 
ATOM     30  C   UNL     1       5.265  -3.506  23.145  0.00  0.00    +0.101 C 
ATOM     31  C   UNL     1       6.126  -3.671  24.419  0.00  0.00    +0.125 C 
ENDBRANCH  22  25
ENDBRANCH   3  22
BRANCH   6  32
ATOM     32  O   UNL     1       7.595   1.938  27.024  0.00  0.00    -0.492 OA
BRANCH  32  33
ATOM     33  C   UNL     1       6.338   2.193  27.653  0.00  0.00    +0.226 C 
ATOM     34  C   UNL     1       6.484   1.910  29.136  0.00  0.00    +0.048 C 
ENDBRANCH  32  33
ENDBRANCH   6  32
TORSDOF 7
ENDMDL
MODEL 6
REMARK VINA RESULT:      -6.9      2.229      3.132
REMARK  Name = 
REMARK  11 active torsions:
REMARK  status: ('A' for Active; 'I' for Inactive)
REMARK    1  A    between atoms: C_1  and  C_2
REMARK    2  A    between atoms: C_2  and  C_3
REMARK    3  A    between atoms: C_3  and  C_4
REMARK    4  A    between atoms: N_6  and  C_7
REMARK    5  A    between atoms: C_11  and  C_15
REMARK    6  A    between atoms: C_16  and  O_17
REMARK    7  A    between atoms: O_17  and  C_18
REMARK    8  A    between atoms: C_18  and  C_19
REMARK    9  A    between atoms: C_22  and  S_24
REMARK   10  A    between atoms: S_24  and  N_27
REMARK   11  A    between atoms: N_30  and  C_31
REMARK                            x       y       z     vdW  Elec       q    Type
REMARK                         _______ _______ _______ _____ _____    ______ ____
ROOT
ATOM      1  C   UNL     1       7.458   1.160  24.605  0.00  0.00    +0.061 A 
ATOM      2  C   UNL     1       6.726  -0.018  24.815  0.00  0.00    +0.043 A 
ATOM      3  C   UNL     1       7.400  -1.184  25.191  0.00  0.00    +0.106 A 
ATOM      4  C   UNL     1       8.782  -1.179  25.386  0.00  0.00    +0.032 A 
ATOM      5  C   UNL     1       9.508  -0.009  25.185  0.00  0.00    +0.048 A 
ATOM      6  C   UNL     1       8.865   1.162  24.771  0.00  0.00    +0.131 A 
ENDROOT
BRANCH   1  11
ATOM      7  C   UNL     1       7.068   6.037  23.823  0.00  0.00    +0.087 A 
ATOM      8  C   UNL     1       6.729   4.677  23.831  0.00  0.00    +0.095 A 
ATOM      9  N   UNL     1       7.361   3.593  24.279  0.00  0.00    -0.336 N 
ATOM     10  H   UNL     1       8.206   3.622  24.840  0.00  0.00    +0.167 HD
ATOM     11  C   UNL     1       6.723   2.378  24.103  0.00  0.00    +0.146 A 
ATOM     12  N   UNL     1       5.564   2.208  23.523  0.00  0.00    -0.189 NA
ATOM     13  C   UNL     1       4.843   3.303  23.054  0.00  0.00    +0.299 A 
ATOM     14  O   UNL     1       3.739   3.204  22.535  0.00  0.00    -0.263 OA
ATOM     15  C   UNL     1       5.510   4.556  23.241  0.00  0.00    +0.151 A 
ATOM     16  N   UNL     1       5.141   5.830  22.928  0.00  0.00    -0.260 N 
ATOM     17  C   UNL     1       3.905   6.258  22.317  0.00  0.00    +0.173 C 
ATOM     18  N   UNL     1       6.078   6.757  23.268  0.00  0.00    -0.174 NA
BRANCH   7  19
ATOM     19  C   UNL     1       8.313   6.685  24.331  0.00  0.00    +0.059 C 
BRANCH  19  21
ATOM     20  C   UNL     1      10.744   5.998  24.246  0.00  0.00    +0.004 C 
ATOM     21  C   UNL     1       9.526   6.408  23.437  0.00  0.00    +0.003 C 
ENDBRANCH  19  21
ENDBRANCH   7  19
ENDBRANCH   1  11
BRANCH   3  22
ATOM     22  S   UNL     1       6.561  -2.752  25.201  0.00  0.00    +0.061 S 
ATOM     23  O   UNL     1       5.204  -2.496  24.763  0.00  0.00    -0.153 OA
ATOM     24  O   UNL     1       6.814  -3.372  26.481  0.00  0.00    -0.153 OA
BRANCH  22  25
ATOM     25  N   UNL     1       7.351  -3.627  23.970  0.00  0.00    -0.174 NA
ATOM     26  C   UNL     1       7.132  -3.073  22.596  0.00  0.00    +0.125 C 
ATOM     27  C   UNL     1       5.741  -3.456  22.055  0.00  0.00    +0.101 C 
ATOM     28  N   UNL     1       5.480  -4.909  22.027  0.00  0.00    -0.303 NA
ATOM     29  C   UNL     1       6.208  -5.573  20.950  0.00  0.00    +0.105 C 
ATOM     30  C   UNL     1       5.783  -5.510  23.345  0.00  0.00    +0.101 C 
ATOM     31  C   UNL     1       7.144  -5.111  23.962  0.00  0.00    +0.125 C 
ENDBRANCH  22  25
ENDBRANCH   3  22
BRANCH   6  32
ATOM     32  O   UNL     1       9.535   2.327  24.487  0.00  0.00    -0.492 OA
BRANCH  32  33
ATOM     33  C   UNL     1      10.638   2.257  23.582  0.00  0.00    +0.226 C 
ATOM     34  C   UNL     1      10.093   1.993  22.190  0.00  0.00    +0.048 C 
ENDBRANCH  32  33
ENDBRANCH   6  32
TORSDOF 7
ENDMDL
MODEL 7
REMARK VINA RESULT:      -6.8      2.032      2.514
REMARK  Name = 
REMARK  11 active torsions:
REMARK  status: ('A' for Active; 'I' for Inactive)
REMARK    1  A    between atoms: C_1  and  C_2
REMARK    2  A    between atoms: C_2  and  C_3
REMARK    3  A    between atoms: C_3  and  C_4
REMARK    4  A    between atoms: N_6  and  C_7
REMARK    5  A    between atoms: C_11  and  C_15
REMARK    6  A    between atoms: C_16  and  O_17
REMARK    7  A    between atoms: O_17  and  C_18
REMARK    8  A    between atoms: C_18  and  C_19
REMARK    9  A    between atoms: C_22  and  S_24
REMARK   10  A    between atoms: S_24  and  N_27
REMARK   11  A    between atoms: N_30  and  C_31
REMARK                            x       y       z     vdW  Elec       q    Type
REMARK                         _______ _______ _______ _____ _____    ______ ____
ROOT
ATOM      1  C   UNL     1       8.466  -0.379  24.918  0.00  0.00    +0.061 A 
ATOM      2  C   UNL     1       8.038  -1.658  25.301  0.00  0.00    +0.043 A 
ATOM      3  C   UNL     1       8.647  -2.782  24.734  0.00  0.00    +0.106 A 
ATOM      4  C   UNL     1       9.691  -2.643  23.818  0.00  0.00    +0.032 A 
ATOM      5  C   UNL     1      10.121  -1.374  23.442  0.00  0.00    +0.048 A 
ATOM      6  C   UNL     1       9.504  -0.233  23.964  0.00  0.00    +0.131 A 
ENDROOT
BRANCH   1  11
ATOM      7  C   UNL     1       6.057   3.917  24.378  0.00  0.00    +0.087 A 
ATOM      8  C   UNL     1       6.637   2.807  25.006  0.00  0.00    +0.095 A 
ATOM      9  N   UNL     1       7.301   1.750  24.538  0.00  0.00    -0.336 N 
ATOM     10  H   UNL     1       7.611   1.658  23.576  0.00  0.00    +0.167 HD
ATOM     11  C   UNL     1       7.727   0.816  25.466  0.00  0.00    +0.146 A 
ATOM     12  N   UNL     1       7.520   0.880  26.755  0.00  0.00    -0.189 NA
ATOM     13  C   UNL     1       6.853   1.970  27.309  0.00  0.00    +0.299 A 
ATOM     14  O   UNL     1       6.663   2.097  28.511  0.00  0.00    -0.263 OA
ATOM     15  C   UNL     1       6.417   2.931  26.342  0.00  0.00    +0.151 A 
ATOM     16  N   UNL     1       5.748   4.110  26.481  0.00  0.00    -0.260 N 
ATOM     17  C   UNL     1       5.310   4.728  27.710  0.00  0.00    +0.173 C 
ATOM     18  N   UNL     1       5.509   4.733  25.294  0.00  0.00    -0.174 NA
BRANCH   7  19
ATOM     19  C   UNL     1       6.005   4.235  22.920  0.00  0.00    +0.059 C 
BRANCH  19  21
ATOM     20  C   UNL     1       7.272   6.182  21.924  0.00  0.00    +0.004 C 
ATOM     21  C   UNL     1       7.349   4.735  22.380  0.00  0.00    +0.003 C 
ENDBRANCH  19  21
ENDBRANCH   7  19
ENDBRANCH   1  11
BRANCH   3  22
ATOM     22  S   UNL     1       7.960  -4.405  24.977  0.00  0.00    +0.061 S 
ATOM     23  O   UNL     1       8.153  -4.727  26.376  0.00  0.00    -0.153 OA
ATOM     24  O   UNL     1       8.497  -5.263  23.947  0.00  0.00    -0.153 OA
BRANCH  22  25
ATOM     25  N   UNL     1       6.292  -4.168  24.720  0.00  0.00    -0.174 NA
ATOM     26  C   UNL     1       5.426  -4.745  25.796  0.00  0.00    +0.125 C 
ATOM     27  C   UNL     1       5.290  -6.272  25.644  0.00  0.00    +0.101 C 
ATOM     28  N   UNL     1       4.772  -6.708  24.332  0.00  0.00    -0.303 NA
ATOM     29  C   UNL     1       3.340  -6.453  24.200  0.00  0.00    +0.105 C 
ATOM     30  C   UNL     1       5.544  -6.076  23.239  0.00  0.00    +0.101 C 
ATOM     31  C   UNL     1       5.760  -4.550  23.373  0.00  0.00    +0.125 C 
ENDBRANCH  22  25
ENDBRANCH   3  22
BRANCH   6  32
ATOM     32  O   UNL     1       9.835   1.043  23.578  0.00  0.00    -0.492 OA
BRANCH  32  33
ATOM     33  C   UNL     1      10.087   1.276  22.191  0.00  0.00    +0.226 C 
ATOM     34  C   UNL     1       8.753   1.331  21.470  0.00  0.00    +0.048 C 
ENDBRANCH  32  33
ENDBRANCH   6  32
TORSDOF 7
ENDMDL
MODEL 8
REMARK VINA RESULT:      -6.8      2.456      8.351
REMARK  Name = 
REMARK  11 active torsions:
REMARK  status: ('A' for Active; 'I' for Inactive)
REMARK    1  A    between atoms: C_1  and  C_2
REMARK    2  A    between atoms: C_2  and  C_3
REMARK    3  A    between atoms: C_3  and  C_4
REMARK    4  A    between atoms: N_6  and  C_7
REMARK    5  A    between atoms: C_11  and  C_15
REMARK    6  A    between atoms: C_16  and  O_17
REMARK    7  A    between atoms: O_17  and  C_18
REMARK    8  A    between atoms: C_18  and  C_19
REMARK    9  A    between atoms: C_22  and  S_24
REMARK   10  A    between atoms: S_24  and  N_27
REMARK   11  A    between atoms: N_30  and  C_31
REMARK                            x       y       z     vdW  Elec       q    Type
REMARK                         _______ _______ _______ _____ _____    ______ ____
ROOT
ATOM      1  C   UNL     1       7.366  -2.811  23.669  0.00  0.00    +0.061 A 
ATOM      2  C   UNL     1       7.153  -1.490  23.248  0.00  0.00    +0.043 A 
ATOM      3  C   UNL     1       8.252  -0.684  22.937  0.00  0.00    +0.106 A 
ATOM      4  C   UNL     1       9.551  -1.189  23.012  0.00  0.00    +0.032 A 
ATOM      5  C   UNL     1       9.765  -2.502  23.422  0.00  0.00    +0.048 A 
ATOM      6  C   UNL     1       8.686  -3.317  23.777  0.00  0.00    +0.131 A 
ENDROOT
BRANCH   1  11
ATOM      7  C   UNL     1       4.573  -5.036  27.104  0.00  0.00    +0.087 A 
ATOM      8  C   UNL     1       5.008  -4.602  25.844  0.00  0.00    +0.095 A 
ATOM      9  N   UNL     1       6.064  -3.890  25.450  0.00  0.00    -0.336 N 
ATOM     10  H   UNL     1       6.837  -3.643  26.058  0.00  0.00    +0.167 HD
ATOM     11  C   UNL     1       6.173  -3.627  24.096  0.00  0.00    +0.146 A 
ATOM     12  N   UNL     1       5.321  -4.007  23.180  0.00  0.00    -0.189 NA
ATOM     13  C   UNL     1       4.210  -4.773  23.524  0.00  0.00    +0.299 A 
ATOM     14  O   UNL     1       3.401  -5.184  22.703  0.00  0.00    -0.263 OA
ATOM     15  C   UNL     1       4.106  -5.041  24.926  0.00  0.00    +0.151 A 
ATOM     16  N   UNL     1       3.185  -5.742  25.645  0.00  0.00    -0.260 N 
ATOM     17  C   UNL     1       2.033  -6.450  25.137  0.00  0.00    +0.173 C 
ATOM     18  N   UNL     1       3.442  -5.752  26.981  0.00  0.00    -0.174 NA
BRANCH   7  19
ATOM     19  C   UNL     1       5.202  -4.793  28.436  0.00  0.00    +0.059 C 
BRANCH  19  21
ATOM     20  C   UNL     1       4.032  -2.573  28.738  0.00  0.00    +0.004 C 
ATOM     21  C   UNL     1       4.326  -3.932  29.351  0.00  0.00    +0.003 C 
ENDBRANCH  19  21
ENDBRANCH   7  19
ENDBRANCH   1  11
BRANCH   3  22
ATOM     22  S   UNL     1       8.049   1.062  22.668  0.00  0.00    +0.061 S 
ATOM     23  O   UNL     1       6.622   1.309  22.624  0.00  0.00    -0.153 OA
ATOM     24  O   UNL     1       8.891   1.431  21.553  0.00  0.00    -0.153 OA
BRANCH  22  25
ATOM     25  N   UNL     1       8.655   1.753  24.103  0.00  0.00    -0.174 NA
ATOM     26  C   UNL     1       7.599   2.068  25.116  0.00  0.00    +0.125 C 
ATOM     27  C   UNL     1       6.839   3.357  24.749  0.00  0.00    +0.101 C 
ATOM     28  N   UNL     1       7.702   4.543  24.579  0.00  0.00    -0.303 NA
ATOM     29  C   UNL     1       8.182   5.055  25.859  0.00  0.00    +0.105 C 
ATOM     30  C   UNL     1       8.819   4.237  23.657  0.00  0.00    +0.101 C 
ATOM     31  C   UNL     1       9.579   2.922  23.946  0.00  0.00    +0.125 C 
ENDBRANCH  22  25
ENDBRANCH   3  22
BRANCH   6  32
ATOM     32  O   UNL     1       8.836  -4.595  24.258  0.00  0.00    -0.492 OA
BRANCH  32  33
ATOM     33  C   UNL     1       9.779  -4.805  25.310  0.00  0.00    +0.226 C 
ATOM     34  C   UNL     1       9.077  -4.560  26.632  0.00  0.00    +0.048 C 
ENDBRANCH  32  33
ENDBRANCH   6  32
TORSDOF 7
ENDMDL
MODEL 9
REMARK VINA RESULT:      -6.7      2.308      2.852
REMARK  Name = 
REMARK  11 active torsions:
REMARK  status: ('A' for Active; 'I' for Inactive)
REMARK    1  A    between atoms: C_1  and  C_2
REMARK    2  A    between atoms: C_2  and  C_3
REMARK    3  A    between atoms: C_3  and  C_4
REMARK    4  A    between atoms: N_6  and  C_7
REMARK    5  A    between atoms: C_11  and  C_15
REMARK    6  A    between atoms: C_16  and  O_17
REMARK    7  A    between atoms: O_17  and  C_18
REMARK    8  A    between atoms: C_18  and  C_19
REMARK    9  A    between atoms: C_22  and  S_24
REMARK   10  A    between atoms: S_24  and  N_27
REMARK   11  A    between atoms: N_30  and  C_31
REMARK                            x       y       z     vdW  Elec       q    Type
REMARK                         _______ _______ _______ _____ _____    ______ ____
ROOT
ATOM      1  C   UNL     1       7.272  -0.254  23.233  0.00  0.00    +0.061 A 
ATOM      2  C   UNL     1       6.604  -1.486  23.273  0.00  0.00    +0.043 A 
ATOM      3  C   UNL     1       7.249  -2.630  22.795  0.00  0.00    +0.106 A 
ATOM      4  C   UNL     1       8.556  -2.564  22.311  0.00  0.00    +0.032 A 
ATOM      5  C   UNL     1       9.224  -1.342  22.278  0.00  0.00    +0.048 A 
ATOM      6  C   UNL     1       8.588  -0.175  22.713  0.00  0.00    +0.131 A 
ENDROOT
BRANCH   1  11
ATOM      7  C   UNL     1       6.395   4.621  23.080  0.00  0.00    +0.087 A 
ATOM      8  C   UNL     1       6.271   3.275  23.451  0.00  0.00    +0.095 A 
ATOM      9  N   UNL     1       6.932   2.175  23.093  0.00  0.00    -0.336 N 
ATOM     10  H   UNL     1       7.781   2.182  22.537  0.00  0.00    +0.167 HD
ATOM     11  C   UNL     1       6.520   0.982  23.659  0.00  0.00    +0.146 A 
ATOM     12  N   UNL     1       5.530   0.846  24.501  0.00  0.00    -0.189 NA
ATOM     13  C   UNL     1       4.813   1.960  24.933  0.00  0.00    +0.299 A 
ATOM     14  O   UNL     1       3.901   1.894  25.746  0.00  0.00    -0.263 OA
ATOM     15  C   UNL     1       5.247   3.190  24.343  0.00  0.00    +0.151 A 
ATOM     16  N   UNL     1       4.813   4.471  24.505  0.00  0.00    -0.260 N 
ATOM     17  C   UNL     1       3.763   4.935  25.381  0.00  0.00    +0.173 C 
ATOM     18  N   UNL     1       5.494   5.368  23.740  0.00  0.00    -0.174 NA
BRANCH   7  19
ATOM     19  C   UNL     1       7.353   5.230  22.111  0.00  0.00    +0.059 C 
BRANCH  19  21
ATOM     20  C   UNL     1       9.176   6.356  23.453  0.00  0.00    +0.004 C 
ATOM     21  C   UNL     1       7.928   6.560  22.610  0.00  0.00    +0.003 C 
ENDBRANCH  19  21
ENDBRANCH   7  19
ENDBRANCH   1  11
BRANCH   3  22
ATOM     22  S   UNL     1       6.352  -4.150  22.571  0.00  0.00    +0.061 S 
ATOM     23  O   UNL     1       7.341  -5.206  22.505  0.00  0.00    -0.153 OA
ATOM     24  O   UNL     1       5.421  -3.949  21.485  0.00  0.00    -0.153 OA
BRANCH  22  25
ATOM     25  N   UNL     1       5.500  -4.322  24.037  0.00  0.00    -0.174 NA
ATOM     26  C   UNL     1       5.741  -5.629  24.727  0.00  0.00    +0.125 C 
ATOM     27  C   UNL     1       4.943  -6.767  24.063  0.00  0.00    +0.101 C 
ATOM     28  N   UNL     1       3.487  -6.528  23.995  0.00  0.00    -0.303 NA
ATOM     29  C   UNL     1       2.848  -6.686  25.298  0.00  0.00    +0.105 C 
ATOM     30  C   UNL     1       3.213  -5.198  23.408  0.00  0.00    +0.101 C 
ATOM     31  C   UNL     1       4.032  -4.027  23.999  0.00  0.00    +0.125 C 
ENDBRANCH  22  25
ENDBRANCH   3  22
BRANCH   6  32
ATOM     32  O   UNL     1       9.167   1.068  22.638  0.00  0.00    -0.492 OA
BRANCH  32  33
ATOM     33  C   UNL     1      10.314   1.319  23.450  0.00  0.00    +0.226 C 
ATOM     34  C   UNL     1      10.567   2.815  23.463  0.00  0.00    +0.048 C 
ENDBRANCH  32  33
ENDBRANCH   6  32
TORSDOF 7
ENDMDL
