MODEL 1
REMARK VINA RESULT:      -4.8      0.000      0.000
REMARK  Name = 
REMARK  2 active torsions:
REMARK  status: ('A' for Active; 'I' for Inactive)
REMARK    1  A    between atoms: C_1  and  S_2
REMARK    2  A    between atoms: S_2  and  C_3
REMARK                            x       y       z     vdW  Elec       q    Type
REMARK                         _______ _______ _______ _____ _____    ______ ____
ROOT
ATOM      1  C   UNL     1       8.452  -1.847  22.804  0.00  0.00    +0.167 A 
ATOM      2  N   UNL     1       7.975  -2.983  22.226  0.00  0.00    -0.332 N 
ATOM      3  H   UNL     1       8.421  -3.489  21.475  0.00  0.00    +0.168 HD
ATOM      4  C   UNL     1       6.785  -3.300  22.841  0.00  0.00    +0.083 A 
ATOM      5  C   UNL     1       5.874  -4.342  22.648  0.00  0.00    +0.058 A 
ATOM      6  C   UNL     1       4.728  -4.362  23.470  0.00  0.00    +0.049 A 
ATOM      7  C   UNL     1       4.525  -3.360  24.448  0.00  0.00    +0.049 A 
ATOM      8  C   UNL     1       5.469  -2.321  24.616  0.00  0.00    +0.060 A 
ATOM      9 BR   UNL     1       5.287  -0.928  25.901  0.00  0.00    -0.047 Br
ATOM     10 BR   UNL     1       2.962  -3.389  25.564  0.00  0.00    -0.048 Br
ATOM     11 BR   UNL     1       3.450  -5.776  23.239  0.00  0.00    -0.048 Br
ATOM     12 BR   UNL     1       6.256  -5.628  21.303  0.00  0.00    -0.047 Br
ATOM     13  C   UNL     1       6.612  -2.301  23.794  0.00  0.00    +0.106 A 
ATOM     14  N   UNL     1       7.665  -1.409  23.753  0.00  0.00    -0.221 NA
ENDROOT
BRANCH   1  16
ATOM     15  C   UNL     1       9.321   0.384  21.530  0.00  0.00    +0.093 C 
ATOM     16  S   UNL     1       9.930  -1.158  22.254  0.00  0.00    -0.091 S 
ENDBRANCH   1  16
TORSDOF 1
ENDMDL
MODEL 2
REMARK VINA RESULT:      -4.8      5.070      6.395
REMARK  Name = 
REMARK  2 active torsions:
REMARK  status: ('A' for Active; 'I' for Inactive)
REMARK    1  A    between atoms: C_1  and  S_2
REMARK    2  A    between atoms: S_2  and  C_3
REMARK                            x       y       z     vdW  Elec       q    Type
REMARK                         _______ _______ _______ _____ _____    ______ ____
ROOT
ATOM      1  C   UNL     1       2.651  -7.698  24.271  0.00  0.00    +0.167 A 
ATOM      2  N   UNL     1       3.448  -7.137  23.323  0.00  0.00    -0.332 N 
ATOM      3  H   UNL     1       3.277  -7.158  22.328  0.00  0.00    +0.168 HD
ATOM      4  C   UNL     1       4.519  -6.555  23.962  0.00  0.00    +0.083 A 
ATOM      5  C   UNL     1       5.632  -5.856  23.489  0.00  0.00    +0.058 A 
ATOM      6  C   UNL     1       6.560  -5.390  24.444  0.00  0.00    +0.049 A 
ATOM      7  C   UNL     1       6.356  -5.629  25.823  0.00  0.00    +0.049 A 
ATOM      8  C   UNL     1       5.217  -6.339  26.266  0.00  0.00    +0.060 A 
ATOM      9 BR   UNL     1       4.853  -6.712  28.098  0.00  0.00    -0.047 Br
ATOM     10 BR   UNL     1       7.623  -4.995  27.120  0.00  0.00    -0.048 Br
ATOM     11 BR   UNL     1       8.104  -4.424  23.837  0.00  0.00    -0.048 Br
ATOM     12 BR   UNL     1       5.798  -5.600  21.614  0.00  0.00    -0.047 Br
ATOM     13  C   UNL     1       4.292  -6.805  25.312  0.00  0.00    +0.106 A 
ATOM     14  N   UNL     1       3.121  -7.517  25.479  0.00  0.00    -0.221 NA
ENDROOT
BRANCH   1  16
ATOM     15  C   UNL     1       1.104  -8.046  22.071  0.00  0.00    +0.093 C 
ATOM     16  S   UNL     1       1.220  -8.534  23.809  0.00  0.00    -0.091 S 
ENDBRANCH   1  16
TORSDOF 1
ENDMDL
MODEL 3
REMARK VINA RESULT:      -4.8      0.125      3.111
REMARK  Name = 
REMARK  2 active torsions:
REMARK  status: ('A' for Active; 'I' for Inactive)
REMARK    1  A    between atoms: C_1  and  S_2
REMARK    2  A    between atoms: S_2  and  C_3
REMARK                            x       y       z     vdW  Elec       q    Type
REMARK                         _______ _______ _______ _____ _____    ______ ____
ROOT
ATOM      1  C   UNL     1       8.553  -1.963  22.857  0.00  0.00    +0.167 A 
ATOM      2  N   UNL     1       7.715  -1.487  23.817  0.00  0.00    -0.332 N 
ATOM      3  H   UNL     1       7.879  -0.668  24.383  0.00  0.00    +0.168 HD
ATOM      4  C   UNL     1       6.625  -2.326  23.878  0.00  0.00    +0.083 A 
ATOM      5  C   UNL     1       5.478  -2.322  24.675  0.00  0.00    +0.058 A 
ATOM      6  C   UNL     1       4.543  -3.358  24.472  0.00  0.00    +0.049 A 
ATOM      7  C   UNL     1       4.773  -4.354  23.494  0.00  0.00    +0.049 A 
ATOM      8  C   UNL     1       5.945  -4.326  22.704  0.00  0.00    +0.060 A 
ATOM      9 BR   UNL     1       6.346  -5.619  21.365  0.00  0.00    -0.047 Br
ATOM     10 BR   UNL     1       3.499  -5.765  23.222  0.00  0.00    -0.048 Br
ATOM     11 BR   UNL     1       2.952  -3.391  25.545  0.00  0.00    -0.048 Br
ATOM     12 BR   UNL     1       5.282  -0.932  25.956  0.00  0.00    -0.047 Br
ATOM     13  C   UNL     1       6.878  -3.291  22.909  0.00  0.00    +0.106 A 
ATOM     14  N   UNL     1       8.084  -3.043  22.285  0.00  0.00    -0.221 NA
ENDROOT
BRANCH   1  16
ATOM     15  C   UNL     1       9.437   0.251  21.563  0.00  0.00    +0.093 C 
ATOM     16  S   UNL     1      10.036  -1.154  22.531  0.00  0.00    -0.091 S 
ENDBRANCH   1  16
TORSDOF 1
ENDMDL
MODEL 4
REMARK VINA RESULT:      -4.5      3.044      4.845
REMARK  Name = 
REMARK  2 active torsions:
REMARK  status: ('A' for Active; 'I' for Inactive)
REMARK    1  A    between atoms: C_1  and  S_2
REMARK    2  A    between atoms: S_2  and  C_3
REMARK                            x       y       z     vdW  Elec       q    Type
REMARK                         _______ _______ _______ _____ _____    ______ ____
ROOT
ATOM      1  C   UNL     1       7.242  -3.888  22.808  0.00  0.00    +0.167 A 
ATOM      2  N   UNL     1       7.980  -2.859  22.310  0.00  0.00    -0.332 N 
ATOM      3  H   UNL     1       8.467  -2.863  21.425  0.00  0.00    +0.168 HD
ATOM      4  C   UNL     1       7.948  -1.835  23.228  0.00  0.00    +0.083 A 
ATOM      5  C   UNL     1       8.527  -0.563  23.240  0.00  0.00    +0.058 A 
ATOM      6  C   UNL     1       8.286   0.249  24.368  0.00  0.00    +0.049 A 
ATOM      7  C   UNL     1       7.486  -0.221  25.436  0.00  0.00    +0.049 A 
ATOM      8  C   UNL     1       6.915  -1.513  25.389  0.00  0.00    +0.060 A 
ATOM      9 BR   UNL     1       5.826  -2.236  26.773  0.00  0.00    -0.047 Br
ATOM     10 BR   UNL     1       7.163   0.886  26.972  0.00  0.00    -0.048 Br
ATOM     11 BR   UNL     1       9.063   2.003  24.427  0.00  0.00    -0.048 Br
ATOM     12 BR   UNL     1       9.583  -0.045  21.748  0.00  0.00    -0.047 Br
ATOM     13  C   UNL     1       7.157  -2.323  24.262  0.00  0.00    +0.106 A 
ATOM     14  N   UNL     1       6.728  -3.603  23.977  0.00  0.00    -0.221 NA
ENDROOT
BRANCH   1  16
ATOM     15  C   UNL     1       5.428  -5.865  22.411  0.00  0.00    +0.093 C 
ATOM     16  S   UNL     1       7.088  -5.349  21.912  0.00  0.00    -0.091 S 
ENDBRANCH   1  16
TORSDOF 1
ENDMDL
MODEL 5
REMARK VINA RESULT:      -4.5      4.776      5.950
REMARK  Name = 
REMARK  2 active torsions:
REMARK  status: ('A' for Active; 'I' for Inactive)
REMARK    1  A    between atoms: C_1  and  S_2
REMARK    2  A    between atoms: S_2  and  C_3
REMARK                            x       y       z     vdW  Elec       q    Type
REMARK                         _______ _______ _______ _____ _____    ______ ____
ROOT
ATOM      1  C   UNL     1       9.763   4.517  24.000  0.00  0.00    +0.167 A 
ATOM      2  N   UNL     1       9.785   3.446  23.161  0.00  0.00    -0.332 N 
ATOM      3  H   UNL     1      10.370   3.355  22.344  0.00  0.00    +0.168 HD
ATOM      4  C   UNL     1       8.866   2.531  23.623  0.00  0.00    +0.083 A 
ATOM      5  C   UNL     1       8.471   1.275  23.155  0.00  0.00    +0.058 A 
ATOM      6  C   UNL     1       7.476   0.594  23.886  0.00  0.00    +0.049 A 
ATOM      7  C   UNL     1       6.911   1.173  25.046  0.00  0.00    +0.049 A 
ATOM      8  C   UNL     1       7.335   2.446  25.492  0.00  0.00    +0.060 A 
ATOM      9 BR   UNL     1       6.638   3.309  27.039  0.00  0.00    -0.047 Br
ATOM     10 BR   UNL     1       5.554   0.243  26.038  0.00  0.00    -0.048 Br
ATOM     11 BR   UNL     1       6.903  -1.135  23.278  0.00  0.00    -0.048 Br
ATOM     12 BR   UNL     1       9.302   0.603  21.584  0.00  0.00    -0.047 Br
ATOM     13  C   UNL     1       8.329   3.126  24.760  0.00  0.00    +0.106 A 
ATOM     14  N   UNL     1       8.905   4.361  24.976  0.00  0.00    -0.221 NA
ENDROOT
BRANCH   1  16
ATOM     15  C   UNL     1      12.342   5.019  23.325  0.00  0.00    +0.093 C 
ATOM     16  S   UNL     1      10.788   5.866  23.700  0.00  0.00    -0.091 S 
ENDBRANCH   1  16
TORSDOF 1
ENDMDL
MODEL 6
REMARK VINA RESULT:      -4.5      4.996      6.918
REMARK  Name = 
REMARK  2 active torsions:
REMARK  status: ('A' for Active; 'I' for Inactive)
REMARK    1  A    between atoms: C_1  and  S_2
REMARK    2  A    between atoms: S_2  and  C_3
REMARK                            x       y       z     vdW  Elec       q    Type
REMARK                         _______ _______ _______ _____ _____    ______ ____
ROOT
ATOM      1  C   UNL     1       3.246  -7.745  25.063  0.00  0.00    +0.167 A 
ATOM      2  N   UNL     1       3.891  -7.332  26.187  0.00  0.00    -0.332 N 
ATOM      3  H   UNL     1       3.632  -7.572  27.133  0.00  0.00    +0.168 HD
ATOM      4  C   UNL     1       4.940  -6.530  25.798  0.00  0.00    +0.083 A 
ATOM      5  C   UNL     1       5.916  -5.839  26.522  0.00  0.00    +0.058 A 
ATOM      6  C   UNL     1       6.861  -5.092  25.788  0.00  0.00    +0.049 A 
ATOM      7  C   UNL     1       6.809  -5.055  24.375  0.00  0.00    +0.049 A 
ATOM      8  C   UNL     1       5.808  -5.767  23.675  0.00  0.00    +0.060 A 
ATOM      9 BR   UNL     1       5.653  -5.780  21.778  0.00  0.00    -0.047 Br
ATOM     10 BR   UNL     1       8.095  -4.034  23.380  0.00  0.00    -0.048 Br
ATOM     11 BR   UNL     1       8.218  -4.128  26.743  0.00  0.00    -0.048 Br
ATOM     12 BR   UNL     1       5.881  -5.965  28.418  0.00  0.00    -0.047 Br
ATOM     13  C   UNL     1       4.864  -6.512  24.410  0.00  0.00    +0.106 A 
ATOM     14  N   UNL     1       3.802  -7.278  23.975  0.00  0.00    -0.221 NA
ENDROOT
BRANCH   1  16
ATOM     15  C   UNL     1       1.065  -8.042  26.649  0.00  0.00    +0.093 C 
ATOM     16  S   UNL     1       1.860  -8.758  25.191  0.00  0.00    -0.091 S 
ENDBRANCH   1  16
TORSDOF 1
ENDMDL
MODEL 7
REMARK VINA RESULT:      -4.5      4.329      5.768
REMARK  Name = 
REMARK  2 active torsions:
REMARK  status: ('A' for Active; 'I' for Inactive)
REMARK    1  A    between atoms: C_1  and  S_2
REMARK    2  A    between atoms: S_2  and  C_3
REMARK                            x       y       z     vdW  Elec       q    Type
REMARK                         _______ _______ _______ _____ _____    ______ ____
ROOT
ATOM      1  C   UNL     1       7.487  -2.558  26.179  0.00  0.00    +0.167 A 
ATOM      2  N   UNL     1       8.250  -2.465  25.057  0.00  0.00    -0.332 N 
ATOM      3  H   UNL     1       8.609  -3.246  24.526  0.00  0.00    +0.168 HD
ATOM      4  C   UNL     1       8.446  -1.129  24.791  0.00  0.00    +0.083 A 
ATOM      5  C   UNL     1       9.147  -0.463  23.782  0.00  0.00    +0.058 A 
ATOM      6  C   UNL     1       9.145   0.948  23.814  0.00  0.00    +0.049 A 
ATOM      7  C   UNL     1       8.455   1.644  24.833  0.00  0.00    +0.049 A 
ATOM      8  C   UNL     1       7.756   0.937  25.838  0.00  0.00    +0.060 A 
ATOM      9 BR   UNL     1       6.798   1.782  27.250  0.00  0.00    -0.047 Br
ATOM     10 BR   UNL     1       8.457   3.565  24.874  0.00  0.00    -0.048 Br
ATOM     11 BR   UNL     1      10.095   1.903  22.447  0.00  0.00    -0.048 Br
ATOM     12 BR   UNL     1      10.037  -1.508  22.469  0.00  0.00    -0.047 Br
ATOM     13  C   UNL     1       7.759  -0.471  25.805  0.00  0.00    +0.106 A 
ATOM     14  N   UNL     1       7.168  -1.383  26.657  0.00  0.00    -0.221 NA
ENDROOT
BRANCH   1  16
ATOM     15  C   UNL     1       8.373  -5.120  26.079  0.00  0.00    +0.093 C 
ATOM     16  S   UNL     1       7.066  -4.104  26.807  0.00  0.00    -0.091 S 
ENDBRANCH   1  16
TORSDOF 1
ENDMDL
MODEL 8
REMARK VINA RESULT:      -4.4      4.737      6.457
REMARK  Name = 
REMARK  2 active torsions:
REMARK  status: ('A' for Active; 'I' for Inactive)
REMARK    1  A    between atoms: C_1  and  S_2
REMARK    2  A    between atoms: S_2  and  C_3
REMARK                            x       y       z     vdW  Elec       q    Type
REMARK                         _______ _______ _______ _____ _____    ______ ____
ROOT
ATOM      1  C   UNL     1       2.297  -6.198  23.221  0.00  0.00    +0.167 A 
ATOM      2  N   UNL     1       2.498  -6.223  24.566  0.00  0.00    -0.332 N 
ATOM      3  H   UNL     1       1.791  -6.413  25.260  0.00  0.00    +0.168 HD
ATOM      4  C   UNL     1       3.824  -5.936  24.798  0.00  0.00    +0.083 A 
ATOM      5  C   UNL     1       4.571  -5.823  25.973  0.00  0.00    +0.058 A 
ATOM      6  C   UNL     1       5.940  -5.505  25.845  0.00  0.00    +0.049 A 
ATOM      7  C   UNL     1       6.517  -5.313  24.568  0.00  0.00    +0.049 A 
ATOM      8  C   UNL     1       5.731  -5.437  23.399  0.00  0.00    +0.060 A 
ATOM      9 BR   UNL     1       6.414  -5.198  21.638  0.00  0.00    -0.047 Br
ATOM     10 BR   UNL     1       8.380  -4.878  24.396  0.00  0.00    -0.048 Br
ATOM     11 BR   UNL     1       7.003  -5.339  27.434  0.00  0.00    -0.048 Br
ATOM     12 BR   UNL     1       3.683  -6.101  27.630  0.00  0.00    -0.047 Br
ATOM     13  C   UNL     1       4.365  -5.753  23.529  0.00  0.00    +0.106 A 
ATOM     14  N   UNL     1       3.394  -5.923  22.563  0.00  0.00    -0.221 NA
ENDROOT
BRANCH   1  16
ATOM     15  C   UNL     1       0.979  -8.134  21.852  0.00  0.00    +0.093 C 
ATOM     16  S   UNL     1       0.728  -6.498  22.581  0.00  0.00    -0.091 S 
ENDBRANCH   1  16
TORSDOF 1
ENDMDL
MODEL 9
REMARK VINA RESULT:      -4.3      4.908      6.855
REMARK  Name = 
REMARK  2 active torsions:
REMARK  status: ('A' for Active; 'I' for Inactive)
REMARK    1  A    between atoms: C_1  and  S_2
REMARK    2  A    between atoms: S_2  and  C_3
REMARK                            x       y       z     vdW  Elec       q    Type
REMARK                         _______ _______ _______ _____ _____    ______ ____
ROOT
ATOM      1  C   UNL     1       7.045   0.887  27.742  0.00  0.00    +0.167 A 
ATOM      2  N   UNL     1       7.424   1.897  26.913  0.00  0.00    -0.332 N 
ATOM      3  H   UNL     1       7.266   2.880  27.078  0.00  0.00    +0.168 HD
ATOM      4  C   UNL     1       8.043   1.334  25.820  0.00  0.00    +0.083 A 
ATOM      5  C   UNL     1       8.614   1.890  24.672  0.00  0.00    +0.058 A 
ATOM      6  C   UNL     1       9.171   1.000  23.729  0.00  0.00    +0.049 A 
ATOM      7  C   UNL     1       9.145  -0.396  23.953  0.00  0.00    +0.049 A 
ATOM      8  C   UNL     1       8.560  -0.923  25.128  0.00  0.00    +0.060 A 
ATOM      9 BR   UNL     1       8.476  -2.784  25.521  0.00  0.00    -0.047 Br
ATOM     10 BR   UNL     1       9.902  -1.604  22.666  0.00  0.00    -0.048 Br
ATOM     11 BR   UNL     1       9.965   1.720  22.137  0.00  0.00    -0.048 Br
ATOM     12 BR   UNL     1       8.586   3.780  24.482  0.00  0.00    -0.047 Br
ATOM     13  C   UNL     1       8.004  -0.034  26.068  0.00  0.00    +0.106 A 
ATOM     14  N   UNL     1       7.379  -0.287  27.272  0.00  0.00    -0.221 NA
ENDROOT
BRANCH   1  16
ATOM     15  C   UNL     1       7.591   1.842  30.222  0.00  0.00    +0.093 C 
ATOM     16  S   UNL     1       6.218   1.243  29.208  0.00  0.00    -0.091 S 
ENDBRANCH   1  16
TORSDOF 1
ENDMDL
