MODEL 1
REMARK VINA RESULT:      -6.6      0.000      0.000
REMARK  Name = 
REMARK  5 active torsions:
REMARK  status: ('A' for Active; 'I' for Inactive)
REMARK    1  A    between atoms: C_2  and  N_3
REMARK    2  A    between atoms: C_2  and  C_4
REMARK    3  A    between atoms: C_2  and  C_10
REMARK    4  A    between atoms: C_4  and  C_5
REMARK    5  A    between atoms: N_12  and  C_13
REMARK                            x       y       z     vdW  Elec       q    Type
REMARK                         _______ _______ _______ _____ _____    ______ ____
ROOT
ATOM      1  C   UNL     1       9.289  -3.173  24.649  0.00  0.00    +0.234 C 
ATOM      2  N   UNL     1       8.604  -2.084  25.168  0.00  0.00    -0.284 N 
ATOM      3  H   UNL     1       8.023  -2.283  25.979  0.00  0.00    +0.155 HD
ATOM      4  O   UNL     1      10.159  -3.132  23.782  0.00  0.00    -0.274 OA
ENDROOT
BRANCH   2   5
ATOM      5  C   UNL     1       8.687  -0.756  24.698  0.00  0.00    +0.034 A 
ATOM      6  C   UNL     1       7.706  -0.276  23.815  0.00  0.00    +0.031 A 
ATOM      7  C   UNL     1       7.731   1.065  23.359  0.00  0.00    -0.016 A 
ATOM      8  C   UNL     1       8.784   1.914  23.771  0.00  0.00    -0.018 A 
ATOM      9  C   UNL     1       8.827   3.247  23.339  0.00  0.00    +0.008 A 
ATOM     10  C   UNL     1       7.833   3.754  22.506  0.00  0.00    +0.001 A 
ATOM     11  C   UNL     1       6.788   2.933  22.096  0.00  0.00    +0.001 A 
ATOM     12  C   UNL     1       9.777   1.413  24.615  0.00  0.00    +0.010 A 
ATOM     13  C   UNL     1       6.736   1.599  22.517  0.00  0.00    +0.008 A 
ATOM     14  C   UNL     1       9.726   0.096  25.072  0.00  0.00    +0.024 A 
ENDBRANCH   2   5
BRANCH   1  15
ATOM     15  C   UNL     1       8.957  -4.513  25.320  0.00  0.00    +0.144 C 
BRANCH  15  16
ATOM     16  N   UNL     1       9.847  -5.592  24.815  0.00  0.00    -0.320 NA
ATOM     17  H   UNL     1      10.803  -5.349  25.092  0.00  0.00    +0.119 HD
ATOM     18  H   UNL     1       9.636  -6.431  25.365  0.00  0.00    +0.119 HD
ENDBRANCH  15  16
BRANCH  15  19
ATOM     19  C   UNL     1       7.468  -4.828  25.096  0.00  0.00    +0.082 C 
BRANCH  19  20
ATOM     20  C   UNL     1       7.114  -4.887  23.646  0.00  0.00    +0.037 A 
ATOM     21  N   UNL     1       7.622  -5.828  22.786  0.00  0.00    -0.348 N 
ATOM     22  H   UNL     1       8.283  -6.558  23.012  0.00  0.00    +0.166 HD
ATOM     23  C   UNL     1       7.060  -5.613  21.560  0.00  0.00    +0.196 A 
ATOM     24  N   UNL     1       6.241  -4.587  21.581  0.00  0.00    -0.244 NA
ATOM     25  C   UNL     1       6.280  -4.116  22.866  0.00  0.00    +0.133 A 
ENDBRANCH  19  20
ENDBRANCH  15  19
ENDBRANCH   1  15
TORSDOF 5
ENDMDL
MODEL 2
REMARK VINA RESULT:      -6.6      2.432      3.108
REMARK  Name = 
REMARK  5 active torsions:
REMARK  status: ('A' for Active; 'I' for Inactive)
REMARK    1  A    between atoms: C_2  and  N_3
REMARK    2  A    between atoms: C_2  and  C_4
REMARK    3  A    between atoms: C_2  and  C_10
REMARK    4  A    between atoms: C_4  and  C_5
REMARK    5  A    between atoms: N_12  and  C_13
REMARK                            x       y       z     vdW  Elec       q    Type
REMARK                         _______ _______ _______ _____ _____    ______ ____
ROOT
ATOM      1  C   UNL     1       7.882  -3.577  26.027  0.00  0.00    +0.234 C 
ATOM      2  N   UNL     1       8.883  -3.436  25.076  0.00  0.00    -0.284 N 
ATOM      3  H   UNL     1       9.506  -4.235  24.980  0.00  0.00    +0.155 HD
ATOM      4  O   UNL     1       6.935  -2.812  26.196  0.00  0.00    -0.274 OA
ENDROOT
BRANCH   2   5
ATOM      5  C   UNL     1       9.067  -2.322  24.230  0.00  0.00    +0.034 A 
ATOM      6  C   UNL     1       9.563  -1.123  24.768  0.00  0.00    +0.031 A 
ATOM      7  C   UNL     1       9.804   0.001  23.940  0.00  0.00    -0.016 A 
ATOM      8  C   UNL     1       9.501  -0.080  22.562  0.00  0.00    -0.018 A 
ATOM      9  C   UNL     1       9.738   1.016  21.721  0.00  0.00    +0.008 A 
ATOM     10  C   UNL     1      10.279   2.195  22.228  0.00  0.00    +0.001 A 
ATOM     11  C   UNL     1      10.587   2.288  23.581  0.00  0.00    +0.001 A 
ATOM     12  C   UNL     1       8.969  -1.263  22.046  0.00  0.00    +0.010 A 
ATOM     13  C   UNL     1      10.352   1.202  24.432  0.00  0.00    +0.008 A 
ATOM     14  C   UNL     1       8.757  -2.368  22.870  0.00  0.00    +0.024 A 
ENDBRANCH   2   5
BRANCH   1  15
ATOM     15  C   UNL     1       7.962  -4.870  26.849  0.00  0.00    +0.144 C 
BRANCH  15  16
ATOM     16  N   UNL     1       8.630  -5.949  26.072  0.00  0.00    -0.320 NA
ATOM     17  H   UNL     1       8.450  -6.830  26.563  0.00  0.00    +0.119 HD
ATOM     18  H   UNL     1       8.111  -6.045  25.193  0.00  0.00    +0.119 HD
ENDBRANCH  15  16
BRANCH  15  19
ATOM     19  C   UNL     1       6.544  -5.263  27.299  0.00  0.00    +0.082 C 
BRANCH  19  20
ATOM     20  C   UNL     1       5.765  -5.919  26.208  0.00  0.00    +0.037 A 
ATOM     21  N   UNL     1       5.883  -5.573  24.885  0.00  0.00    -0.348 N 
ATOM     22  H   UNL     1       6.475  -4.849  24.502  0.00  0.00    +0.166 HD
ATOM     23  C   UNL     1       5.063  -6.396  24.169  0.00  0.00    +0.196 A 
ATOM     24  N   UNL     1       4.418  -7.231  24.949  0.00  0.00    -0.244 NA
ATOM     25  C   UNL     1       4.832  -6.934  26.221  0.00  0.00    +0.133 A 
ENDBRANCH  19  20
ENDBRANCH  15  19
ENDBRANCH   1  15
TORSDOF 5
ENDMDL
MODEL 3
REMARK VINA RESULT:      -6.5      2.588      3.502
REMARK  Name = 
REMARK  5 active torsions:
REMARK  status: ('A' for Active; 'I' for Inactive)
REMARK    1  A    between atoms: C_2  and  N_3
REMARK    2  A    between atoms: C_2  and  C_4
REMARK    3  A    between atoms: C_2  and  C_10
REMARK    4  A    between atoms: C_4  and  C_5
REMARK    5  A    between atoms: N_12  and  C_13
REMARK                            x       y       z     vdW  Elec       q    Type
REMARK                         _______ _______ _______ _____ _____    ______ ____
ROOT
ATOM      1  C   UNL     1       6.805  -4.237  22.501  0.00  0.00    +0.234 C 
ATOM      2  N   UNL     1       7.940  -3.998  23.264  0.00  0.00    -0.284 N 
ATOM      3  H   UNL     1       8.398  -4.828  23.631  0.00  0.00    +0.155 HD
ATOM      4  O   UNL     1       6.193  -3.404  21.837  0.00  0.00    -0.274 OA
ENDROOT
BRANCH   2   5
ATOM      5  C   UNL     1       8.509  -2.733  23.522  0.00  0.00    +0.034 A 
ATOM      6  C   UNL     1       8.753  -1.857  22.451  0.00  0.00    +0.031 A 
ATOM      7  C   UNL     1       9.280  -0.562  22.676  0.00  0.00    -0.016 A 
ATOM      8  C   UNL     1       9.600  -0.167  23.995  0.00  0.00    -0.018 A 
ATOM      9  C   UNL     1      10.116   1.112  24.245  0.00  0.00    +0.008 A 
ATOM     10  C   UNL     1      10.315   2.012  23.201  0.00  0.00    +0.001 A 
ATOM     11  C   UNL     1      10.000   1.640  21.898  0.00  0.00    +0.001 A 
ATOM     12  C   UNL     1       9.393  -1.062  25.047  0.00  0.00    +0.010 A 
ATOM     13  C   UNL     1       9.488   0.365  21.635  0.00  0.00    +0.008 A 
ATOM     14  C   UNL     1       8.853  -2.326  24.811  0.00  0.00    +0.024 A 
ENDBRANCH   2   5
BRANCH   1  15
ATOM     15  C   UNL     1       6.377  -5.710  22.442  0.00  0.00    +0.144 C 
BRANCH  15  16
ATOM     16  N   UNL     1       5.681  -6.007  21.162  0.00  0.00    -0.320 NA
ATOM     17  H   UNL     1       4.780  -6.433  21.400  0.00  0.00    +0.119 HD
ATOM     18  H   UNL     1       5.426  -5.105  20.747  0.00  0.00    +0.119 HD
ENDBRANCH  15  16
BRANCH  15  19
ATOM     19  C   UNL     1       5.506  -6.025  23.671  0.00  0.00    +0.082 C 
BRANCH  19  20
ATOM     20  C   UNL     1       4.048  -5.885  23.381  0.00  0.00    +0.037 A 
ATOM     21  N   UNL     1       3.260  -6.928  22.961  0.00  0.00    -0.348 N 
ATOM     22  H   UNL     1       3.559  -7.877  22.786  0.00  0.00    +0.166 HD
ATOM     23  C   UNL     1       1.986  -6.456  22.833  0.00  0.00    +0.196 A 
ATOM     24  N   UNL     1       1.913  -5.179  23.128  0.00  0.00    -0.244 NA
ATOM     25  C   UNL     1       3.191  -4.808  23.452  0.00  0.00    +0.133 A 
ENDBRANCH  19  20
ENDBRANCH  15  19
ENDBRANCH   1  15
TORSDOF 5
ENDMDL
MODEL 4
REMARK VINA RESULT:      -6.5      1.759      2.543
REMARK  Name = 
REMARK  5 active torsions:
REMARK  status: ('A' for Active; 'I' for Inactive)
REMARK    1  A    between atoms: C_2  and  N_3
REMARK    2  A    between atoms: C_2  and  C_4
REMARK    3  A    between atoms: C_2  and  C_10
REMARK    4  A    between atoms: C_4  and  C_5
REMARK    5  A    between atoms: N_12  and  C_13
REMARK                            x       y       z     vdW  Elec       q    Type
REMARK                         _______ _______ _______ _____ _____    ______ ____
ROOT
ATOM      1  C   UNL     1       9.374  -3.222  24.789  0.00  0.00    +0.234 C 
ATOM      2  N   UNL     1       8.734  -2.105  25.308  0.00  0.00    -0.284 N 
ATOM      3  H   UNL     1       8.199  -2.267  26.158  0.00  0.00    +0.155 HD
ATOM      4  O   UNL     1      10.193  -3.224  23.872  0.00  0.00    -0.274 OA
ENDROOT
BRANCH   2   5
ATOM      5  C   UNL     1       8.805  -0.796  24.786  0.00  0.00    +0.034 A 
ATOM      6  C   UNL     1       7.784  -0.336  23.937  0.00  0.00    +0.031 A 
ATOM      7  C   UNL     1       7.799   0.987  23.432  0.00  0.00    -0.016 A 
ATOM      8  C   UNL     1       8.880   1.837  23.758  0.00  0.00    -0.018 A 
ATOM      9  C   UNL     1       8.913   3.153  23.276  0.00  0.00    +0.008 A 
ATOM     10  C   UNL     1       7.883   3.642  22.477  0.00  0.00    +0.001 A 
ATOM     11  C   UNL     1       6.809   2.819  22.152  0.00  0.00    +0.001 A 
ATOM     12  C   UNL     1       9.910   1.356  24.567  0.00  0.00    +0.010 A 
ATOM     13  C   UNL     1       6.766   1.502  22.624  0.00  0.00    +0.008 A 
ATOM     14  C   UNL     1       9.871   0.057  25.074  0.00  0.00    +0.024 A 
ENDBRANCH   2   5
BRANCH   1  15
ATOM     15  C   UNL     1       9.066  -4.532  25.527  0.00  0.00    +0.144 C 
BRANCH  15  16
ATOM     16  N   UNL     1      10.108  -5.555  25.245  0.00  0.00    -0.320 NA
ATOM     17  H   UNL     1       9.630  -6.457  25.158  0.00  0.00    +0.119 HD
ATOM     18  H   UNL     1      10.458  -5.368  24.300  0.00  0.00    +0.119 HD
ENDBRANCH  15  16
BRANCH  15  19
ATOM     19  C   UNL     1       7.656  -5.006  25.134  0.00  0.00    +0.082 C 
BRANCH  19  20
ATOM     20  C   UNL     1       6.930  -5.631  26.278  0.00  0.00    +0.037 A 
ATOM     21  N   UNL     1       7.494  -5.822  27.515  0.00  0.00    -0.348 N 
ATOM     22  H   UNL     1       8.439  -5.589  27.789  0.00  0.00    +0.166 HD
ATOM     23  C   UNL     1       6.543  -6.376  28.322  0.00  0.00    +0.196 A 
ATOM     24  N   UNL     1       5.415  -6.565  27.676  0.00  0.00    -0.244 NA
ATOM     25  C   UNL     1       5.648  -6.124  26.401  0.00  0.00    +0.133 A 
ENDBRANCH  19  20
ENDBRANCH  15  19
ENDBRANCH   1  15
TORSDOF 5
ENDMDL
MODEL 5
REMARK VINA RESULT:      -6.5      2.036      2.564
REMARK  Name = 
REMARK  5 active torsions:
REMARK  status: ('A' for Active; 'I' for Inactive)
REMARK    1  A    between atoms: C_2  and  N_3
REMARK    2  A    between atoms: C_2  and  C_4
REMARK    3  A    between atoms: C_2  and  C_10
REMARK    4  A    between atoms: C_4  and  C_5
REMARK    5  A    between atoms: N_12  and  C_13
REMARK                            x       y       z     vdW  Elec       q    Type
REMARK                         _______ _______ _______ _____ _____    ______ ____
ROOT
ATOM      1  C   UNL     1       8.472  -4.042  23.784  0.00  0.00    +0.234 C 
ATOM      2  N   UNL     1       7.851  -2.989  23.126  0.00  0.00    -0.284 N 
ATOM      3  H   UNL     1       6.903  -3.176  22.808  0.00  0.00    +0.155 HD
ATOM      4  O   UNL     1       9.543  -3.987  24.385  0.00  0.00    -0.274 OA
ENDROOT
BRANCH   2   5
ATOM      5  C   UNL     1       8.403  -1.708  22.914  0.00  0.00    +0.034 A 
ATOM      6  C   UNL     1       8.192  -0.701  23.870  0.00  0.00    +0.031 A 
ATOM      7  C   UNL     1       8.769   0.583  23.713  0.00  0.00    -0.016 A 
ATOM      8  C   UNL     1       9.534   0.859  22.557  0.00  0.00    -0.018 A 
ATOM      9  C   UNL     1      10.122   2.120  22.383  0.00  0.00    +0.008 A 
ATOM     10  C   UNL     1       9.966   3.114  23.346  0.00  0.00    +0.001 A 
ATOM     11  C   UNL     1       9.221   2.855  24.492  0.00  0.00    +0.001 A 
ATOM     12  C   UNL     1       9.702  -0.137  21.593  0.00  0.00    +0.010 A 
ATOM     13  C   UNL     1       8.626   1.602  24.676  0.00  0.00    +0.008 A 
ATOM     14  C   UNL     1       9.144  -1.403  21.772  0.00  0.00    +0.024 A 
ENDBRANCH   2   5
BRANCH   1  15
ATOM     15  C   UNL     1       7.659  -5.343  23.812  0.00  0.00    +0.144 C 
BRANCH  15  16
ATOM     16  N   UNL     1       7.257  -5.745  22.438  0.00  0.00    -0.320 NA
ATOM     17  H   UNL     1       7.638  -6.681  22.273  0.00  0.00    +0.119 HD
ATOM     18  H   UNL     1       6.242  -5.890  22.457  0.00  0.00    +0.119 HD
ENDBRANCH  15  16
BRANCH  15  19
ATOM     19  C   UNL     1       6.450  -5.155  24.746  0.00  0.00    +0.082 C 
BRANCH  19  20
ATOM     20  C   UNL     1       5.151  -5.313  24.028  0.00  0.00    +0.037 A 
ATOM     21  N   UNL     1       4.644  -6.529  23.646  0.00  0.00    -0.348 N 
ATOM     22  H   UNL     1       5.076  -7.433  23.783  0.00  0.00    +0.166 HD
ATOM     23  C   UNL     1       3.434  -6.305  23.056  0.00  0.00    +0.196 A 
ATOM     24  N   UNL     1       3.145  -5.025  23.022  0.00  0.00    -0.244 NA
ATOM     25  C   UNL     1       4.212  -4.396  23.606  0.00  0.00    +0.133 A 
ENDBRANCH  19  20
ENDBRANCH  15  19
ENDBRANCH   1  15
TORSDOF 5
ENDMDL
MODEL 6
REMARK VINA RESULT:      -6.5      2.629      6.897
REMARK  Name = 
REMARK  5 active torsions:
REMARK  status: ('A' for Active; 'I' for Inactive)
REMARK    1  A    between atoms: C_2  and  N_3
REMARK    2  A    between atoms: C_2  and  C_4
REMARK    3  A    between atoms: C_2  and  C_10
REMARK    4  A    between atoms: C_4  and  C_5
REMARK    5  A    between atoms: N_12  and  C_13
REMARK                            x       y       z     vdW  Elec       q    Type
REMARK                         _______ _______ _______ _____ _____    ______ ____
ROOT
ATOM      1  C   UNL     1       9.582  -2.272  23.107  0.00  0.00    +0.234 C 
ATOM      2  N   UNL     1       8.311  -2.518  22.607  0.00  0.00    -0.284 N 
ATOM      3  H   UNL     1       7.992  -1.865  21.895  0.00  0.00    +0.155 HD
ATOM      4  O   UNL     1      10.222  -3.016  23.848  0.00  0.00    -0.274 OA
ENDROOT
BRANCH   2   5
ATOM      5  C   UNL     1       7.476  -3.596  22.969  0.00  0.00    +0.034 A 
ATOM      6  C   UNL     1       7.040  -3.713  24.300  0.00  0.00    +0.031 A 
ATOM      7  C   UNL     1       6.164  -4.755  24.689  0.00  0.00    -0.016 A 
ATOM      8  C   UNL     1       5.758  -5.710  23.728  0.00  0.00    -0.018 A 
ATOM      9  C   UNL     1       4.886  -6.747  24.088  0.00  0.00    +0.008 A 
ATOM     10  C   UNL     1       4.402  -6.847  25.390  0.00  0.00    +0.001 A 
ATOM     11  C   UNL     1       4.789  -5.912  26.345  0.00  0.00    +0.001 A 
ATOM     12  C   UNL     1       6.231  -5.608  22.419  0.00  0.00    +0.010 A 
ATOM     13  C   UNL     1       5.662  -4.875  26.000  0.00  0.00    +0.008 A 
ATOM     14  C   UNL     1       7.077  -4.563  22.046  0.00  0.00    +0.024 A 
ENDBRANCH   2   5
BRANCH   1  15
ATOM     15  C   UNL     1      10.237  -0.989  22.580  0.00  0.00    +0.144 C 
BRANCH  15  16
ATOM     16  N   UNL     1      10.457  -0.016  23.683  0.00  0.00    -0.320 NA
ATOM     17  H   UNL     1      11.431   0.297  23.621  0.00  0.00    +0.119 HD
ATOM     18  H   UNL     1       9.913   0.821  23.453  0.00  0.00    +0.119 HD
ENDBRANCH  15  16
BRANCH  15  19
ATOM     19  C   UNL     1       9.363  -0.410  21.453  0.00  0.00    +0.082 C 
BRANCH  19  20
ATOM     20  C   UNL     1       8.655   0.836  21.870  0.00  0.00    +0.037 A 
ATOM     21  N   UNL     1       9.190   2.092  21.726  0.00  0.00    -0.348 N 
ATOM     22  H   UNL     1      10.101   2.319  21.351  0.00  0.00    +0.166 HD
ATOM     23  C   UNL     1       8.263   2.990  22.171  0.00  0.00    +0.196 A 
ATOM     24  N   UNL     1       7.180   2.388  22.604  0.00  0.00    -0.244 NA
ATOM     25  C   UNL     1       7.417   1.049  22.440  0.00  0.00    +0.133 A 
ENDBRANCH  19  20
ENDBRANCH  15  19
ENDBRANCH   1  15
TORSDOF 5
ENDMDL
MODEL 7
REMARK VINA RESULT:      -6.5      2.289      3.430
REMARK  Name = 
REMARK  5 active torsions:
REMARK  status: ('A' for Active; 'I' for Inactive)
REMARK    1  A    between atoms: C_2  and  N_3
REMARK    2  A    between atoms: C_2  and  C_4
REMARK    3  A    between atoms: C_2  and  C_10
REMARK    4  A    between atoms: C_4  and  C_5
REMARK    5  A    between atoms: N_12  and  C_13
REMARK                            x       y       z     vdW  Elec       q    Type
REMARK                         _______ _______ _______ _____ _____    ______ ____
ROOT
ATOM      1  C   UNL     1       7.183  -3.886  22.751  0.00  0.00    +0.234 C 
ATOM      2  N   UNL     1       8.318  -3.275  23.266  0.00  0.00    -0.284 N 
ATOM      3  H   UNL     1       8.903  -3.869  23.849  0.00  0.00    +0.155 HD
ATOM      4  O   UNL     1       6.429  -3.411  21.904  0.00  0.00    -0.274 OA
ENDROOT
BRANCH   2   5
ATOM      5  C   UNL     1       8.728  -1.949  23.012  0.00  0.00    +0.034 A 
ATOM      6  C   UNL     1       8.497  -0.959  23.982  0.00  0.00    +0.031 A 
ATOM      7  C   UNL     1       8.937   0.372  23.781  0.00  0.00    -0.016 A 
ATOM      8  C   UNL     1       9.581   0.711  22.569  0.00  0.00    -0.018 A 
ATOM      9  C   UNL     1      10.032   2.020  22.350  0.00  0.00    +0.008 A 
ATOM     10  C   UNL     1       9.858   3.001  23.323  0.00  0.00    +0.001 A 
ATOM     11  C   UNL     1       9.230   2.683  24.523  0.00  0.00    +0.001 A 
ATOM     12  C   UNL     1       9.768  -0.272  21.596  0.00  0.00    +0.010 A 
ATOM     13  C   UNL     1       8.772   1.380  24.752  0.00  0.00    +0.008 A 
ATOM     14  C   UNL     1       9.347  -1.584  21.817  0.00  0.00    +0.024 A 
ENDBRANCH   2   5
BRANCH   1  15
ATOM     15  C   UNL     1       6.951  -5.319  23.247  0.00  0.00    +0.144 C 
BRANCH  15  16
ATOM     16  N   UNL     1       6.706  -6.241  22.106  0.00  0.00    -0.320 NA
ATOM     17  H   UNL     1       6.613  -5.663  21.265  0.00  0.00    +0.119 HD
ATOM     18  H   UNL     1       7.576  -6.761  21.954  0.00  0.00    +0.119 HD
ENDBRANCH  15  16
BRANCH  15  19
ATOM     19  C   UNL     1       5.790  -5.315  24.258  0.00  0.00    +0.082 C 
BRANCH  19  20
ATOM     20  C   UNL     1       6.265  -5.464  25.665  0.00  0.00    +0.037 A 
ATOM     21  N   UNL     1       5.430  -5.757  26.715  0.00  0.00    -0.348 N 
ATOM     22  H   UNL     1       4.429  -5.886  26.670  0.00  0.00    +0.166 HD
ATOM     23  C   UNL     1       6.200  -5.858  27.838  0.00  0.00    +0.196 A 
ATOM     24  N   UNL     1       7.466  -5.632  27.576  0.00  0.00    -0.244 NA
ATOM     25  C   UNL     1       7.518  -5.369  26.233  0.00  0.00    +0.133 A 
ENDBRANCH  19  20
ENDBRANCH  15  19
ENDBRANCH   1  15
TORSDOF 5
ENDMDL
MODEL 8
REMARK VINA RESULT:      -6.5      2.034      3.043
REMARK  Name = 
REMARK  5 active torsions:
REMARK  status: ('A' for Active; 'I' for Inactive)
REMARK    1  A    between atoms: C_2  and  N_3
REMARK    2  A    between atoms: C_2  and  C_4
REMARK    3  A    between atoms: C_2  and  C_10
REMARK    4  A    between atoms: C_4  and  C_5
REMARK    5  A    between atoms: N_12  and  C_13
REMARK                            x       y       z     vdW  Elec       q    Type
REMARK                         _______ _______ _______ _____ _____    ______ ____
ROOT
ATOM      1  C   UNL     1       9.031  -0.980  24.567  0.00  0.00    +0.234 C 
ATOM      2  N   UNL     1       8.771   0.031  23.652  0.00  0.00    -0.284 N 
ATOM      3  H   UNL     1       8.354  -0.273  22.776  0.00  0.00    +0.155 HD
ATOM      4  O   UNL     1       9.381  -0.825  25.735  0.00  0.00    -0.274 OA
ENDROOT
BRANCH   2   5
ATOM      5  C   UNL     1       8.994   1.409  23.861  0.00  0.00    +0.034 A 
ATOM      6  C   UNL     1      10.240   1.964  23.522  0.00  0.00    +0.031 A 
ATOM      7  C   UNL     1      10.483   3.351  23.673  0.00  0.00    -0.016 A 
ATOM      8  C   UNL     1       9.468   4.175  24.211  0.00  0.00    -0.018 A 
ATOM      9  C   UNL     1       9.683   5.552  24.364  0.00  0.00    +0.008 A 
ATOM     10  C   UNL     1      10.893   6.127  23.984  0.00  0.00    +0.001 A 
ATOM     11  C   UNL     1      11.899   5.330  23.448  0.00  0.00    +0.001 A 
ATOM     12  C   UNL     1       8.249   3.605  24.584  0.00  0.00    +0.010 A 
ATOM     13  C   UNL     1      11.699   3.953  23.294  0.00  0.00    +0.008 A 
ATOM     14  C   UNL     1       8.018   2.241  24.409  0.00  0.00    +0.024 A 
ENDBRANCH   2   5
BRANCH   1  15
ATOM     15  C   UNL     1       8.749  -2.396  24.046  0.00  0.00    +0.144 C 
BRANCH  15  16
ATOM     16  N   UNL     1       9.997  -3.204  24.010  0.00  0.00    -0.320 NA
ATOM     17  H   UNL     1      10.782  -2.553  24.108  0.00  0.00    +0.119 HD
ATOM     18  H   UNL     1      10.020  -3.752  24.876  0.00  0.00    +0.119 HD
ENDBRANCH  15  16
BRANCH  15  19
ATOM     19  C   UNL     1       8.075  -2.295  22.667  0.00  0.00    +0.082 C 
BRANCH  19  20
ATOM     20  C   UNL     1       7.215  -3.479  22.369  0.00  0.00    +0.037 A 
ATOM     21  N   UNL     1       7.473  -4.737  22.853  0.00  0.00    -0.348 N 
ATOM     22  H   UNL     1       8.253  -5.012  23.433  0.00  0.00    +0.166 HD
ATOM     23  C   UNL     1       6.472  -5.558  22.420  0.00  0.00    +0.196 A 
ATOM     24  N   UNL     1       5.604  -4.910  21.679  0.00  0.00    -0.244 NA
ATOM     25  C   UNL     1       6.064  -3.621  21.624  0.00  0.00    +0.133 A 
ENDBRANCH  19  20
ENDBRANCH  15  19
ENDBRANCH   1  15
TORSDOF 5
ENDMDL
MODEL 9
REMARK VINA RESULT:      -6.2      3.345      7.601
REMARK  Name = 
REMARK  5 active torsions:
REMARK  status: ('A' for Active; 'I' for Inactive)
REMARK    1  A    between atoms: C_2  and  N_3
REMARK    2  A    between atoms: C_2  and  C_4
REMARK    3  A    between atoms: C_2  and  C_10
REMARK    4  A    between atoms: C_4  and  C_5
REMARK    5  A    between atoms: N_12  and  C_13
REMARK                            x       y       z     vdW  Elec       q    Type
REMARK                         _______ _______ _______ _____ _____    ______ ____
ROOT
ATOM      1  C   UNL     1       8.085   0.929  22.658  0.00  0.00    +0.234 C 
ATOM      2  N   UNL     1       8.952  -0.124  22.915  0.00  0.00    -0.284 N 
ATOM      3  H   UNL     1       9.929   0.138  23.028  0.00  0.00    +0.155 HD
ATOM      4  O   UNL     1       6.857   0.866  22.644  0.00  0.00    -0.274 OA
ENDROOT
BRANCH   2   5
ATOM      5  C   UNL     1       8.585  -1.477  23.071  0.00  0.00    +0.034 A 
ATOM      6  C   UNL     1       7.587  -2.019  22.244  0.00  0.00    +0.031 A 
ATOM      7  C   UNL     1       7.225  -3.385  22.341  0.00  0.00    -0.016 A 
ATOM      8  C   UNL     1       7.852  -4.197  23.312  0.00  0.00    -0.018 A 
ATOM      9  C   UNL     1       7.516  -5.554  23.423  0.00  0.00    +0.008 A 
ATOM     10  C   UNL     1       6.566  -6.120  22.575  0.00  0.00    +0.001 A 
ATOM     11  C   UNL     1       5.944  -5.334  21.610  0.00  0.00    +0.001 A 
ATOM     12  C   UNL     1       8.812  -3.637  24.157  0.00  0.00    +0.010 A 
ATOM     13  C   UNL     1       6.268  -3.978  21.493  0.00  0.00    +0.008 A 
ATOM     14  C   UNL     1       9.172  -2.295  24.035  0.00  0.00    +0.024 A 
ENDBRANCH   2   5
BRANCH   1  15
ATOM     15  C   UNL     1       8.772   2.289  22.473  0.00  0.00    +0.144 C 
BRANCH  15  16
ATOM     16  N   UNL     1       9.889   2.189  21.496  0.00  0.00    -0.320 NA
ATOM     17  H   UNL     1       9.892   3.057  20.952  0.00  0.00    +0.119 HD
ATOM     18  H   UNL     1      10.759   2.232  22.037  0.00  0.00    +0.119 HD
ENDBRANCH  15  16
BRANCH  15  19
ATOM     19  C   UNL     1       9.238   2.802  23.847  0.00  0.00    +0.082 C 
BRANCH  19  20
ATOM     20  C   UNL     1      10.170   3.963  23.731  0.00  0.00    +0.037 A 
ATOM     21  N   UNL     1      11.465   3.848  23.292  0.00  0.00    -0.348 N 
ATOM     22  H   UNL     1      11.936   2.996  23.020  0.00  0.00    +0.166 HD
ATOM     23  C   UNL     1      12.007   5.100  23.274  0.00  0.00    +0.196 A 
ATOM     24  N   UNL     1      11.149   6.002  23.688  0.00  0.00    -0.244 NA
ATOM     25  C   UNL     1      10.009   5.307  23.992  0.00  0.00    +0.133 A 
ENDBRANCH  19  20
ENDBRANCH  15  19
ENDBRANCH   1  15
TORSDOF 5
ENDMDL
