MODEL 1
REMARK VINA RESULT:      -5.7      0.000      0.000
REMARK  Name = 
REMARK  11 active torsions:
REMARK  status: ('A' for Active; 'I' for Inactive)
REMARK    1  A    between atoms: N_1  and  C_2
REMARK    2  A    between atoms: C_2  and  C_4
REMARK    3  A    between atoms: C_2  and  C_20
REMARK    4  A    between atoms: C_4  and  C_5
REMARK    5  A    between atoms: C_5  and  S_6
REMARK    6  A    between atoms: S_6  and  C_7
REMARK    7  A    between atoms: C_7  and  C_8
REMARK    8  A    between atoms: C_11  and  O_13
REMARK    9  A    between atoms: C_14  and  O_16
REMARK   10  A    between atoms: C_17  and  O_19
REMARK   11  A    between atoms: C_20  and  O_21
REMARK                            x       y       z     vdW  Elec       q    Type
REMARK                         _______ _______ _______ _____ _____    ______ ____
ROOT
ATOM      1  C   UNK     1       7.759  -0.087  24.774  0.00  0.00    +0.103 C 
ENDROOT
BRANCH   1   2
ATOM      2  C   UNK     1       8.867  -0.277  23.736  0.00  0.00    +0.162 C 
ATOM      3  C   UNK     1       9.681   0.992  23.503  0.00  0.00    +0.177 C 
ATOM      4  C   UNK     1      10.104   0.886  22.034  0.00  0.00    +0.201 C 
ATOM      5  C   UNK     1       9.360  -0.351  21.511  0.00  0.00    +0.279 C 
ATOM      6  O   UNK     1       8.314  -0.596  22.445  0.00  0.00    -0.342 OA
BRANCH   3   7
ATOM      7  O   UNK     1      10.791   1.063  24.392  0.00  0.00    -0.386 OA
ATOM      8  H   UNK     1      11.599   0.954  23.859  0.00  0.00    +0.210 HD
ENDBRANCH   3   7
BRANCH   4   9
ATOM      9  O   UNK     1       9.686   2.079  21.350  0.00  0.00    -0.384 OA
ATOM     10  H   UNK     1       9.569   2.780  22.016  0.00  0.00    +0.210 HD
ENDBRANCH   4   9
BRANCH   5  11
ATOM     11  O   UNK     1      10.210  -1.483  21.487  0.00  0.00    -0.365 OA
ATOM     12  H   UNK     1      10.547  -1.563  22.395  0.00  0.00    +0.213 HD
ENDBRANCH   5  11
ENDBRANCH   1   2
BRANCH   1  13
ATOM     13  S   UNK     1       8.196  -0.738  26.433  0.00  0.00    -0.158 S 
BRANCH  13  14
ATOM     14  C   UNK     1       7.401  -2.375  26.330  0.00  0.00    +0.071 C 
BRANCH  14  15
ATOM     15  C   UNK     1       8.405  -3.452  26.734  0.00  0.00    +0.040 C 
BRANCH  15  16
ATOM     16  C   UNK     1       8.049  -4.838  26.186  0.00  0.00    +0.161 C 
BRANCH  16  17
ATOM     17  N   UNK     1       8.023  -5.824  27.317  0.00  0.00    -0.318 NA
ATOM     18  H   UNK     1       8.691  -5.513  28.034  0.00  0.00    +0.119 HD
ATOM     19  H   UNK     1       7.114  -5.730  27.784  0.00  0.00    +0.119 HD
ENDBRANCH  16  17
BRANCH  16  20
ATOM     20  C   UNK     1       9.065  -5.343  25.138  0.00  0.00    +0.322 C 
ATOM     21  O   UNK     1       8.841  -5.498  23.947  0.00  0.00    -0.249 OA
BRANCH  20  22
ATOM     22  O   UNK     1      10.264  -5.623  25.710  0.00  0.00    -0.480 OA
ATOM     23  H   UNK     1      10.355  -6.607  25.658  0.00  0.00    +0.295 HD
ENDBRANCH  20  22
ENDBRANCH  16  20
ENDBRANCH  15  16
ENDBRANCH  14  15
ENDBRANCH  13  14
ENDBRANCH   1  13
TORSDOF 11
ENDMDL
MODEL 2
REMARK VINA RESULT:      -5.6      2.014      2.599
REMARK  Name = 
REMARK  11 active torsions:
REMARK  status: ('A' for Active; 'I' for Inactive)
REMARK    1  A    between atoms: N_1  and  C_2
REMARK    2  A    between atoms: C_2  and  C_4
REMARK    3  A    between atoms: C_2  and  C_20
REMARK    4  A    between atoms: C_4  and  C_5
REMARK    5  A    between atoms: C_5  and  S_6
REMARK    6  A    between atoms: S_6  and  C_7
REMARK    7  A    between atoms: C_7  and  C_8
REMARK    8  A    between atoms: C_11  and  O_13
REMARK    9  A    between atoms: C_14  and  O_16
REMARK   10  A    between atoms: C_17  and  O_19
REMARK   11  A    between atoms: C_20  and  O_21
REMARK                            x       y       z     vdW  Elec       q    Type
REMARK                         _______ _______ _______ _____ _____    ______ ____
ROOT
ATOM      1  C   UNK     1       9.876  -1.753  23.063  0.00  0.00    +0.103 C 
ENDROOT
BRANCH   1   2
ATOM      2  C   UNK     1      10.060  -0.239  22.939  0.00  0.00    +0.162 C 
ATOM      3  C   UNK     1       9.565   0.518  24.167  0.00  0.00    +0.177 C 
ATOM      4  C   UNK     1       9.090   1.860  23.597  0.00  0.00    +0.201 C 
ATOM      5  C   UNK     1       9.202   1.690  22.076  0.00  0.00    +0.279 C 
ATOM      6  O   UNK     1       9.279   0.286  21.849  0.00  0.00    -0.342 OA
BRANCH   3   7
ATOM      7  O   UNK     1      10.600   0.667  25.133  0.00  0.00    -0.386 OA
ATOM      8  H   UNK     1      11.127  -0.153  25.124  0.00  0.00    +0.210 HD
ENDBRANCH   3   7
BRANCH   4   9
ATOM      9  O   UNK     1       7.727   2.072  24.002  0.00  0.00    -0.384 OA
ATOM     10  H   UNK     1       7.529   1.451  24.726  0.00  0.00    +0.210 HD
ENDBRANCH   4   9
BRANCH   5  11
ATOM     11  O   UNK     1      10.389   2.286  21.585  0.00  0.00    -0.365 OA
ATOM     12  H   UNK     1      11.027   2.213  22.314  0.00  0.00    +0.213 HD
ENDBRANCH   5  11
ENDBRANCH   1   2
BRANCH   1  13
ATOM     13  S   UNK     1       8.358  -2.229  23.978  0.00  0.00    -0.158 S 
BRANCH  13  14
ATOM     14  C   UNK     1       7.943  -3.763  23.087  0.00  0.00    +0.071 C 
BRANCH  14  15
ATOM     15  C   UNK     1       8.046  -4.949  24.044  0.00  0.00    +0.040 C 
BRANCH  15  16
ATOM     16  C   UNK     1       8.879  -4.641  25.292  0.00  0.00    +0.161 C 
BRANCH  16  17
ATOM     17  N   UNK     1      10.064  -5.561  25.334  0.00  0.00    -0.318 NA
ATOM     18  H   UNK     1      10.909  -4.994  25.476  0.00  0.00    +0.119 HD
ATOM     19  H   UNK     1       9.997  -6.106  26.201  0.00  0.00    +0.119 HD
ENDBRANCH  16  17
BRANCH  16  20
ATOM     20  C   UNK     1       8.083  -4.829  26.602  0.00  0.00    +0.322 C 
ATOM     21  O   UNK     1       7.493  -3.949  27.209  0.00  0.00    -0.249 OA
BRANCH  20  22
ATOM     22  O   UNK     1       8.133  -6.118  27.027  0.00  0.00    -0.480 OA
ATOM     23  H   UNK     1       7.462  -6.599  26.481  0.00  0.00    +0.295 HD
ENDBRANCH  20  22
ENDBRANCH  16  20
ENDBRANCH  15  16
ENDBRANCH  14  15
ENDBRANCH  13  14
ENDBRANCH   1  13
TORSDOF 11
ENDMDL
MODEL 3
REMARK VINA RESULT:      -5.5      2.076      2.814
REMARK  Name = 
REMARK  11 active torsions:
REMARK  status: ('A' for Active; 'I' for Inactive)
REMARK    1  A    between atoms: N_1  and  C_2
REMARK    2  A    between atoms: C_2  and  C_4
REMARK    3  A    between atoms: C_2  and  C_20
REMARK    4  A    between atoms: C_4  and  C_5
REMARK    5  A    between atoms: C_5  and  S_6
REMARK    6  A    between atoms: S_6  and  C_7
REMARK    7  A    between atoms: C_7  and  C_8
REMARK    8  A    between atoms: C_11  and  O_13
REMARK    9  A    between atoms: C_14  and  O_16
REMARK   10  A    between atoms: C_17  and  O_19
REMARK   11  A    between atoms: C_20  and  O_21
REMARK                            x       y       z     vdW  Elec       q    Type
REMARK                         _______ _______ _______ _____ _____    ______ ____
ROOT
ATOM      1  C   UNK     1       7.372  -1.500  23.157  0.00  0.00    +0.103 C 
ENDROOT
BRANCH   1   2
ATOM      2  C   UNK     1       8.490  -0.593  22.638  0.00  0.00    +0.162 C 
ATOM      3  C   UNK     1       9.841  -0.897  23.277  0.00  0.00    +0.177 C 
ATOM      4  C   UNK     1      10.547   0.463  23.294  0.00  0.00    +0.201 C 
ATOM      5  C   UNK     1       9.478   1.454  22.815  0.00  0.00    +0.279 C 
ATOM      6  O   UNK     1       8.232   0.784  22.972  0.00  0.00    -0.342 OA
BRANCH   3   7
ATOM      7  O   UNK     1      10.555  -1.879  22.532  0.00  0.00    -0.386 OA
ATOM      8  H   UNK     1      10.638  -2.669  23.095  0.00  0.00    +0.210 HD
ENDBRANCH   3   7
BRANCH   4   9
ATOM      9  O   UNK     1      10.961   0.747  24.641  0.00  0.00    -0.384 OA
ATOM     10  H   UNK     1      10.460   1.524  24.950  0.00  0.00    +0.210 HD
ENDBRANCH   4   9
BRANCH   5  11
ATOM     11  O   UNK     1       9.649   1.762  21.444  0.00  0.00    -0.365 OA
ATOM     12  H   UNK     1      10.202   1.044  21.093  0.00  0.00    +0.213 HD
ENDBRANCH   5  11
ENDBRANCH   1   2
BRANCH   1  13
ATOM     13  S   UNK     1       7.293  -3.121  22.302  0.00  0.00    -0.158 S 
BRANCH  13  14
ATOM     14  C   UNK     1       7.000  -4.202  23.739  0.00  0.00    +0.071 C 
BRANCH  14  15
ATOM     15  C   UNK     1       8.232  -5.074  23.976  0.00  0.00    +0.040 C 
BRANCH  15  16
ATOM     16  C   UNK     1       9.057  -4.629  25.187  0.00  0.00    +0.161 C 
BRANCH  16  17
ATOM     17  N   UNK     1      10.266  -5.510  25.313  0.00  0.00    -0.318 NA
ATOM     18  H   UNK     1      11.074  -5.008  24.925  0.00  0.00    +0.119 HD
ATOM     19  H   UNK     1      10.490  -5.582  26.312  0.00  0.00    +0.119 HD
ENDBRANCH  16  17
BRANCH  16  20
ATOM     20  C   UNK     1       8.267  -4.713  26.511  0.00  0.00    +0.322 C 
ATOM     21  O   UNK     1       7.802  -3.765  27.124  0.00  0.00    -0.249 OA
BRANCH  20  22
ATOM     22  O   UNK     1       8.163  -5.997  26.941  0.00  0.00    -0.480 OA
ATOM     23  H   UNK     1       8.529  -6.549  26.206  0.00  0.00    +0.295 HD
ENDBRANCH  20  22
ENDBRANCH  16  20
ENDBRANCH  15  16
ENDBRANCH  14  15
ENDBRANCH  13  14
ENDBRANCH   1  13
TORSDOF 11
ENDMDL
MODEL 4
REMARK VINA RESULT:      -5.5      3.047      3.643
REMARK  Name = 
REMARK  11 active torsions:
REMARK  status: ('A' for Active; 'I' for Inactive)
REMARK    1  A    between atoms: N_1  and  C_2
REMARK    2  A    between atoms: C_2  and  C_4
REMARK    3  A    between atoms: C_2  and  C_20
REMARK    4  A    between atoms: C_4  and  C_5
REMARK    5  A    between atoms: C_5  and  S_6
REMARK    6  A    between atoms: S_6  and  C_7
REMARK    7  A    between atoms: C_7  and  C_8
REMARK    8  A    between atoms: C_11  and  O_13
REMARK    9  A    between atoms: C_14  and  O_16
REMARK   10  A    between atoms: C_17  and  O_19
REMARK   11  A    between atoms: C_20  and  O_21
REMARK                            x       y       z     vdW  Elec       q    Type
REMARK                         _______ _______ _______ _____ _____    ______ ____
ROOT
ATOM      1  C   UNK     1       9.528  -1.277  24.359  0.00  0.00    +0.103 C 
ENDROOT
BRANCH   1   2
ATOM      2  C   UNK     1       8.707  -0.536  23.302  0.00  0.00    +0.162 C 
ATOM      3  C   UNK     1       9.534  -0.140  22.083  0.00  0.00    +0.177 C 
ATOM      4  C   UNK     1       8.870   1.155  21.601  0.00  0.00    +0.201 C 
ATOM      5  C   UNK     1       7.826   1.473  22.680  0.00  0.00    +0.279 C 
ATOM      6  O   UNK     1       8.204   0.709  23.821  0.00  0.00    -0.342 OA
BRANCH   3   7
ATOM      7  O   UNK     1       9.522  -1.165  21.095  0.00  0.00    -0.386 OA
ATOM      8  H   UNK     1       9.333  -0.743  20.238  0.00  0.00    +0.210 HD
ENDBRANCH   3   7
BRANCH   4   9
ATOM      9  O   UNK     1       9.873   2.182  21.522  0.00  0.00    -0.384 OA
ATOM     10  H   UNK     1      10.695   1.828  21.908  0.00  0.00    +0.210 HD
ENDBRANCH   4   9
BRANCH   5  11
ATOM     11  O   UNK     1       6.534   1.058  22.275  0.00  0.00    -0.365 OA
ATOM     12  H   UNK     1       5.923   1.521  22.871  0.00  0.00    +0.213 HD
ENDBRANCH   5  11
ENDBRANCH   1   2
BRANCH   1  13
ATOM     13  S   UNK     1       9.308  -3.098  24.308  0.00  0.00    -0.158 S 
BRANCH  13  14
ATOM     14  C   UNK     1       7.517  -3.172  23.979  0.00  0.00    +0.071 C 
BRANCH  14  15
ATOM     15  C   UNK     1       7.182  -4.495  23.294  0.00  0.00    +0.040 C 
BRANCH  15  16
ATOM     16  C   UNK     1       6.289  -4.322  22.061  0.00  0.00    +0.161 C 
BRANCH  16  17
ATOM     17  N   UNK     1       4.904  -3.949  22.504  0.00  0.00    -0.318 NA
ATOM     18  H   UNK     1       4.233  -4.547  22.006  0.00  0.00    +0.119 HD
ATOM     19  H   UNK     1       4.804  -4.245  23.481  0.00  0.00    +0.119 HD
ENDBRANCH  16  17
BRANCH  16  20
ATOM     20  C   UNK     1       6.186  -5.609  21.214  0.00  0.00    +0.322 C 
ATOM     21  O   UNK     1       5.976  -5.654  20.011  0.00  0.00    -0.249 OA
BRANCH  20  22
ATOM     22  O   UNK     1       6.340  -6.718  21.982  0.00  0.00    -0.480 OA
ATOM     23  H   UNK     1       5.625  -7.338  21.693  0.00  0.00    +0.295 HD
ENDBRANCH  20  22
ENDBRANCH  16  20
ENDBRANCH  15  16
ENDBRANCH  14  15
ENDBRANCH  13  14
ENDBRANCH   1  13
TORSDOF 11
ENDMDL
MODEL 5
REMARK VINA RESULT:      -5.4      1.698      1.853
REMARK  Name = 
REMARK  11 active torsions:
REMARK  status: ('A' for Active; 'I' for Inactive)
REMARK    1  A    between atoms: N_1  and  C_2
REMARK    2  A    between atoms: C_2  and  C_4
REMARK    3  A    between atoms: C_2  and  C_20
REMARK    4  A    between atoms: C_4  and  C_5
REMARK    5  A    between atoms: C_5  and  S_6
REMARK    6  A    between atoms: S_6  and  C_7
REMARK    7  A    between atoms: C_7  and  C_8
REMARK    8  A    between atoms: C_11  and  O_13
REMARK    9  A    between atoms: C_14  and  O_16
REMARK   10  A    between atoms: C_17  and  O_19
REMARK   11  A    between atoms: C_20  and  O_21
REMARK                            x       y       z     vdW  Elec       q    Type
REMARK                         _______ _______ _______ _____ _____    ______ ____
ROOT
ATOM      1  C   UNK     1       7.158   0.010  24.409  0.00  0.00    +0.103 C 
ENDROOT
BRANCH   1   2
ATOM      2  C   UNK     1       8.475  -0.222  23.665  0.00  0.00    +0.162 C 
ATOM      3  C   UNK     1       9.358   1.023  23.628  0.00  0.00    +0.177 C 
ATOM      4  C   UNK     1      10.115   0.889  22.303  0.00  0.00    +0.201 C 
ATOM      5  C   UNK     1       9.481  -0.333  21.622  0.00  0.00    +0.279 C 
ATOM      6  O   UNK     1       8.236  -0.539  22.282  0.00  0.00    -0.342 OA
BRANCH   3   7
ATOM      7  O   UNK     1      10.226   1.073  24.756  0.00  0.00    -0.386 OA
ATOM      8  H   UNK     1       9.987   0.331  25.341  0.00  0.00    +0.210 HD
ENDBRANCH   3   7
BRANCH   4   9
ATOM      9  O   UNK     1       9.907   2.085  21.533  0.00  0.00    -0.384 OA
ATOM     10  H   UNK     1      10.780   2.432  21.276  0.00  0.00    +0.210 HD
ENDBRANCH   4   9
BRANCH   5  11
ATOM     11  O   UNK     1      10.279  -1.488  21.806  0.00  0.00    -0.365 OA
ATOM     12  H   UNK     1      11.196  -1.171  21.747  0.00  0.00    +0.213 HD
ENDBRANCH   5  11
ENDBRANCH   1   2
BRANCH   1  13
ATOM     13  S   UNK     1       7.078  -0.843  26.032  0.00  0.00    -0.158 S 
BRANCH  13  14
ATOM     14  C   UNK     1       8.541  -1.917  25.875  0.00  0.00    +0.071 C 
BRANCH  14  15
ATOM     15  C   UNK     1       8.092  -3.374  25.781  0.00  0.00    +0.040 C 
BRANCH  15  16
ATOM     16  C   UNK     1       8.773  -4.138  24.641  0.00  0.00    +0.161 C 
BRANCH  16  17
ATOM     17  N   UNK     1       9.943  -3.342  24.142  0.00  0.00    -0.318 NA
ATOM     18  H   UNK     1      10.184  -3.675  23.201  0.00  0.00    +0.119 HD
ATOM     19  H   UNK     1       9.613  -2.384  23.976  0.00  0.00    +0.119 HD
ENDBRANCH  16  17
BRANCH  16  20
ATOM     20  C   UNK     1       7.828  -4.393  23.447  0.00  0.00    +0.322 C 
ATOM     21  O   UNK     1       7.100  -5.364  23.310  0.00  0.00    -0.249 OA
BRANCH  20  22
ATOM     22  O   UNK     1       7.915  -3.397  22.528  0.00  0.00    -0.480 OA
ATOM     23  H   UNK     1       8.763  -3.561  22.044  0.00  0.00    +0.295 HD
ENDBRANCH  20  22
ENDBRANCH  16  20
ENDBRANCH  15  16
ENDBRANCH  14  15
ENDBRANCH  13  14
ENDBRANCH   1  13
TORSDOF 11
ENDMDL
MODEL 6
REMARK VINA RESULT:      -5.4      2.033      2.766
REMARK  Name = 
REMARK  11 active torsions:
REMARK  status: ('A' for Active; 'I' for Inactive)
REMARK    1  A    between atoms: N_1  and  C_2
REMARK    2  A    between atoms: C_2  and  C_4
REMARK    3  A    between atoms: C_2  and  C_20
REMARK    4  A    between atoms: C_4  and  C_5
REMARK    5  A    between atoms: C_5  and  S_6
REMARK    6  A    between atoms: S_6  and  C_7
REMARK    7  A    between atoms: C_7  and  C_8
REMARK    8  A    between atoms: C_11  and  O_13
REMARK    9  A    between atoms: C_14  and  O_16
REMARK   10  A    between atoms: C_17  and  O_19
REMARK   11  A    between atoms: C_20  and  O_21
REMARK                            x       y       z     vdW  Elec       q    Type
REMARK                         _______ _______ _______ _____ _____    ______ ____
ROOT
ATOM      1  C   UNK     1       8.356  -1.831  22.388  0.00  0.00    +0.103 C 
ENDROOT
BRANCH   1   2
ATOM      2  C   UNK     1       8.696  -0.526  23.110  0.00  0.00    +0.162 C 
ATOM      3  C   UNK     1       8.411   0.710  22.261  0.00  0.00    +0.177 C 
ATOM      4  C   UNK     1       9.465   1.720  22.728  0.00  0.00    +0.201 C 
ATOM      5  C   UNK     1      10.363   0.921  23.683  0.00  0.00    +0.279 C 
ATOM      6  O   UNK     1      10.104  -0.450  23.400  0.00  0.00    -0.342 OA
BRANCH   3   7
ATOM      7  O   UNK     1       7.079   1.174  22.457  0.00  0.00    -0.386 OA
ATOM      8  H   UNK     1       6.807   1.633  21.642  0.00  0.00    +0.210 HD
ENDBRANCH   3   7
BRANCH   4   9
ATOM      9  O   UNK     1      10.199   2.179  21.580  0.00  0.00    -0.384 OA
ATOM     10  H   UNK     1      10.525   3.077  21.773  0.00  0.00    +0.210 HD
ENDBRANCH   4   9
BRANCH   5  11
ATOM     11  O   UNK     1      10.016   1.170  25.033  0.00  0.00    -0.365 OA
ATOM     12  H   UNK     1       9.372   1.897  24.997  0.00  0.00    +0.213 HD
ENDBRANCH   5  11
ENDBRANCH   1   2
BRANCH   1  13
ATOM     13  S   UNK     1       6.994  -2.769  23.183  0.00  0.00    -0.158 S 
BRANCH  13  14
ATOM     14  C   UNK     1       7.929  -4.227  23.750  0.00  0.00    +0.071 C 
BRANCH  14  15
ATOM     15  C   UNK     1       9.145  -3.768  24.552  0.00  0.00    +0.040 C 
BRANCH  15  16
ATOM     16  C   UNK     1       9.428  -4.653  25.770  0.00  0.00    +0.161 C 
BRANCH  16  17
ATOM     17  N   UNK     1       9.809  -6.028  25.304  0.00  0.00    -0.318 NA
ATOM     18  H   UNK     1      10.261  -5.945  24.385  0.00  0.00    +0.119 HD
ATOM     19  H   UNK     1      10.568  -6.358  25.911  0.00  0.00    +0.119 HD
ENDBRANCH  16  17
BRANCH  16  20
ATOM     20  C   UNK     1       8.207  -4.790  26.705  0.00  0.00    +0.322 C 
ATOM     21  O   UNK     1       7.550  -3.864  27.157  0.00  0.00    -0.249 OA
BRANCH  20  22
ATOM     22  O   UNK     1       7.950  -6.091  26.993  0.00  0.00    -0.480 OA
ATOM     23  H   UNK     1       8.776  -6.433  27.417  0.00  0.00    +0.295 HD
ENDBRANCH  20  22
ENDBRANCH  16  20
ENDBRANCH  15  16
ENDBRANCH  14  15
ENDBRANCH  13  14
ENDBRANCH   1  13
TORSDOF 11
ENDMDL
MODEL 7
REMARK VINA RESULT:      -5.2      2.949      6.622
REMARK  Name = 
REMARK  11 active torsions:
REMARK  status: ('A' for Active; 'I' for Inactive)
REMARK    1  A    between atoms: N_1  and  C_2
REMARK    2  A    between atoms: C_2  and  C_4
REMARK    3  A    between atoms: C_2  and  C_20
REMARK    4  A    between atoms: C_4  and  C_5
REMARK    5  A    between atoms: C_5  and  S_6
REMARK    6  A    between atoms: S_6  and  C_7
REMARK    7  A    between atoms: C_7  and  C_8
REMARK    8  A    between atoms: C_11  and  O_13
REMARK    9  A    between atoms: C_14  and  O_16
REMARK   10  A    between atoms: C_17  and  O_19
REMARK   11  A    between atoms: C_20  and  O_21
REMARK                            x       y       z     vdW  Elec       q    Type
REMARK                         _______ _______ _______ _____ _____    ______ ____
ROOT
ATOM      1  C   UNK     1       8.135  -2.059  24.067  0.00  0.00    +0.103 C 
ENDROOT
BRANCH   1   2
ATOM      2  C   UNK     1       8.321  -3.556  24.324  0.00  0.00    +0.162 C 
ATOM      3  C   UNK     1       7.232  -4.140  25.220  0.00  0.00    +0.177 C 
ATOM      4  C   UNK     1       7.949  -5.268  25.971  0.00  0.00    +0.201 C 
ATOM      5  C   UNK     1       9.421  -5.124  25.561  0.00  0.00    +0.279 C 
ATOM      6  O   UNK     1       9.548  -3.808  25.033  0.00  0.00    -0.342 OA
BRANCH   3   7
ATOM      7  O   UNK     1       6.127  -4.605  24.452  0.00  0.00    -0.386 OA
ATOM      8  H   UNK     1       6.275  -5.552  24.273  0.00  0.00    +0.210 HD
ENDBRANCH   3   7
BRANCH   4   9
ATOM      9  O   UNK     1       7.775  -5.060  27.382  0.00  0.00    -0.384 OA
ATOM     10  H   UNK     1       6.825  -4.922  27.550  0.00  0.00    +0.210 HD
ENDBRANCH   4   9
BRANCH   5  11
ATOM     11  O   UNK     1       9.756  -6.048  24.541  0.00  0.00    -0.365 OA
ATOM     12  H   UNK     1       9.246  -5.761  23.765  0.00  0.00    +0.213 HD
ENDBRANCH   5  11
ENDBRANCH   1   2
BRANCH   1  13
ATOM     13  S   UNK     1       9.587  -1.273  23.266  0.00  0.00    -0.158 S 
BRANCH  13  14
ATOM     14  C   UNK     1      10.160  -0.230  24.646  0.00  0.00    +0.071 C 
BRANCH  14  15
ATOM     15  C   UNK     1      10.832   1.023  24.089  0.00  0.00    +0.040 C 
BRANCH  15  16
ATOM     16  C   UNK     1       9.910   2.247  24.088  0.00  0.00    +0.161 C 
BRANCH  16  17
ATOM     17  N   UNK     1       8.814   2.040  25.092  0.00  0.00    -0.318 NA
ATOM     18  H   UNK     1       9.098   2.478  25.977  0.00  0.00    +0.119 HD
ATOM     19  H   UNK     1       8.014   2.610  24.793  0.00  0.00    +0.119 HD
ENDBRANCH  16  17
BRANCH  16  20
ATOM     20  C   UNK     1       9.255   2.498  22.713  0.00  0.00    +0.322 C 
ATOM     21  O   UNK     1       8.128   2.933  22.530  0.00  0.00    -0.249 OA
BRANCH  20  22
ATOM     22  O   UNK     1      10.089   2.152  21.699  0.00  0.00    -0.480 OA
ATOM     23  H   UNK     1      10.590   2.977  21.479  0.00  0.00    +0.295 HD
ENDBRANCH  20  22
ENDBRANCH  16  20
ENDBRANCH  15  16
ENDBRANCH  14  15
ENDBRANCH  13  14
ENDBRANCH   1  13
TORSDOF 11
ENDMDL
MODEL 8
REMARK VINA RESULT:      -5.1      3.304      6.559
REMARK  Name = 
REMARK  11 active torsions:
REMARK  status: ('A' for Active; 'I' for Inactive)
REMARK    1  A    between atoms: N_1  and  C_2
REMARK    2  A    between atoms: C_2  and  C_4
REMARK    3  A    between atoms: C_2  and  C_20
REMARK    4  A    between atoms: C_4  and  C_5
REMARK    5  A    between atoms: C_5  and  S_6
REMARK    6  A    between atoms: S_6  and  C_7
REMARK    7  A    between atoms: C_7  and  C_8
REMARK    8  A    between atoms: C_11  and  O_13
REMARK    9  A    between atoms: C_14  and  O_16
REMARK   10  A    between atoms: C_17  and  O_19
REMARK   11  A    between atoms: C_20  and  O_21
REMARK                            x       y       z     vdW  Elec       q    Type
REMARK                         _______ _______ _______ _____ _____    ______ ____
ROOT
ATOM      1  C   UNK     1       9.686  -2.594  23.780  0.00  0.00    +0.103 C 
ENDROOT
BRANCH   1   2
ATOM      2  C   UNK     1       9.152  -3.710  24.680  0.00  0.00    +0.162 C 
ATOM      3  C   UNK     1       7.933  -4.412  24.088  0.00  0.00    +0.177 C 
ATOM      4  C   UNK     1       7.127  -4.836  25.321  0.00  0.00    +0.201 C 
ATOM      5  C   UNK     1       7.871  -4.198  26.502  0.00  0.00    +0.279 C 
ATOM      6  O   UNK     1       8.692  -3.181  25.937  0.00  0.00    -0.342 OA
BRANCH   3   7
ATOM      7  O   UNK     1       8.318  -5.515  23.275  0.00  0.00    -0.386 OA
ATOM      8  H   UNK     1       7.663  -5.591  22.558  0.00  0.00    +0.210 HD
ENDBRANCH   3   7
BRANCH   4   9
ATOM      9  O   UNK     1       5.793  -4.315  25.198  0.00  0.00    -0.384 OA
ATOM     10  H   UNK     1       5.392  -4.705  24.400  0.00  0.00    +0.210 HD
ENDBRANCH   4   9
BRANCH   5  11
ATOM     11  O   UNK     1       8.710  -5.142  27.144  0.00  0.00    -0.365 OA
ATOM     12  H   UNK     1       9.564  -4.690  27.245  0.00  0.00    +0.213 HD
ENDBRANCH   5  11
ENDBRANCH   1   2
BRANCH   1  13
ATOM     13  S   UNK     1       8.489  -2.056  22.498  0.00  0.00    -0.158 S 
BRANCH  13  14
ATOM     14  C   UNK     1       9.322  -0.538  21.930  0.00  0.00    +0.071 C 
BRANCH  14  15
ATOM     15  C   UNK     1       8.441   0.670  22.240  0.00  0.00    +0.040 C 
BRANCH  15  16
ATOM     16  C   UNK     1       9.228   1.857  22.804  0.00  0.00    +0.161 C 
BRANCH  16  17
ATOM     17  N   UNK     1      10.265   2.281  21.806  0.00  0.00    -0.318 NA
ATOM     18  H   UNK     1      11.099   2.593  22.318  0.00  0.00    +0.119 HD
ATOM     19  H   UNK     1      10.588   1.435  21.322  0.00  0.00    +0.119 HD
ENDBRANCH  16  17
BRANCH  16  20
ATOM     20  C   UNK     1       9.950   1.519  24.126  0.00  0.00    +0.322 C 
ATOM     21  O   UNK     1      11.122   1.193  24.233  0.00  0.00    -0.249 OA
BRANCH  20  22
ATOM     22  O   UNK     1       9.105   1.607  25.185  0.00  0.00    -0.480 OA
ATOM     23  H   UNK     1       8.849   2.562  25.237  0.00  0.00    +0.295 HD
ENDBRANCH  20  22
ENDBRANCH  16  20
ENDBRANCH  15  16
ENDBRANCH  14  15
ENDBRANCH  13  14
ENDBRANCH   1  13
TORSDOF 11
ENDMDL
MODEL 9
REMARK VINA RESULT:      -5.1      2.217      2.808
REMARK  Name = 
REMARK  11 active torsions:
REMARK  status: ('A' for Active; 'I' for Inactive)
REMARK    1  A    between atoms: N_1  and  C_2
REMARK    2  A    between atoms: C_2  and  C_4
REMARK    3  A    between atoms: C_2  and  C_20
REMARK    4  A    between atoms: C_4  and  C_5
REMARK    5  A    between atoms: C_5  and  S_6
REMARK    6  A    between atoms: S_6  and  C_7
REMARK    7  A    between atoms: C_7  and  C_8
REMARK    8  A    between atoms: C_11  and  O_13
REMARK    9  A    between atoms: C_14  and  O_16
REMARK   10  A    between atoms: C_17  and  O_19
REMARK   11  A    between atoms: C_20  and  O_21
REMARK                            x       y       z     vdW  Elec       q    Type
REMARK                         _______ _______ _______ _____ _____    ______ ____
ROOT
ATOM      1  C   UNK     1       7.601  -2.008  23.277  0.00  0.00    +0.103 C 
ENDROOT
BRANCH   1   2
ATOM      2  C   UNK     1       8.323  -0.926  22.471  0.00  0.00    +0.162 C 
ATOM      3  C   UNK     1       9.811  -0.843  22.796  0.00  0.00    +0.177 C 
ATOM      4  C   UNK     1      10.145   0.637  22.583  0.00  0.00    +0.201 C 
ATOM      5  C   UNK     1       8.787   1.300  22.315  0.00  0.00    +0.279 C 
ATOM      6  O   UNK     1       7.808   0.380  22.787  0.00  0.00    -0.342 OA
BRANCH   3   7
ATOM      7  O   UNK     1      10.571  -1.706  21.955  0.00  0.00    -0.386 OA
ATOM      8  H   UNK     1       9.941  -2.213  21.411  0.00  0.00    +0.210 HD
ENDBRANCH   3   7
BRANCH   4   9
ATOM      9  O   UNK     1      10.750   1.147  23.783  0.00  0.00    -0.384 OA
ATOM     10  H   UNK     1      11.670   0.827  23.813  0.00  0.00    +0.210 HD
ENDBRANCH   4   9
BRANCH   5  11
ATOM     11  O   UNK     1       8.582   1.495  20.927  0.00  0.00    -0.365 OA
ATOM     12  H   UNK     1       7.825   2.101  20.868  0.00  0.00    +0.213 HD
ENDBRANCH   5  11
ENDBRANCH   1   2
BRANCH   1  13
ATOM     13  S   UNK     1       7.375  -3.577  22.353  0.00  0.00    -0.158 S 
BRANCH  13  14
ATOM     14  C   UNK     1       7.659  -4.763  23.707  0.00  0.00    +0.071 C 
BRANCH  14  15
ATOM     15  C   UNK     1       7.328  -4.098  25.041  0.00  0.00    +0.040 C 
BRANCH  15  16
ATOM     16  C   UNK     1       7.958  -4.813  26.240  0.00  0.00    +0.161 C 
BRANCH  16  17
ATOM     17  N   UNK     1       9.173  -5.568  25.783  0.00  0.00    -0.318 NA
ATOM     18  H   UNK     1       9.154  -5.619  24.757  0.00  0.00    +0.119 HD
ATOM     19  H   UNK     1       9.990  -4.977  25.975  0.00  0.00    +0.119 HD
ENDBRANCH  16  17
BRANCH  16  20
ATOM     20  C   UNK     1       6.996  -5.821  26.907  0.00  0.00    +0.322 C 
ATOM     21  O   UNK     1       5.970  -6.260  26.411  0.00  0.00    -0.249 OA
BRANCH  20  22
ATOM     22  O   UNK     1       7.421  -6.157  28.152  0.00  0.00    -0.480 OA
ATOM     23  H   UNK     1       6.934  -5.553  28.766  0.00  0.00    +0.295 HD
ENDBRANCH  20  22
ENDBRANCH  16  20
ENDBRANCH  15  16
ENDBRANCH  14  15
ENDBRANCH  13  14
ENDBRANCH   1  13
TORSDOF 11
ENDMDL
