MODEL 1
REMARK VINA RESULT:      -6.4      0.000      0.000
REMARK  Name = 
REMARK  3 active torsions:
REMARK  status: ('A' for Active; 'I' for Inactive)
REMARK    1  A    between atoms: N_1  and  C_2
REMARK    2  A    between atoms: C_5  and  S_8
REMARK    3  A    between atoms: S_8  and  N_11
REMARK                            x       y       z     vdW  Elec       q    Type
REMARK                         _______ _______ _______ _____ _____    ______ ____
ROOT
ATOM      1  S   UNL     1       9.085  -2.182  23.751  0.00  0.00    +0.075 S 
ATOM      2  O   UNL     1       8.174  -2.118  24.871  0.00  0.00    -0.150 OA
ATOM      3  O   UNL     1      10.263  -3.028  23.810  0.00  0.00    -0.150 OA
ENDROOT
BRANCH   1   4
ATOM      4  N   UNL     1       8.282  -2.615  22.348  0.00  0.00    -0.184 N 
ATOM      5  H   UNL     1       7.989  -1.798  21.827  0.00  0.00    +0.177 HD
ATOM      6  C   UNL     1       7.219  -3.495  22.529  0.00  0.00    +0.235 A 
ATOM      7  N   UNL     1       7.493  -4.791  22.671  0.00  0.00    -0.222 NA
ATOM      8  C   UNL     1       6.429  -5.591  22.857  0.00  0.00    +0.116 A 
ATOM      9  C   UNL     1       5.136  -5.124  22.929  0.00  0.00    +0.039 A 
ATOM     10  C   UNL     1       4.987  -3.763  22.782  0.00  0.00    +0.116 A 
ATOM     11  N   UNL     1       6.016  -2.920  22.567  0.00  0.00    -0.222 NA
ENDBRANCH   1   4
BRANCH   1  15
ATOM     12  C   UNL     1      10.380   2.161  23.027  0.00  0.00    +0.025 A 
ATOM     13  C   UNL     1      10.573   1.563  24.277  0.00  0.00    +0.024 A 
ATOM     14  C   UNL     1      10.200   0.233  24.500  0.00  0.00    +0.030 A 
ATOM     15  C   UNL     1       9.675  -0.523  23.449  0.00  0.00    +0.109 A 
ATOM     16  C   UNL     1       9.520   0.048  22.182  0.00  0.00    +0.030 A 
ATOM     17  C   UNL     1       9.906   1.375  21.972  0.00  0.00    +0.024 A 
BRANCH  12  18
ATOM     18  N   UNL     1      10.855   3.455  22.784  0.00  0.00    -0.358 N 
ATOM     19  H   UNL     1      11.139   3.949  23.625  0.00  0.00    +0.142 HD
ATOM     20  H   UNL     1      10.232   4.016  22.211  0.00  0.00    +0.142 HD
ENDBRANCH  12  18
ENDBRANCH   1  15
TORSDOF 3
ENDMDL
MODEL 2
REMARK VINA RESULT:      -6.1      2.735      6.226
REMARK  Name = 
REMARK  3 active torsions:
REMARK  status: ('A' for Active; 'I' for Inactive)
REMARK    1  A    between atoms: N_1  and  C_2
REMARK    2  A    between atoms: C_5  and  S_8
REMARK    3  A    between atoms: S_8  and  N_11
REMARK                            x       y       z     vdW  Elec       q    Type
REMARK                         _______ _______ _______ _____ _____    ______ ____
ROOT
ATOM      1  S   UNL     1       7.778  -2.272  22.984  0.00  0.00    +0.075 S 
ATOM      2  O   UNL     1       7.066  -1.061  23.329  0.00  0.00    -0.150 OA
ATOM      3  O   UNL     1       7.366  -3.063  21.839  0.00  0.00    -0.150 OA
ENDROOT
BRANCH   1   4
ATOM      4  N   UNL     1       9.409  -1.970  22.768  0.00  0.00    -0.184 N 
ATOM      5  H   UNL     1       9.972  -2.551  23.375  0.00  0.00    +0.177 HD
ATOM      6  C   UNL     1       9.777  -0.632  22.881  0.00  0.00    +0.235 A 
ATOM      7  N   UNL     1       9.578   0.166  21.833  0.00  0.00    -0.222 NA
ATOM      8  C   UNL     1       9.939   1.449  22.005  0.00  0.00    +0.116 A 
ATOM      9  C   UNL     1      10.455   1.937  23.184  0.00  0.00    +0.039 A 
ATOM     10  C   UNL     1      10.598   1.015  24.196  0.00  0.00    +0.116 A 
ATOM     11  N   UNL     1      10.277  -0.287  24.069  0.00  0.00    -0.222 NA
ENDBRANCH   1   4
BRANCH   1  15
ATOM     12  C   UNL     1       7.672  -5.235  26.486  0.00  0.00    +0.025 A 
ATOM     13  C   UNL     1       8.722  -4.319  26.365  0.00  0.00    +0.024 A 
ATOM     14  C   UNL     1       8.752  -3.398  25.311  0.00  0.00    +0.030 A 
ATOM     15  C   UNL     1       7.695  -3.359  24.399  0.00  0.00    +0.109 A 
ATOM     16  C   UNL     1       6.616  -4.237  24.536  0.00  0.00    +0.030 A 
ATOM     17  C   UNL     1       6.596  -5.146  25.598  0.00  0.00    +0.024 A 
BRANCH  12  18
ATOM     18  N   UNL     1       7.597  -6.078  27.602  0.00  0.00    -0.358 N 
ATOM     19  H   UNL     1       7.515  -7.062  27.364  0.00  0.00    +0.142 HD
ATOM     20  H   UNL     1       6.894  -5.795  28.278  0.00  0.00    +0.142 HD
ENDBRANCH  12  18
ENDBRANCH   1  15
TORSDOF 3
ENDMDL
MODEL 3
REMARK VINA RESULT:      -6.0      2.404      2.785
REMARK  Name = 
REMARK  3 active torsions:
REMARK  status: ('A' for Active; 'I' for Inactive)
REMARK    1  A    between atoms: N_1  and  C_2
REMARK    2  A    between atoms: C_5  and  S_8
REMARK    3  A    between atoms: S_8  and  N_11
REMARK                            x       y       z     vdW  Elec       q    Type
REMARK                         _______ _______ _______ _____ _____    ______ ____
ROOT
ATOM      1  S   UNL     1       9.047  -1.792  22.893  0.00  0.00    +0.075 S 
ATOM      2  O   UNL     1       9.242  -2.264  21.541  0.00  0.00    -0.150 OA
ATOM      3  O   UNL     1       7.714  -1.737  23.466  0.00  0.00    -0.150 OA
ENDROOT
BRANCH   1   4
ATOM      4  N   UNL     1       9.974  -2.669  23.975  0.00  0.00    -0.184 N 
ATOM      5  H   UNL     1      10.698  -3.192  23.498  0.00  0.00    +0.177 HD
ATOM      6  C   UNL     1       9.251  -3.494  24.831  0.00  0.00    +0.235 A 
ATOM      7  N   UNL     1       8.677  -2.943  25.901  0.00  0.00    -0.222 NA
ATOM      8  C   UNL     1       7.981  -3.786  26.683  0.00  0.00    +0.116 A 
ATOM      9  C   UNL     1       7.830  -5.125  26.405  0.00  0.00    +0.039 A 
ATOM     10  C   UNL     1       8.458  -5.569  25.263  0.00  0.00    +0.116 A 
ATOM     11  N   UNL     1       9.190  -4.774  24.458  0.00  0.00    -0.222 NA
ENDBRANCH   1   4
BRANCH   1  15
ATOM     12  C   UNL     1      10.491   2.555  23.162  0.00  0.00    +0.025 A 
ATOM     13  C   UNL     1      10.618   1.697  24.260  0.00  0.00    +0.024 A 
ATOM     14  C   UNL     1      10.199   0.365  24.180  0.00  0.00    +0.030 A 
ATOM     15  C   UNL     1       9.695  -0.129  22.974  0.00  0.00    +0.109 A 
ATOM     16  C   UNL     1       9.606   0.705  21.856  0.00  0.00    +0.030 A 
ATOM     17  C   UNL     1      10.037   2.031  21.948  0.00  0.00    +0.024 A 
BRANCH  12  18
ATOM     18  N   UNL     1      11.012   3.854  23.219  0.00  0.00    -0.358 N 
ATOM     19  H   UNL     1      10.731   4.439  22.437  0.00  0.00    +0.142 HD
ATOM     20  H   UNL     1      12.016   3.883  23.368  0.00  0.00    +0.142 HD
ENDBRANCH  12  18
ENDBRANCH   1  15
TORSDOF 3
ENDMDL
MODEL 4
REMARK VINA RESULT:      -5.9      1.767      6.196
REMARK  Name = 
REMARK  3 active torsions:
REMARK  status: ('A' for Active; 'I' for Inactive)
REMARK    1  A    between atoms: N_1  and  C_2
REMARK    2  A    between atoms: C_5  and  S_8
REMARK    3  A    between atoms: S_8  and  N_11
REMARK                            x       y       z     vdW  Elec       q    Type
REMARK                         _______ _______ _______ _____ _____    ______ ____
ROOT
ATOM      1  S   UNL     1       8.732  -2.208  24.461  0.00  0.00    +0.075 S 
ATOM      2  O   UNL     1      10.068  -2.178  23.911  0.00  0.00    -0.150 OA
ATOM      3  O   UNL     1       8.521  -2.537  25.860  0.00  0.00    -0.150 OA
ENDROOT
BRANCH   1   4
ATOM      4  N   UNL     1       7.947  -0.752  24.212  0.00  0.00    -0.184 N 
ATOM      5  H   UNL     1       7.109  -0.878  23.658  0.00  0.00    +0.177 HD
ATOM      6  C   UNL     1       8.742   0.260  23.682  0.00  0.00    +0.235 A 
ATOM      7  N   UNL     1       9.542   0.931  24.511  0.00  0.00    -0.222 NA
ATOM      8  C   UNL     1      10.296   1.886  23.941  0.00  0.00    +0.116 A 
ATOM      9  C   UNL     1      10.285   2.153  22.591  0.00  0.00    +0.039 A 
ATOM     10  C   UNL     1       9.428   1.380  21.840  0.00  0.00    +0.116 A 
ATOM     11  N   UNL     1       8.630   0.429  22.363  0.00  0.00    -0.222 NA
ENDBRANCH   1   4
BRANCH   1  15
ATOM     12  C   UNL     1       6.494  -5.263  21.870  0.00  0.00    +0.025 A 
ATOM     13  C   UNL     1       7.384  -5.691  22.861  0.00  0.00    +0.024 A 
ATOM     14  C   UNL     1       8.055  -4.767  23.669  0.00  0.00    +0.030 A 
ATOM     15  C   UNL     1       7.795  -3.403  23.520  0.00  0.00    +0.109 A 
ATOM     16  C   UNL     1       6.873  -2.964  22.565  0.00  0.00    +0.030 A 
ATOM     17  C   UNL     1       6.203  -3.899  21.771  0.00  0.00    +0.024 A 
BRANCH  12  18
ATOM     18  N   UNL     1       5.748  -6.197  21.142  0.00  0.00    -0.358 N 
ATOM     19  H   UNL     1       5.244  -5.794  20.357  0.00  0.00    +0.142 HD
ATOM     20  H   UNL     1       5.142  -6.774  21.719  0.00  0.00    +0.142 HD
ENDBRANCH  12  18
ENDBRANCH   1  15
TORSDOF 3
ENDMDL
MODEL 5
REMARK VINA RESULT:      -5.9      3.078      6.565
REMARK  Name = 
REMARK  3 active torsions:
REMARK  status: ('A' for Active; 'I' for Inactive)
REMARK    1  A    between atoms: N_1  and  C_2
REMARK    2  A    between atoms: C_5  and  S_8
REMARK    3  A    between atoms: S_8  and  N_11
REMARK                            x       y       z     vdW  Elec       q    Type
REMARK                         _______ _______ _______ _____ _____    ______ ____
ROOT
ATOM      1  S   UNL     1       9.273  -1.350  23.985  0.00  0.00    +0.075 S 
ATOM      2  O   UNL     1       8.053  -0.874  23.375  0.00  0.00    -0.150 OA
ATOM      3  O   UNL     1      10.381  -1.797  23.160  0.00  0.00    -0.150 OA
ENDROOT
BRANCH   1   4
ATOM      4  N   UNL     1       9.912  -0.206  25.026  0.00  0.00    -0.184 N 
ATOM      5  H   UNL     1       9.537  -0.311  25.960  0.00  0.00    +0.177 HD
ATOM      6  C   UNL     1       9.796   1.111  24.591  0.00  0.00    +0.235 A 
ATOM      7  N   UNL     1      10.676   1.558  23.696  0.00  0.00    -0.222 NA
ATOM      8  C   UNL     1      10.506   2.832  23.303  0.00  0.00    +0.116 A 
ATOM      9  C   UNL     1       9.483   3.632  23.756  0.00  0.00    +0.039 A 
ATOM     10  C   UNL     1       8.631   3.049  24.667  0.00  0.00    +0.116 A 
ATOM     11  N   UNL     1       8.771   1.786  25.114  0.00  0.00    -0.222 NA
ENDBRANCH   1   4
BRANCH   1  15
ATOM     12  C   UNL     1       7.982  -4.952  26.518  0.00  0.00    +0.025 A 
ATOM     13  C   UNL     1       8.996  -5.085  25.564  0.00  0.00    +0.024 A 
ATOM     14  C   UNL     1       9.410  -3.987  24.801  0.00  0.00    +0.030 A 
ATOM     15  C   UNL     1       8.840  -2.732  25.031  0.00  0.00    +0.109 A 
ATOM     16  C   UNL     1       7.859  -2.576  26.015  0.00  0.00    +0.030 A 
ATOM     17  C   UNL     1       7.462  -3.680  26.775  0.00  0.00    +0.024 A 
BRANCH  12  18
ATOM     18  N   UNL     1       7.652  -6.029  27.350  0.00  0.00    -0.358 N 
ATOM     19  H   UNL     1       6.814  -5.875  27.903  0.00  0.00    +0.142 HD
ATOM     20  H   UNL     1       8.426  -6.353  27.923  0.00  0.00    +0.142 HD
ENDBRANCH  12  18
ENDBRANCH   1  15
TORSDOF 3
ENDMDL
MODEL 6
REMARK VINA RESULT:      -5.9      1.870      6.031
REMARK  Name = 
REMARK  3 active torsions:
REMARK  status: ('A' for Active; 'I' for Inactive)
REMARK    1  A    between atoms: N_1  and  C_2
REMARK    2  A    between atoms: C_5  and  S_8
REMARK    3  A    between atoms: S_8  and  N_11
REMARK                            x       y       z     vdW  Elec       q    Type
REMARK                         _______ _______ _______ _____ _____    ______ ____
ROOT
ATOM      1  S   UNL     1       8.328  -2.027  24.877  0.00  0.00    +0.075 S 
ATOM      2  O   UNL     1       8.440  -2.695  26.154  0.00  0.00    -0.150 OA
ATOM      3  O   UNL     1       7.562  -0.800  24.756  0.00  0.00    -0.150 OA
ENDROOT
BRANCH   1   4
ATOM      4  N   UNL     1       9.838  -1.688  24.241  0.00  0.00    -0.184 N 
ATOM      5  H   UNL     1      10.555  -1.741  24.954  0.00  0.00    +0.177 HD
ATOM      6  C   UNL     1       9.922  -0.487  23.542  0.00  0.00    +0.235 A 
ATOM      7  N   UNL     1       9.481  -0.459  22.285  0.00  0.00    -0.222 NA
ATOM      8  C   UNL     1       9.575   0.730  21.665  0.00  0.00    +0.116 A 
ATOM      9  C   UNL     1      10.063   1.863  22.274  0.00  0.00    +0.039 A 
ATOM     10  C   UNL     1      10.472   1.707  23.579  0.00  0.00    +0.116 A 
ATOM     11  N   UNL     1      10.425   0.533  24.239  0.00  0.00    -0.222 NA
ENDBRANCH   1   4
BRANCH   1  15
ATOM     12  C   UNL     1       6.628  -4.956  21.780  0.00  0.00    +0.025 A 
ATOM     13  C   UNL     1       7.484  -5.410  22.788  0.00  0.00    +0.024 A 
ATOM     14  C   UNL     1       7.991  -4.527  23.749  0.00  0.00    +0.030 A 
ATOM     15  C   UNL     1       7.597  -3.187  23.731  0.00  0.00    +0.109 A 
ATOM     16  C   UNL     1       6.704  -2.730  22.757  0.00  0.00    +0.030 A 
ATOM     17  C   UNL     1       6.199  -3.625  21.810  0.00  0.00    +0.024 A 
BRANCH  12  18
ATOM     18  N   UNL     1       6.042  -5.865  20.891  0.00  0.00    -0.358 N 
ATOM     19  H   UNL     1       5.964  -5.513  19.941  0.00  0.00    +0.142 HD
ATOM     20  H   UNL     1       5.161  -6.248  21.222  0.00  0.00    +0.142 HD
ENDBRANCH  12  18
ENDBRANCH   1  15
TORSDOF 3
ENDMDL
MODEL 7
REMARK VINA RESULT:      -5.9      2.361      2.794
REMARK  Name = 
REMARK  3 active torsions:
REMARK  status: ('A' for Active; 'I' for Inactive)
REMARK    1  A    between atoms: N_1  and  C_2
REMARK    2  A    between atoms: C_5  and  S_8
REMARK    3  A    between atoms: S_8  and  N_11
REMARK                            x       y       z     vdW  Elec       q    Type
REMARK                         _______ _______ _______ _____ _____    ______ ____
ROOT
ATOM      1  S   UNL     1       9.954   0.038  24.455  0.00  0.00    +0.075 S 
ATOM      2  O   UNL     1       9.026  -0.410  25.469  0.00  0.00    -0.150 OA
ATOM      3  O   UNL     1      11.300   0.443  24.819  0.00  0.00    -0.150 OA
ENDROOT
BRANCH   1   4
ATOM      4  N   UNL     1      10.133  -1.112  23.253  0.00  0.00    -0.184 N 
ATOM      5  H   UNL     1       9.958  -0.716  22.338  0.00  0.00    +0.177 HD
ATOM      6  C   UNL     1       9.391  -2.275  23.440  0.00  0.00    +0.235 A 
ATOM      7  N   UNL     1       9.867  -3.197  24.276  0.00  0.00    -0.222 NA
ATOM      8  C   UNL     1       9.101  -4.292  24.427  0.00  0.00    +0.116 A 
ATOM      9  C   UNL     1       7.890  -4.459  23.795  0.00  0.00    +0.039 A 
ATOM     10  C   UNL     1       7.503  -3.428  22.970  0.00  0.00    +0.116 A 
ATOM     11  N   UNL     1       8.243  -2.322  22.762  0.00  0.00    -0.222 NA
ENDBRANCH   1   4
BRANCH   1  15
ATOM     12  C   UNL     1       7.843   3.597  22.472  0.00  0.00    +0.025 A 
ATOM     13  C   UNL     1       8.574   3.775  23.651  0.00  0.00    +0.024 A 
ATOM     14  C   UNL     1       9.237   2.699  24.252  0.00  0.00    +0.030 A 
ATOM     15  C   UNL     1       9.213   1.444  23.639  0.00  0.00    +0.109 A 
ATOM     16  C   UNL     1       8.526   1.263  22.435  0.00  0.00    +0.030 A 
ATOM     17  C   UNL     1       7.875   2.349  21.842  0.00  0.00    +0.024 A 
BRANCH  12  18
ATOM     18  N   UNL     1       7.274   4.700  21.822  0.00  0.00    -0.358 N 
ATOM     19  H   UNL     1       7.958   5.320  21.398  0.00  0.00    +0.142 HD
ATOM     20  H   UNL     1       6.609   5.210  22.395  0.00  0.00    +0.142 HD
ENDBRANCH  12  18
ENDBRANCH   1  15
TORSDOF 3
ENDMDL
MODEL 8
REMARK VINA RESULT:      -5.8      2.383      2.972
REMARK  Name = 
REMARK  3 active torsions:
REMARK  status: ('A' for Active; 'I' for Inactive)
REMARK    1  A    between atoms: N_1  and  C_2
REMARK    2  A    between atoms: C_5  and  S_8
REMARK    3  A    between atoms: S_8  and  N_11
REMARK                            x       y       z     vdW  Elec       q    Type
REMARK                         _______ _______ _______ _____ _____    ______ ____
ROOT
ATOM      1  S   UNL     1       9.094  -2.222  23.969  0.00  0.00    +0.075 S 
ATOM      2  O   UNL     1      10.295  -3.013  23.821  0.00  0.00    -0.150 OA
ATOM      3  O   UNL     1       7.916  -2.521  23.175  0.00  0.00    -0.150 OA
ENDROOT
BRANCH   1   4
ATOM      4  N   UNL     1       8.580  -2.200  25.561  0.00  0.00    -0.184 N 
ATOM      5  H   UNL     1       9.355  -2.047  26.194  0.00  0.00    +0.177 HD
ATOM      6  C   UNL     1       7.834  -3.309  25.950  0.00  0.00    +0.235 A 
ATOM      7  N   UNL     1       6.543  -3.345  25.623  0.00  0.00    -0.222 NA
ATOM      8  C   UNL     1       5.877  -4.446  26.013  0.00  0.00    +0.116 A 
ATOM      9  C   UNL     1       6.473  -5.492  26.680  0.00  0.00    +0.039 A 
ATOM     10  C   UNL     1       7.815  -5.340  26.946  0.00  0.00    +0.116 A 
ATOM     11  N   UNL     1       8.523  -4.247  26.602  0.00  0.00    -0.222 NA
ENDBRANCH   1   4
BRANCH   1  15
ATOM     12  C   UNL     1      10.432   2.060  23.001  0.00  0.00    +0.025 A 
ATOM     13  C   UNL     1       9.938   1.227  21.991  0.00  0.00    +0.024 A 
ATOM     14  C   UNL     1       9.509  -0.073  22.281  0.00  0.00    +0.030 A 
ATOM     15  C   UNL     1       9.526  -0.527  23.602  0.00  0.00    +0.109 A 
ATOM     16  C   UNL     1       9.973   0.311  24.627  0.00  0.00    +0.030 A 
ATOM     17  C   UNL     1      10.390   1.611  24.324  0.00  0.00    +0.024 A 
BRANCH  12  18
ATOM     18  N   UNL     1      10.756   3.392  22.719  0.00  0.00    -0.358 N 
ATOM     19  H   UNL     1      10.066   3.867  22.143  0.00  0.00    +0.142 HD
ATOM     20  H   UNL     1      11.697   3.514  22.355  0.00  0.00    +0.142 HD
ENDBRANCH  12  18
ENDBRANCH   1  15
TORSDOF 3
ENDMDL
MODEL 9
REMARK VINA RESULT:      -5.8      1.470      1.940
REMARK  Name = 
REMARK  3 active torsions:
REMARK  status: ('A' for Active; 'I' for Inactive)
REMARK    1  A    between atoms: N_1  and  C_2
REMARK    2  A    between atoms: C_5  and  S_8
REMARK    3  A    between atoms: S_8  and  N_11
REMARK                            x       y       z     vdW  Elec       q    Type
REMARK                         _______ _______ _______ _____ _____    ______ ____
ROOT
ATOM      1  S   UNL     1       7.938  -2.250  24.874  0.00  0.00    +0.075 S 
ATOM      2  O   UNL     1       6.496  -2.149  24.834  0.00  0.00    -0.150 OA
ATOM      3  O   UNL     1       8.635  -2.284  26.147  0.00  0.00    -0.150 OA
ENDROOT
BRANCH   1   4
ATOM      4  N   UNL     1       8.470  -3.590  24.026  0.00  0.00    -0.184 N 
ATOM      5  H   UNL     1       9.187  -3.339  23.357  0.00  0.00    +0.177 HD
ATOM      6  C   UNL     1       7.465  -4.336  23.418  0.00  0.00    +0.235 A 
ATOM      7  N   UNL     1       6.774  -5.193  24.169  0.00  0.00    -0.222 NA
ATOM      8  C   UNL     1       5.807  -5.874  23.531  0.00  0.00    +0.116 A 
ATOM      9  C   UNL     1       5.512  -5.696  22.199  0.00  0.00    +0.039 A 
ATOM     10  C   UNL     1       6.287  -4.772  21.536  0.00  0.00    +0.116 A 
ATOM     11  N   UNL     1       7.285  -4.081  22.120  0.00  0.00    -0.222 NA
ENDBRANCH   1   4
BRANCH   1  15
ATOM     12  C   UNL     1       9.748   1.193  22.441  0.00  0.00    +0.025 A 
ATOM     13  C   UNL     1       8.493   0.673  22.107  0.00  0.00    +0.024 A 
ATOM     14  C   UNL     1       7.925  -0.363  22.856  0.00  0.00    +0.030 A 
ATOM     15  C   UNL     1       8.595  -0.849  23.981  0.00  0.00    +0.109 A 
ATOM     16  C   UNL     1       9.828  -0.307  24.353  0.00  0.00    +0.030 A 
ATOM     17  C   UNL     1      10.380   0.734  23.601  0.00  0.00    +0.024 A 
BRANCH  12  18
ATOM     18  N   UNL     1      10.258   2.300  21.752  0.00  0.00    -0.358 N 
ATOM     19  H   UNL     1       9.570   3.030  21.587  0.00  0.00    +0.142 HD
ATOM     20  H   UNL     1      10.758   2.056  20.902  0.00  0.00    +0.142 HD
ENDBRANCH  12  18
ENDBRANCH   1  15
TORSDOF 3
ENDMDL
