MODEL 1
REMARK VINA RESULT:      -7.5      0.000      0.000
REMARK  Name = 
REMARK  6 active torsions:
REMARK  status: ('A' for Active; 'I' for Inactive)
REMARK    1  A    between atoms: C_2  and  N_3
REMARK    2  A    between atoms: C_8  and  N_10
REMARK    3  A    between atoms: C_13  and  N_14
REMARK    4  A    between atoms: N_14  and  C_15
REMARK    5  A    between atoms: C_19  and  C_20
REMARK    6  A    between atoms: C_22  and  C_25
REMARK                            x       y       z     vdW  Elec       q    Type
REMARK                         _______ _______ _______ _____ _____    ______ ____
ROOT
ATOM      1  N   UNL     1       9.312  -0.163  23.751  0.00  0.00    -0.309 N 
ATOM      2  H   UNL     1       9.624  -0.533  22.866  0.00  0.00    +0.149 HD
ATOM      3  C   UNL     1       9.170  -1.157  24.684  0.00  0.00    +0.217 A 
ATOM      4  N   UNL     1       8.892  -0.900  25.963  0.00  0.00    -0.222 NA
ATOM      5  C   UNL     1       8.450  -1.948  26.697  0.00  0.00    +0.131 A 
ATOM      6  C   UNL     1       8.260  -3.217  26.188  0.00  0.00    +0.095 A 
ATOM      7  C   UNL     1       8.715  -3.427  24.906  0.00  0.00    +0.140 A 
ATOM      8  N   UNL     1       9.184  -2.390  24.176  0.00  0.00    -0.199 NA
ENDROOT
BRANCH   1  10
ATOM      9  C   UNL     1      10.440   1.907  22.977  0.00  0.00    +0.071 C 
ATOM     10  C   UNL     1       9.637   1.207  24.107  0.00  0.00    +0.090 C 
ATOM     11  C   UNL     1       8.317   1.956  24.385  0.00  0.00    +0.024 C 
ATOM     12  C   UNL     1       8.525   3.444  24.670  0.00  0.00    +0.002 C 
ATOM     13  C   UNL     1       9.412   4.143  23.641  0.00  0.00    +0.002 C 
ATOM     14  C   UNL     1      10.699   3.366  23.373  0.00  0.00    +0.020 C 
BRANCH   9  15
ATOM     15  N   UNL     1       9.771   1.838  21.659  0.00  0.00    -0.326 NA
ATOM     16  H   UNL     1       8.803   2.136  21.779  0.00  0.00    +0.119 HD
ATOM     17  H   UNL     1      10.196   2.496  21.007  0.00  0.00    +0.119 HD
ENDBRANCH   9  15
ENDBRANCH   1  10
BRANCH   6  18
ATOM     18  C   UNL     1       7.465  -4.186  26.954  0.00  0.00    +0.246 C 
ATOM     19  O   UNL     1       7.939  -5.264  27.298  0.00  0.00    -0.270 OA
ATOM     20  N   UNL     1       6.210  -3.797  27.337  0.00  0.00    -0.325 N 
ATOM     21  H   UNL     1       5.702  -4.373  27.989  0.00  0.00    +0.145 HD
ATOM     22  H   UNL     1       5.847  -2.870  27.134  0.00  0.00    +0.145 HD
ENDBRANCH   6  18
BRANCH   7  23
ATOM     23  N   UNL     1       8.615  -4.707  24.296  0.00  0.00    -0.299 N 
ATOM     24  H   UNL     1       9.512  -5.019  23.937  0.00  0.00    +0.154 HD
BRANCH  23  25
ATOM     25  C   UNL     1       7.522  -5.131  23.499  0.00  0.00    +0.033 A 
ATOM     26  C   UNL     1       6.210  -4.940  23.946  0.00  0.00    +0.026 A 
ATOM     27  C   UNL     1       5.112  -5.137  23.111  0.00  0.00    -0.049 A 
ATOM     28  C   UNL     1       3.796  -4.557  23.531  0.00  0.00    +0.044 C 
ATOM     29  C   UNL     1       5.319  -5.705  21.856  0.00  0.00    +0.003 A 
ATOM     30  C   UNL     1       6.612  -6.044  21.447  0.00  0.00    +0.002 A 
ATOM     31  C   UNL     1       7.713  -5.742  22.259  0.00  0.00    +0.023 A 
ENDBRANCH  23  25
ENDBRANCH   7  23
TORSDOF 5
ENDMDL
MODEL 2
REMARK VINA RESULT:      -7.4      2.143      3.588
REMARK  Name = 
REMARK  6 active torsions:
REMARK  status: ('A' for Active; 'I' for Inactive)
REMARK    1  A    between atoms: C_2  and  N_3
REMARK    2  A    between atoms: C_8  and  N_10
REMARK    3  A    between atoms: C_13  and  N_14
REMARK    4  A    between atoms: N_14  and  C_15
REMARK    5  A    between atoms: C_19  and  C_20
REMARK    6  A    between atoms: C_22  and  C_25
REMARK                            x       y       z     vdW  Elec       q    Type
REMARK                         _______ _______ _______ _____ _____    ______ ____
ROOT
ATOM      1  N   UNL     1       9.385  -0.574  24.171  0.00  0.00    -0.309 N 
ATOM      2  H   UNL     1       9.679  -0.719  25.125  0.00  0.00    +0.149 HD
ATOM      3  C   UNL     1       8.529  -1.561  23.757  0.00  0.00    +0.217 A 
ATOM      4  N   UNL     1       7.905  -1.516  22.579  0.00  0.00    -0.222 NA
ATOM      5  C   UNL     1       7.366  -2.681  22.148  0.00  0.00    +0.131 A 
ATOM      6  C   UNL     1       7.454  -3.872  22.841  0.00  0.00    +0.095 A 
ATOM      7  C   UNL     1       7.978  -3.792  24.111  0.00  0.00    +0.140 A 
ATOM      8  N   UNL     1       8.494  -2.625  24.560  0.00  0.00    -0.199 NA
ENDROOT
BRANCH   1  10
ATOM      9  C   UNL     1       8.169   1.588  24.240  0.00  0.00    +0.071 C 
ATOM     10  C   UNL     1       9.345   0.775  23.633  0.00  0.00    +0.090 C 
ATOM     11  C   UNL     1      10.696   1.455  23.942  0.00  0.00    +0.024 C 
ATOM     12  C   UNL     1      10.736   2.922  23.515  0.00  0.00    +0.002 C 
ATOM     13  C   UNL     1       9.530   3.729  23.993  0.00  0.00    +0.002 C 
ATOM     14  C   UNL     1       8.211   3.021  23.691  0.00  0.00    +0.020 C 
BRANCH   9  15
ATOM     15  N   UNL     1       8.169   1.599  25.719  0.00  0.00    -0.326 NA
ATOM     16  H   UNL     1       8.514   2.508  26.029  0.00  0.00    +0.119 HD
ATOM     17  H   UNL     1       7.220   1.513  26.078  0.00  0.00    +0.119 HD
ENDBRANCH   9  15
ENDBRANCH   1  10
BRANCH   6  18
ATOM     18  C   UNL     1       7.149  -5.130  22.148  0.00  0.00    +0.246 C 
ATOM     19  O   UNL     1       7.761  -6.162  22.407  0.00  0.00    -0.270 OA
ATOM     20  N   UNL     1       6.100  -5.117  21.269  0.00  0.00    -0.325 N 
ATOM     21  H   UNL     1       5.769  -5.993  20.896  0.00  0.00    +0.145 HD
ATOM     22  H   UNL     1       5.530  -4.289  21.120  0.00  0.00    +0.145 HD
ENDBRANCH   6  18
BRANCH   7  23
ATOM     23  N   UNL     1       8.074  -4.947  24.936  0.00  0.00    -0.299 N 
ATOM     24  H   UNL     1       8.487  -5.727  24.435  0.00  0.00    +0.154 HD
BRANCH  23  25
ATOM     25  C   UNL     1       7.086  -5.349  25.869  0.00  0.00    +0.033 A 
ATOM     26  C   UNL     1       5.843  -5.811  25.423  0.00  0.00    +0.026 A 
ATOM     27  C   UNL     1       4.931  -6.417  26.284  0.00  0.00    -0.049 A 
ATOM     28  C   UNL     1       3.815  -7.213  25.680  0.00  0.00    +0.044 C 
ATOM     29  C   UNL     1       5.192  -6.404  27.653  0.00  0.00    +0.003 A 
ATOM     30  C   UNL     1       6.362  -5.812  28.135  0.00  0.00    +0.002 A 
ATOM     31  C   UNL     1       7.316  -5.301  27.245  0.00  0.00    +0.023 A 
ENDBRANCH  23  25
ENDBRANCH   7  23
TORSDOF 5
ENDMDL
MODEL 3
REMARK VINA RESULT:      -7.3      2.616      4.063
REMARK  Name = 
REMARK  6 active torsions:
REMARK  status: ('A' for Active; 'I' for Inactive)
REMARK    1  A    between atoms: C_2  and  N_3
REMARK    2  A    between atoms: C_8  and  N_10
REMARK    3  A    between atoms: C_13  and  N_14
REMARK    4  A    between atoms: N_14  and  C_15
REMARK    5  A    between atoms: C_19  and  C_20
REMARK    6  A    between atoms: C_22  and  C_25
REMARK                            x       y       z     vdW  Elec       q    Type
REMARK                         _______ _______ _______ _____ _____    ______ ____
ROOT
ATOM      1  N   UNL     1       8.629  -1.264  24.080  0.00  0.00    -0.309 N 
ATOM      2  H   UNL     1       9.034  -1.524  24.967  0.00  0.00    +0.149 HD
ATOM      3  C   UNL     1       7.572  -2.074  23.758  0.00  0.00    +0.217 A 
ATOM      4  N   UNL     1       6.796  -1.846  22.697  0.00  0.00    -0.222 NA
ATOM      5  C   UNL     1       6.016  -2.879  22.299  0.00  0.00    +0.131 A 
ATOM      6  C   UNL     1       6.011  -4.118  22.909  0.00  0.00    +0.095 A 
ATOM      7  C   UNL     1       6.723  -4.215  24.083  0.00  0.00    +0.140 A 
ATOM      8  N   UNL     1       7.483  -3.178  24.502  0.00  0.00    -0.199 NA
ENDROOT
BRANCH   1  10
ATOM      9  C   UNL     1       9.242   1.044  24.758  0.00  0.00    +0.071 C 
ATOM     10  C   UNL     1       8.731   0.112  23.625  0.00  0.00    +0.090 C 
ATOM     11  C   UNL     1       9.688   0.147  22.414  0.00  0.00    +0.024 C 
ATOM     12  C   UNL     1       9.958   1.565  21.910  0.00  0.00    +0.002 C 
ATOM     13  C   UNL     1      10.348   2.542  23.018  0.00  0.00    +0.002 C 
ATOM     14  C   UNL     1       9.394   2.468  24.208  0.00  0.00    +0.020 C 
BRANCH   9  15
ATOM     15  N   UNL     1      10.510   0.583  25.364  0.00  0.00    -0.326 NA
ATOM     16  H   UNL     1      10.297   0.183  26.279  0.00  0.00    +0.119 HD
ATOM     17  H   UNL     1      10.920  -0.168  24.811  0.00  0.00    +0.119 HD
ENDBRANCH   9  15
ENDBRANCH   1  10
BRANCH   6  18
ATOM     18  C   UNL     1       5.405  -5.258  22.210  0.00  0.00    +0.246 C 
ATOM     19  O   UNL     1       4.314  -5.705  22.552  0.00  0.00    -0.270 OA
ATOM     20  N   UNL     1       6.067  -5.741  21.115  0.00  0.00    -0.325 N 
ATOM     21  H   UNL     1       5.605  -6.417  20.527  0.00  0.00    +0.145 HD
ATOM     22  H   UNL     1       6.924  -5.316  20.771  0.00  0.00    +0.145 HD
ENDBRANCH   6  18
BRANCH   7  23
ATOM     23  N   UNL     1       6.750  -5.429  24.822  0.00  0.00    -0.299 N 
ATOM     24  H   UNL     1       6.690  -6.237  24.210  0.00  0.00    +0.154 HD
BRANCH  23  25
ATOM     25  C   UNL     1       6.097  -5.624  26.065  0.00  0.00    +0.033 A 
ATOM     26  C   UNL     1       4.720  -5.868  26.106  0.00  0.00    +0.026 A 
ATOM     27  C   UNL     1       4.080  -6.280  27.272  0.00  0.00    -0.049 A 
ATOM     28  C   UNL     1       2.712  -6.877  27.150  0.00  0.00    +0.044 C 
ATOM     29  C   UNL     1       4.798  -6.280  28.466  0.00  0.00    +0.003 A 
ATOM     30  C   UNL     1       6.142  -5.895  28.473  0.00  0.00    +0.002 A 
ATOM     31  C   UNL     1       6.796  -5.585  27.273  0.00  0.00    +0.023 A 
ENDBRANCH  23  25
ENDBRANCH   7  23
TORSDOF 5
ENDMDL
MODEL 4
REMARK VINA RESULT:      -7.2      1.670      2.030
REMARK  Name = 
REMARK  6 active torsions:
REMARK  status: ('A' for Active; 'I' for Inactive)
REMARK    1  A    between atoms: C_2  and  N_3
REMARK    2  A    between atoms: C_8  and  N_10
REMARK    3  A    between atoms: C_13  and  N_14
REMARK    4  A    between atoms: N_14  and  C_15
REMARK    5  A    between atoms: C_19  and  C_20
REMARK    6  A    between atoms: C_22  and  C_25
REMARK                            x       y       z     vdW  Elec       q    Type
REMARK                         _______ _______ _______ _____ _____    ______ ____
ROOT
ATOM      1  N   UNL     1       8.168   0.316  23.618  0.00  0.00    -0.309 N 
ATOM      2  H   UNL     1       7.492   0.429  22.877  0.00  0.00    +0.149 HD
ATOM      3  C   UNL     1       8.622  -0.975  23.684  0.00  0.00    +0.217 A 
ATOM      4  N   UNL     1       9.615  -1.340  24.498  0.00  0.00    -0.222 NA
ATOM      5  C   UNL     1       9.742  -2.670  24.719  0.00  0.00    +0.131 A 
ATOM      6  C   UNL     1       8.903  -3.623  24.177  0.00  0.00    +0.095 A 
ATOM      7  C   UNL     1       8.008  -3.172  23.234  0.00  0.00    +0.140 A 
ATOM      8  N   UNL     1       7.894  -1.847  22.987  0.00  0.00    -0.199 NA
ENDROOT
BRANCH   1  10
ATOM      9  C   UNL     1       9.959   1.882  22.911  0.00  0.00    +0.071 C 
ATOM     10  C   UNL     1       8.971   1.454  24.031  0.00  0.00    +0.090 C 
ATOM     11  C   UNL     1       8.016   2.611  24.390  0.00  0.00    +0.024 C 
ATOM     12  C   UNL     1       8.753   3.904  24.741  0.00  0.00    +0.002 C 
ATOM     13  C   UNL     1       9.819   4.295  23.720  0.00  0.00    +0.002 C 
ATOM     14  C   UNL     1      10.734   3.123  23.371  0.00  0.00    +0.020 C 
BRANCH   9  15
ATOM     15  N   UNL     1       9.294   2.136  21.614  0.00  0.00    -0.326 NA
ATOM     16  H   UNL     1      10.002   2.458  20.953  0.00  0.00    +0.119 HD
ATOM     17  H   UNL     1       8.914   1.272  21.230  0.00  0.00    +0.119 HD
ENDBRANCH   9  15
ENDBRANCH   1  10
BRANCH   6  18
ATOM     18  C   UNL     1       8.903  -4.981  24.737  0.00  0.00    +0.246 C 
ATOM     19  O   UNL     1       8.982  -5.966  24.011  0.00  0.00    -0.270 OA
ATOM     20  N   UNL     1       8.898  -5.091  26.101  0.00  0.00    -0.325 N 
ATOM     21  H   UNL     1       9.052  -5.997  26.515  0.00  0.00    +0.145 HD
ATOM     22  H   UNL     1       8.926  -4.277  26.709  0.00  0.00    +0.145 HD
ENDBRANCH   6  18
BRANCH   7  23
ATOM     23  N   UNL     1       7.127  -4.072  22.574  0.00  0.00    -0.299 N 
ATOM     24  H   UNL     1       7.102  -3.901  21.574  0.00  0.00    +0.154 HD
BRANCH  23  25
ATOM     25  C   UNL     1       5.879  -4.497  23.095  0.00  0.00    +0.033 A 
ATOM     26  C   UNL     1       5.322  -3.849  24.203  0.00  0.00    +0.026 A 
ATOM     27  C   UNL     1       4.010  -4.084  24.610  0.00  0.00    -0.049 A 
ATOM     28  C   UNL     1       3.375  -3.097  25.541  0.00  0.00    +0.044 C 
ATOM     29  C   UNL     1       3.297  -5.117  24.007  0.00  0.00    +0.003 A 
ATOM     30  C   UNL     1       3.890  -5.878  22.996  0.00  0.00    +0.002 A 
ATOM     31  C   UNL     1       5.172  -5.559  22.528  0.00  0.00    +0.023 A 
ENDBRANCH  23  25
ENDBRANCH   7  23
TORSDOF 5
ENDMDL
MODEL 5
REMARK VINA RESULT:      -7.0      2.030      2.941
REMARK  Name = 
REMARK  6 active torsions:
REMARK  status: ('A' for Active; 'I' for Inactive)
REMARK    1  A    between atoms: C_2  and  N_3
REMARK    2  A    between atoms: C_8  and  N_10
REMARK    3  A    between atoms: C_13  and  N_14
REMARK    4  A    between atoms: N_14  and  C_15
REMARK    5  A    between atoms: C_19  and  C_20
REMARK    6  A    between atoms: C_22  and  C_25
REMARK                            x       y       z     vdW  Elec       q    Type
REMARK                         _______ _______ _______ _____ _____    ______ ____
ROOT
ATOM      1  N   UNL     1       7.175  -0.578  23.333  0.00  0.00    -0.309 N 
ATOM      2  H   UNL     1       6.276  -0.703  22.894  0.00  0.00    +0.149 HD
ATOM      3  C   UNL     1       7.776  -1.783  23.591  0.00  0.00    +0.217 A 
ATOM      4  N   UNL     1       9.025  -1.873  24.051  0.00  0.00    -0.222 NA
ATOM      5  C   UNL     1       9.380  -3.069  24.576  0.00  0.00    +0.131 A 
ATOM      6  C   UNL     1       8.525  -4.150  24.673  0.00  0.00    +0.095 A 
ATOM      7  C   UNL     1       7.312  -4.017  24.038  0.00  0.00    +0.140 A 
ATOM      8  N   UNL     1       6.961  -2.833  23.487  0.00  0.00    -0.199 NA
ENDROOT
BRANCH   1  10
ATOM      9  C   UNL     1       7.115   1.638  22.219  0.00  0.00    +0.071 C 
ATOM     10  C   UNL     1       7.930   0.637  23.083  0.00  0.00    +0.090 C 
ATOM     11  C   UNL     1       8.297   1.264  24.445  0.00  0.00    +0.024 C 
ATOM     12  C   UNL     1       9.006   2.612  24.309  0.00  0.00    +0.002 C 
ATOM     13  C   UNL     1       8.295   3.583  23.369  0.00  0.00    +0.002 C 
ATOM     14  C   UNL     1       7.928   2.927  22.040  0.00  0.00    +0.020 C 
BRANCH   9  15
ATOM     15  N   UNL     1       5.779   1.940  22.780  0.00  0.00    -0.326 NA
ATOM     16  H   UNL     1       5.819   2.864  23.212  0.00  0.00    +0.119 HD
ATOM     17  H   UNL     1       5.084   1.998  22.038  0.00  0.00    +0.119 HD
ENDBRANCH   9  15
ENDBRANCH   1  10
BRANCH   6  18
ATOM     18  C   UNL     1       8.882  -5.270  25.554  0.00  0.00    +0.246 C 
ATOM     19  O   UNL     1       8.027  -5.862  26.204  0.00  0.00    -0.270 OA
ATOM     20  N   UNL     1      10.189  -5.673  25.548  0.00  0.00    -0.325 N 
ATOM     21  H   UNL     1      10.435  -6.530  26.020  0.00  0.00    +0.145 HD
ATOM     22  H   UNL     1      10.884  -5.246  24.942  0.00  0.00    +0.145 HD
ENDBRANCH   6  18
BRANCH   7  23
ATOM     23  N   UNL     1       6.370  -5.083  24.032  0.00  0.00    -0.299 N 
ATOM     24  H   UNL     1       6.480  -5.669  23.210  0.00  0.00    +0.154 HD
BRANCH  23  25
ATOM     25  C   UNL     1       5.022  -4.964  24.453  0.00  0.00    +0.033 A 
ATOM     26  C   UNL     1       3.981  -5.126  23.533  0.00  0.00    +0.026 A 
ATOM     27  C   UNL     1       2.652  -5.235  23.938  0.00  0.00    -0.049 A 
ATOM     28  C   UNL     1       1.660  -5.779  22.956  0.00  0.00    +0.044 C 
ATOM     29  C   UNL     1       2.338  -5.002  25.275  0.00  0.00    +0.003 A 
ATOM     30  C   UNL     1       3.351  -4.690  26.186  0.00  0.00    +0.002 A 
ATOM     31  C   UNL     1       4.692  -4.688  25.781  0.00  0.00    +0.023 A 
ENDBRANCH  23  25
ENDBRANCH   7  23
TORSDOF 5
ENDMDL
MODEL 6
REMARK VINA RESULT:      -6.9      3.062      7.687
REMARK  Name = 
REMARK  6 active torsions:
REMARK  status: ('A' for Active; 'I' for Inactive)
REMARK    1  A    between atoms: C_2  and  N_3
REMARK    2  A    between atoms: C_8  and  N_10
REMARK    3  A    between atoms: C_13  and  N_14
REMARK    4  A    between atoms: N_14  and  C_15
REMARK    5  A    between atoms: C_19  and  C_20
REMARK    6  A    between atoms: C_22  and  C_25
REMARK                            x       y       z     vdW  Elec       q    Type
REMARK                         _______ _______ _______ _____ _____    ______ ____
ROOT
ATOM      1  N   UNL     1       4.087  -5.394  23.645  0.00  0.00    -0.309 N 
ATOM      2  H   UNL     1       3.840  -4.922  22.788  0.00  0.00    +0.149 HD
ATOM      3  C   UNL     1       5.281  -4.937  24.139  0.00  0.00    +0.217 A 
ATOM      4  N   UNL     1       5.753  -5.317  25.328  0.00  0.00    -0.222 NA
ATOM      5  C   UNL     1       7.065  -5.072  25.551  0.00  0.00    +0.131 A 
ATOM      6  C   UNL     1       7.907  -4.489  24.625  0.00  0.00    +0.095 A 
ATOM      7  C   UNL     1       7.304  -3.992  23.492  0.00  0.00    +0.140 A 
ATOM      8  N   UNL     1       5.988  -4.209  23.274  0.00  0.00    -0.199 NA
ENDROOT
BRANCH   1  10
ATOM      9  C   UNL     1       1.649  -5.348  24.105  0.00  0.00    +0.071 C 
ATOM     10  C   UNL     1       3.037  -5.926  24.496  0.00  0.00    +0.090 C 
ATOM     11  C   UNL     1       3.046  -7.464  24.366  0.00  0.00    +0.024 C 
ATOM     12  C   UNL     1       1.909  -8.133  25.139  0.00  0.00    +0.002 C 
ATOM     13  C   UNL     1       0.540  -7.511  24.871  0.00  0.00    +0.002 C 
ATOM     14  C   UNL     1       0.570  -5.989  24.988  0.00  0.00    +0.020 C 
BRANCH   9  15
ATOM     15  N   UNL     1       1.324  -5.530  22.673  0.00  0.00    -0.326 NA
ATOM     16  H   UNL     1       0.331  -5.334  22.546  0.00  0.00    +0.119 HD
ATOM     17  H   UNL     1       1.827  -4.852  22.103  0.00  0.00    +0.119 HD
ENDBRANCH   9  15
ENDBRANCH   1  10
BRANCH   6  18
ATOM     18  C   UNL     1       9.360  -4.578  24.820  0.00  0.00    +0.246 C 
ATOM     19  O   UNL     1      10.113  -3.716  24.379  0.00  0.00    -0.270 OA
ATOM     20  N   UNL     1       9.823  -5.614  25.585  0.00  0.00    -0.325 N 
ATOM     21  H   UNL     1      10.792  -5.616  25.864  0.00  0.00    +0.145 HD
ATOM     22  H   UNL     1       9.197  -6.278  26.030  0.00  0.00    +0.145 HD
ENDBRANCH   6  18
BRANCH   7  23
ATOM     23  N   UNL     1       8.066  -3.329  22.490  0.00  0.00    -0.299 N 
ATOM     24  H   UNL     1       8.943  -3.809  22.313  0.00  0.00    +0.154 HD
BRANCH  23  25
ATOM     25  C   UNL     1       8.168  -1.921  22.364  0.00  0.00    +0.033 A 
ATOM     26  C   UNL     1       7.193  -1.091  22.927  0.00  0.00    +0.026 A 
ATOM     27  C   UNL     1       7.364   0.288  23.019  0.00  0.00    -0.049 A 
ATOM     28  C   UNL     1       6.474   1.047  23.955  0.00  0.00    +0.044 C 
ATOM     29  C   UNL     1       8.454   0.872  22.377  0.00  0.00    +0.003 A 
ATOM     30  C   UNL     1       9.363   0.073  21.678  0.00  0.00    +0.002 A 
ATOM     31  C   UNL     1       9.232  -1.322  21.686  0.00  0.00    +0.023 A 
ENDBRANCH  23  25
ENDBRANCH   7  23
TORSDOF 5
ENDMDL
MODEL 7
REMARK VINA RESULT:      -6.9      2.120      2.837
REMARK  Name = 
REMARK  6 active torsions:
REMARK  status: ('A' for Active; 'I' for Inactive)
REMARK    1  A    between atoms: C_2  and  N_3
REMARK    2  A    between atoms: C_8  and  N_10
REMARK    3  A    between atoms: C_13  and  N_14
REMARK    4  A    between atoms: N_14  and  C_15
REMARK    5  A    between atoms: C_19  and  C_20
REMARK    6  A    between atoms: C_22  and  C_25
REMARK                            x       y       z     vdW  Elec       q    Type
REMARK                         _______ _______ _______ _____ _____    ______ ____
ROOT
ATOM      1  N   UNL     1       7.391  -1.424  23.135  0.00  0.00    -0.309 N 
ATOM      2  H   UNL     1       7.131  -1.767  22.222  0.00  0.00    +0.149 HD
ATOM      3  C   UNL     1       7.532  -2.451  24.031  0.00  0.00    +0.217 A 
ATOM      4  N   UNL     1       7.996  -2.260  25.268  0.00  0.00    -0.222 NA
ATOM      5  C   UNL     1       7.774  -3.265  26.147  0.00  0.00    +0.131 A 
ATOM      6  C   UNL     1       7.092  -4.424  25.833  0.00  0.00    +0.095 A 
ATOM      7  C   UNL     1       6.786  -4.602  24.503  0.00  0.00    +0.140 A 
ATOM      8  N   UNL     1       7.030  -3.613  23.614  0.00  0.00    -0.199 NA
ENDROOT
BRANCH   1  10
ATOM      9  C   UNL     1       9.582  -0.336  22.720  0.00  0.00    +0.071 C 
ATOM     10  C   UNL     1       8.130  -0.178  23.246  0.00  0.00    +0.090 C 
ATOM     11  C   UNL     1       7.372   0.902  22.446  0.00  0.00    +0.024 C 
ATOM     12  C   UNL     1       8.112   2.240  22.402  0.00  0.00    +0.002 C 
ATOM     13  C   UNL     1       9.581   2.110  22.003  0.00  0.00    +0.002 C 
ATOM     14  C   UNL     1      10.296   1.020  22.798  0.00  0.00    +0.020 C 
BRANCH   9  15
ATOM     15  N   UNL     1       9.648  -0.879  21.345  0.00  0.00    -0.326 NA
ATOM     16  H   UNL     1       9.890  -1.868  21.406  0.00  0.00    +0.119 HD
ATOM     17  H   UNL     1       8.734  -0.834  20.898  0.00  0.00    +0.119 HD
ENDBRANCH   9  15
ENDBRANCH   1  10
BRANCH   6  18
ATOM     18  C   UNL     1       6.607  -5.287  26.918  0.00  0.00    +0.246 C 
ATOM     19  O   UNL     1       5.412  -5.355  27.189  0.00  0.00    -0.270 OA
ATOM     20  N   UNL     1       7.533  -6.071  27.551  0.00  0.00    -0.325 N 
ATOM     21  H   UNL     1       7.212  -6.782  28.189  0.00  0.00    +0.145 HD
ATOM     22  H   UNL     1       8.509  -6.089  27.269  0.00  0.00    +0.145 HD
ENDBRANCH   6  18
BRANCH   7  23
ATOM     23  N   UNL     1       6.127  -5.781  24.057  0.00  0.00    -0.299 N 
ATOM     24  H   UNL     1       6.637  -6.227  23.301  0.00  0.00    +0.154 HD
BRANCH  23  25
ATOM     25  C   UNL     1       4.722  -5.914  23.932  0.00  0.00    +0.033 A 
ATOM     26  C   UNL     1       4.092  -7.110  24.294  0.00  0.00    +0.026 A 
ATOM     27  C   UNL     1       2.707  -7.211  24.397  0.00  0.00    -0.049 A 
ATOM     28  C   UNL     1       2.140  -8.379  25.143  0.00  0.00    +0.044 C 
ATOM     29  C   UNL     1       1.924  -6.145  23.959  0.00  0.00    +0.003 A 
ATOM     30  C   UNL     1       2.532  -4.993  23.452  0.00  0.00    +0.002 A 
ATOM     31  C   UNL     1       3.927  -4.870  23.454  0.00  0.00    +0.023 A 
ENDBRANCH  23  25
ENDBRANCH   7  23
TORSDOF 5
ENDMDL
MODEL 8
REMARK VINA RESULT:      -6.8      1.944      2.879
REMARK  Name = 
REMARK  6 active torsions:
REMARK  status: ('A' for Active; 'I' for Inactive)
REMARK    1  A    between atoms: C_2  and  N_3
REMARK    2  A    between atoms: C_8  and  N_10
REMARK    3  A    between atoms: C_13  and  N_14
REMARK    4  A    between atoms: N_14  and  C_15
REMARK    5  A    between atoms: C_19  and  C_20
REMARK    6  A    between atoms: C_22  and  C_25
REMARK                            x       y       z     vdW  Elec       q    Type
REMARK                         _______ _______ _______ _____ _____    ______ ____
ROOT
ATOM      1  N   UNL     1       7.094  -0.826  22.843  0.00  0.00    -0.309 N 
ATOM      2  H   UNL     1       6.266  -1.059  22.316  0.00  0.00    +0.149 HD
ATOM      3  C   UNL     1       7.766  -1.953  23.240  0.00  0.00    +0.217 A 
ATOM      4  N   UNL     1       8.957  -1.899  23.839  0.00  0.00    -0.222 NA
ATOM      5  C   UNL     1       9.353  -3.027  24.474  0.00  0.00    +0.131 A 
ATOM      6  C   UNL     1       8.593  -4.178  24.544  0.00  0.00    +0.095 A 
ATOM      7  C   UNL     1       7.453  -4.195  23.772  0.00  0.00    +0.140 A 
ATOM      8  N   UNL     1       7.065  -3.080  23.113  0.00  0.00    -0.199 NA
ENDROOT
BRANCH   1  10
ATOM      9  C   UNL     1       7.753   1.333  23.874  0.00  0.00    +0.071 C 
ATOM     10  C   UNL     1       7.762   0.441  22.602  0.00  0.00    +0.090 C 
ATOM     11  C   UNL     1       9.208   0.144  22.152  0.00  0.00    +0.024 C 
ATOM     12  C   UNL     1      10.046   1.410  21.968  0.00  0.00    +0.002 C 
ATOM     13  C   UNL     1       9.967   2.371  23.153  0.00  0.00    +0.002 C 
ATOM     14  C   UNL     1       8.525   2.627  23.586  0.00  0.00    +0.020 C 
BRANCH   9  15
ATOM     15  N   UNL     1       8.306   0.653  25.066  0.00  0.00    -0.326 NA
ATOM     16  H   UNL     1       9.315   0.804  25.078  0.00  0.00    +0.119 HD
ATOM     17  H   UNL     1       7.942   1.074  25.919  0.00  0.00    +0.119 HD
ENDBRANCH   9  15
ENDBRANCH   1  10
BRANCH   6  18
ATOM     18  C   UNL     1       8.944  -5.211  25.527  0.00  0.00    +0.246 C 
ATOM     19  O   UNL     1       8.082  -5.760  26.205  0.00  0.00    -0.270 OA
ATOM     20  N   UNL     1      10.257  -5.591  25.588  0.00  0.00    -0.325 N 
ATOM     21  H   UNL     1      10.503  -6.399  26.138  0.00  0.00    +0.145 HD
ATOM     22  H   UNL     1      10.960  -5.206  24.964  0.00  0.00    +0.145 HD
ENDBRANCH   6  18
BRANCH   7  23
ATOM     23  N   UNL     1       6.618  -5.345  23.729  0.00  0.00    -0.299 N 
ATOM     24  H   UNL     1       6.867  -5.956  22.958  0.00  0.00    +0.154 HD
BRANCH  23  25
ATOM     25  C   UNL     1       5.227  -5.334  24.001  0.00  0.00    +0.033 A 
ATOM     26  C   UNL     1       4.760  -4.969  25.268  0.00  0.00    +0.026 A 
ATOM     27  C   UNL     1       3.410  -4.733  25.516  0.00  0.00    -0.049 A 
ATOM     28  C   UNL     1       3.042  -3.992  26.764  0.00  0.00    +0.044 C 
ATOM     29  C   UNL     1       2.484  -5.038  24.521  0.00  0.00    +0.003 A 
ATOM     30  C   UNL     1       2.919  -5.548  23.294  0.00  0.00    +0.002 A 
ATOM     31  C   UNL     1       4.288  -5.679  23.027  0.00  0.00    +0.023 A 
ENDBRANCH  23  25
ENDBRANCH   7  23
TORSDOF 5
ENDMDL
MODEL 9
REMARK VINA RESULT:      -6.7      2.497      7.618
REMARK  Name = 
REMARK  6 active torsions:
REMARK  status: ('A' for Active; 'I' for Inactive)
REMARK    1  A    between atoms: C_2  and  N_3
REMARK    2  A    between atoms: C_8  and  N_10
REMARK    3  A    between atoms: C_13  and  N_14
REMARK    4  A    between atoms: N_14  and  C_15
REMARK    5  A    between atoms: C_19  and  C_20
REMARK    6  A    between atoms: C_22  and  C_25
REMARK                            x       y       z     vdW  Elec       q    Type
REMARK                         _______ _______ _______ _____ _____    ______ ____
ROOT
ATOM      1  N   UNL     1       6.307  -3.109  26.514  0.00  0.00    -0.309 N 
ATOM      2  H   UNL     1       6.539  -2.604  27.356  0.00  0.00    +0.149 HD
ATOM      3  C   UNL     1       7.321  -3.037  25.595  0.00  0.00    +0.217 A 
ATOM      4  N   UNL     1       7.300  -3.731  24.456  0.00  0.00    -0.222 NA
ATOM      5  C   UNL     1       8.169  -3.328  23.499  0.00  0.00    +0.131 A 
ATOM      6  C   UNL     1       9.024  -2.253  23.641  0.00  0.00    +0.095 A 
ATOM      7  C   UNL     1       9.086  -1.694  24.897  0.00  0.00    +0.140 A 
ATOM      8  N   UNL     1       8.240  -2.110  25.866  0.00  0.00    -0.199 NA
ENDROOT
BRANCH   1  10
ATOM      9  C   UNL     1       6.156  -5.578  26.710  0.00  0.00    +0.071 C 
ATOM     10  C   UNL     1       5.390  -4.233  26.585  0.00  0.00    +0.090 C 
ATOM     11  C   UNL     1       4.460  -4.018  27.798  0.00  0.00    +0.024 C 
ATOM     12  C   UNL     1       3.514  -5.195  28.039  0.00  0.00    +0.002 C 
ATOM     13  C   UNL     1       4.218  -6.551  28.049  0.00  0.00    +0.002 C 
ATOM     14  C   UNL     1       5.145  -6.723  26.848  0.00  0.00    +0.020 C 
BRANCH   9  15
ATOM     15  N   UNL     1       7.119  -5.597  27.834  0.00  0.00    -0.326 NA
ATOM     16  H   UNL     1       7.154  -4.660  28.237  0.00  0.00    +0.119 HD
ATOM     17  H   UNL     1       6.794  -6.217  28.573  0.00  0.00    +0.119 HD
ENDBRANCH   9  15
ENDBRANCH   1  10
BRANCH   6  18
ATOM     18  C   UNL     1       9.670  -1.687  22.449  0.00  0.00    +0.246 C 
ATOM     19  O   UNL     1      10.879  -1.793  22.272  0.00  0.00    -0.270 OA
ATOM     20  N   UNL     1       8.853  -1.116  21.512  0.00  0.00    -0.325 N 
ATOM     21  H   UNL     1       9.244  -0.858  20.619  0.00  0.00    +0.145 HD
ATOM     22  H   UNL     1       7.842  -1.108  21.609  0.00  0.00    +0.145 HD
ENDBRANCH   6  18
BRANCH   7  23
ATOM     23  N   UNL     1       9.967  -0.612  25.173  0.00  0.00    -0.299 N 
ATOM     24  H   UNL     1      10.334  -0.664  26.118  0.00  0.00    +0.154 HD
BRANCH  23  25
ATOM     25  C   UNL     1       9.764   0.718  24.728  0.00  0.00    +0.033 A 
ATOM     26  C   UNL     1       8.599   1.408  25.078  0.00  0.00    +0.026 A 
ATOM     27  C   UNL     1       8.456   2.775  24.853  0.00  0.00    -0.049 A 
ATOM     28  C   UNL     1       7.367   3.498  25.584  0.00  0.00    +0.044 C 
ATOM     29  C   UNL     1       9.427   3.435  24.103  0.00  0.00    +0.003 A 
ATOM     30  C   UNL     1      10.530   2.729  23.613  0.00  0.00    +0.002 A 
ATOM     31  C   UNL     1      10.709   1.379  23.939  0.00  0.00    +0.023 A 
ENDBRANCH  23  25
ENDBRANCH   7  23
TORSDOF 5
ENDMDL
