MODEL 1
REMARK VINA RESULT:      -3.7      0.000      0.000
REMARK  Name = 
REMARK  10 active torsions:
REMARK  status: ('A' for Active; 'I' for Inactive)
REMARK    1  A    between atoms: N_1  and  C_2
REMARK    2  A    between atoms: C_2  and  C_3
REMARK    3  A    between atoms: C_2  and  C_6
REMARK    4  A    between atoms: C_2  and  C_9
REMARK    5  A    between atoms: C_3  and  C_4
REMARK    6  A    between atoms: C_4  and  O_5
REMARK    7  A    between atoms: C_6  and  C_7
REMARK    8  A    between atoms: C_7  and  O_8
REMARK    9  A    between atoms: C_9  and  C_10
REMARK   10  A    between atoms: C_10  and  O_11
REMARK                            x       y       z     vdW  Elec       q    Type
REMARK                         _______ _______ _______ _____ _____    ______ ____
ROOT
ATOM      1  C   UNL     1       9.742   1.504  22.876  0.00  0.00    +0.023 C 
ENDROOT
BRANCH   1   2
ATOM      2  N   UNL     1      10.095   2.036  21.549  0.00  0.00    -0.324 NA
ATOM      3  H   UNL     1      10.032   1.306  20.839  0.00  0.00    +0.119 HD
ATOM      4  H   UNL     1       9.459   2.780  21.263  0.00  0.00    +0.119 HD
ENDBRANCH   1   2
BRANCH   1   5
ATOM      5  C   UNL     1      10.507   2.351  23.932  0.00  0.00    +0.050 C 
BRANCH   5   6
ATOM      6  C   UNL     1      11.201   3.605  23.399  0.00  0.00    +0.157 C 
BRANCH   6   7
ATOM      7  O   UNL     1      10.243   4.647  23.240  0.00  0.00    -0.395 OA
ATOM      8  H   UNL     1       9.715   4.689  24.054  0.00  0.00    +0.209 HD
ENDBRANCH   6   7
ENDBRANCH   5   6
ENDBRANCH   1   5
BRANCH   1   9
ATOM      9  C   UNL     1      10.238   0.036  22.994  0.00  0.00    +0.050 C 
BRANCH   9  10
ATOM     10  C   UNL     1       9.389  -1.019  22.289  0.00  0.00    +0.157 C 
BRANCH  10  11
ATOM     11  O   UNL     1       9.526  -0.874  20.879  0.00  0.00    -0.395 OA
ATOM     12  H   UNL     1      10.366  -0.417  20.707  0.00  0.00    +0.209 HD
ENDBRANCH  10  11
ENDBRANCH   9  10
ENDBRANCH   1   9
BRANCH   1  13
ATOM     13  C   UNL     1       8.205   1.626  23.026  0.00  0.00    +0.050 C 
BRANCH  13  14
ATOM     14  C   UNL     1       7.504   2.404  21.913  0.00  0.00    +0.157 C 
BRANCH  14  15
ATOM     15  O   UNL     1       7.810   3.788  22.029  0.00  0.00    -0.395 OA
ATOM     16  H   UNL     1       8.264   3.923  22.879  0.00  0.00    +0.209 HD
ENDBRANCH  14  15
ENDBRANCH  13  14
ENDBRANCH   1  13
TORSDOF 10
ENDMDL
MODEL 2
REMARK VINA RESULT:      -3.7      1.618      1.947
REMARK  Name = 
REMARK  10 active torsions:
REMARK  status: ('A' for Active; 'I' for Inactive)
REMARK    1  A    between atoms: N_1  and  C_2
REMARK    2  A    between atoms: C_2  and  C_3
REMARK    3  A    between atoms: C_2  and  C_6
REMARK    4  A    between atoms: C_2  and  C_9
REMARK    5  A    between atoms: C_3  and  C_4
REMARK    6  A    between atoms: C_4  and  O_5
REMARK    7  A    between atoms: C_6  and  C_7
REMARK    8  A    between atoms: C_7  and  O_8
REMARK    9  A    between atoms: C_9  and  C_10
REMARK   10  A    between atoms: C_10  and  O_11
REMARK                            x       y       z     vdW  Elec       q    Type
REMARK                         _______ _______ _______ _____ _____    ______ ____
ROOT
ATOM      1  C   UNL     1       9.083   1.276  22.012  0.00  0.00    +0.023 C 
ENDROOT
BRANCH   1   2
ATOM      2  N   UNL     1      10.195   2.216  21.794  0.00  0.00    -0.324 NA
ATOM      3  H   UNL     1      10.937   2.061  22.478  0.00  0.00    +0.119 HD
ATOM      4  H   UNL     1      10.613   2.093  20.872  0.00  0.00    +0.119 HD
ENDBRANCH   1   2
BRANCH   1   5
ATOM      5  C   UNL     1       8.998   1.006  23.541  0.00  0.00    +0.050 C 
BRANCH   5   6
ATOM      6  C   UNL     1      10.146   1.570  24.378  0.00  0.00    +0.157 C 
BRANCH   6   7
ATOM      7  O   UNL     1      11.251   0.671  24.339  0.00  0.00    -0.395 OA
ATOM      8  H   UNL     1      11.952   1.041  24.899  0.00  0.00    +0.209 HD
ENDBRANCH   6   7
ENDBRANCH   5   6
ENDBRANCH   1   5
BRANCH   1   9
ATOM      9  C   UNL     1       9.398  -0.073  21.307  0.00  0.00    +0.050 C 
BRANCH   9  10
ATOM     10  C   UNL     1       9.340  -1.319  22.187  0.00  0.00    +0.157 C 
BRANCH  10  11
ATOM     11  O   UNL     1      10.661  -1.798  22.420  0.00  0.00    -0.395 OA
ATOM     12  H   UNL     1      11.065  -1.989  21.558  0.00  0.00    +0.209 HD
ENDBRANCH  10  11
ENDBRANCH   9  10
ENDBRANCH   1   9
BRANCH   1  13
ATOM     13  C   UNL     1       7.799   1.949  21.463  0.00  0.00    +0.050 C 
BRANCH  13  14
ATOM     14  C   UNL     1       7.241   3.081  22.323  0.00  0.00    +0.157 C 
BRANCH  14  15
ATOM     15  O   UNL     1       8.027   4.254  22.140  0.00  0.00    -0.395 OA
ATOM     16  H   UNL     1       8.117   4.691  23.004  0.00  0.00    +0.209 HD
ENDBRANCH  14  15
ENDBRANCH  13  14
ENDBRANCH   1  13
TORSDOF 10
ENDMDL
MODEL 3
REMARK VINA RESULT:      -3.7      0.567      3.882
REMARK  Name = 
REMARK  10 active torsions:
REMARK  status: ('A' for Active; 'I' for Inactive)
REMARK    1  A    between atoms: N_1  and  C_2
REMARK    2  A    between atoms: C_2  and  C_3
REMARK    3  A    between atoms: C_2  and  C_6
REMARK    4  A    between atoms: C_2  and  C_9
REMARK    5  A    between atoms: C_3  and  C_4
REMARK    6  A    between atoms: C_4  and  O_5
REMARK    7  A    between atoms: C_6  and  C_7
REMARK    8  A    between atoms: C_7  and  O_8
REMARK    9  A    between atoms: C_9  and  C_10
REMARK   10  A    between atoms: C_10  and  O_11
REMARK                            x       y       z     vdW  Elec       q    Type
REMARK                         _______ _______ _______ _____ _____    ______ ____
ROOT
ATOM      1  C   UNL     1       9.613   1.785  22.874  0.00  0.00    +0.023 C 
ENDROOT
BRANCH   1   2
ATOM      2  N   UNL     1       9.993   2.260  21.534  0.00  0.00    -0.324 NA
ATOM      3  H   UNL     1       9.786   1.553  20.828  0.00  0.00    +0.119 HD
ATOM      4  H   UNL     1       9.474   3.098  21.273  0.00  0.00    +0.119 HD
ENDBRANCH   1   2
BRANCH   1   5
ATOM      5  C   UNL     1       9.772   0.239  22.880  0.00  0.00    +0.050 C 
BRANCH   5   6
ATOM      6  C   UNL     1       9.429  -0.466  21.567  0.00  0.00    +0.157 C 
BRANCH   6   7
ATOM      7  O   UNL     1      10.225  -1.641  21.436  0.00  0.00    -0.395 OA
ATOM      8  H   UNL     1      10.133  -2.152  22.257  0.00  0.00    +0.209 HD
ENDBRANCH   6   7
ENDBRANCH   5   6
ENDBRANCH   1   5
BRANCH   1   9
ATOM      9  C   UNL     1       8.115   2.110  23.134  0.00  0.00    +0.050 C 
BRANCH   9  10
ATOM     10  C   UNL     1       7.408   2.924  22.053  0.00  0.00    +0.157 C 
BRANCH  10  11
ATOM     11  O   UNL     1       7.863   4.273  22.100  0.00  0.00    -0.395 OA
ATOM     12  H   UNL     1       8.061   4.488  23.026  0.00  0.00    +0.209 HD
ENDBRANCH  10  11
ENDBRANCH   9  10
ENDBRANCH   1   9
BRANCH   1  13
ATOM     13  C   UNL     1      10.556   2.476  23.892  0.00  0.00    +0.050 C 
BRANCH  13  14
ATOM     14  C   UNL     1      11.309   3.693  23.355  0.00  0.00    +0.157 C 
BRANCH  14  15
ATOM     15  O   UNL     1      10.421   4.800  23.254  0.00  0.00    -0.395 OA
ATOM     16  H   UNL     1      10.212   5.098  24.155  0.00  0.00    +0.209 HD
ENDBRANCH  14  15
ENDBRANCH  13  14
ENDBRANCH   1  13
TORSDOF 10
ENDMDL
MODEL 4
REMARK VINA RESULT:      -3.6      0.696      3.719
REMARK  Name = 
REMARK  10 active torsions:
REMARK  status: ('A' for Active; 'I' for Inactive)
REMARK    1  A    between atoms: N_1  and  C_2
REMARK    2  A    between atoms: C_2  and  C_3
REMARK    3  A    between atoms: C_2  and  C_6
REMARK    4  A    between atoms: C_2  and  C_9
REMARK    5  A    between atoms: C_3  and  C_4
REMARK    6  A    between atoms: C_4  and  O_5
REMARK    7  A    between atoms: C_6  and  C_7
REMARK    8  A    between atoms: C_7  and  O_8
REMARK    9  A    between atoms: C_9  and  C_10
REMARK   10  A    between atoms: C_10  and  O_11
REMARK                            x       y       z     vdW  Elec       q    Type
REMARK                         _______ _______ _______ _____ _____    ______ ____
ROOT
ATOM      1  C   UNL     1       9.321   1.733  22.864  0.00  0.00    +0.023 C 
ENDROOT
BRANCH   1   2
ATOM      2  N   UNL     1       9.689   2.170  21.507  0.00  0.00    -0.324 NA
ATOM      3  H   UNL     1      10.417   1.568  21.119  0.00  0.00    +0.119 HD
ATOM      4  H   UNL     1       8.895   2.120  20.870  0.00  0.00    +0.119 HD
ENDBRANCH   1   2
BRANCH   1   5
ATOM      5  C   UNL     1       7.901   2.293  23.161  0.00  0.00    +0.050 C 
BRANCH   5   6
ATOM      6  C   UNL     1       7.265   3.113  22.039  0.00  0.00    +0.157 C 
BRANCH   6   7
ATOM      7  O   UNL     1       7.789   4.438  22.062  0.00  0.00    -0.395 OA
ATOM      8  H   UNL     1       8.730   4.379  22.293  0.00  0.00    +0.209 HD
ENDBRANCH   6   7
ENDBRANCH   5   6
ENDBRANCH   1   5
BRANCH   1   9
ATOM      9  C   UNL     1      10.304   2.358  23.894  0.00  0.00    +0.050 C 
BRANCH   9  10
ATOM     10  C   UNL     1      11.183   3.495  23.379  0.00  0.00    +0.157 C 
BRANCH  10  11
ATOM     11  O   UNL     1      10.410   4.687  23.283  0.00  0.00    -0.395 OA
ATOM     12  H   UNL     1      10.772   5.219  22.556  0.00  0.00    +0.209 HD
ENDBRANCH  10  11
ENDBRANCH   9  10
ENDBRANCH   1   9
BRANCH   1  13
ATOM     13  C   UNL     1       9.355   0.184  22.873  0.00  0.00    +0.050 C 
BRANCH  13  14
ATOM     14  C   UNL     1       9.411  -0.472  21.494  0.00  0.00    +0.157 C 
BRANCH  14  15
ATOM     15  O   UNL     1      10.292  -1.588  21.528  0.00  0.00    -0.395 OA
ATOM     16  H   UNL     1       9.786  -2.376  21.266  0.00  0.00    +0.209 HD
ENDBRANCH  14  15
ENDBRANCH  13  14
ENDBRANCH   1  13
TORSDOF 10
ENDMDL
MODEL 5
REMARK VINA RESULT:      -3.5      2.456      4.017
REMARK  Name = 
REMARK  10 active torsions:
REMARK  status: ('A' for Active; 'I' for Inactive)
REMARK    1  A    between atoms: N_1  and  C_2
REMARK    2  A    between atoms: C_2  and  C_3
REMARK    3  A    between atoms: C_2  and  C_6
REMARK    4  A    between atoms: C_2  and  C_9
REMARK    5  A    between atoms: C_3  and  C_4
REMARK    6  A    between atoms: C_4  and  O_5
REMARK    7  A    between atoms: C_6  and  C_7
REMARK    8  A    between atoms: C_7  and  O_8
REMARK    9  A    between atoms: C_9  and  C_10
REMARK   10  A    between atoms: C_10  and  O_11
REMARK                            x       y       z     vdW  Elec       q    Type
REMARK                         _______ _______ _______ _____ _____    ______ ____
ROOT
ATOM      1  C   UNL     1       9.623   0.065  24.025  0.00  0.00    +0.023 C 
ENDROOT
BRANCH   1   2
ATOM      2  N   UNL     1       8.328   0.454  23.442  0.00  0.00    -0.324 NA
ATOM      3  H   UNL     1       8.464   0.989  22.583  0.00  0.00    +0.119 HD
ATOM      4  H   UNL     1       7.769  -0.362  23.195  0.00  0.00    +0.119 HD
ENDBRANCH   1   2
BRANCH   1   5
ATOM      5  C   UNL     1      10.096  -1.218  23.287  0.00  0.00    +0.050 C 
BRANCH   5   6
ATOM      6  C   UNL     1       9.291  -1.603  22.045  0.00  0.00    +0.157 C 
BRANCH   6   7
ATOM      7  O   UNL     1       9.596  -0.704  20.983  0.00  0.00    -0.395 OA
ATOM      8  H   UNL     1       8.790  -0.586  20.455  0.00  0.00    +0.209 HD
ENDBRANCH   6   7
ENDBRANCH   5   6
ENDBRANCH   1   5
BRANCH   1   9
ATOM      9  C   UNL     1       9.429  -0.293  25.525  0.00  0.00    +0.050 C 
BRANCH   9  10
ATOM     10  C   UNL     1       8.072   0.060  26.130  0.00  0.00    +0.157 C 
BRANCH  10  11
ATOM     11  O   UNL     1       7.994   1.466  26.334  0.00  0.00    -0.395 OA
ATOM     12  H   UNL     1       8.880   1.782  26.576  0.00  0.00    +0.209 HD
ENDBRANCH  10  11
ENDBRANCH   9  10
ENDBRANCH   1   9
BRANCH   1  13
ATOM     13  C   UNL     1      10.595   1.254  23.818  0.00  0.00    +0.050 C 
BRANCH  13  14
ATOM     14  C   UNL     1      10.032   2.419  23.006  0.00  0.00    +0.157 C 
BRANCH  14  15
ATOM     15  O   UNL     1      10.135   2.128  21.617  0.00  0.00    -0.395 OA
ATOM     16  H   UNL     1      11.078   2.032  21.401  0.00  0.00    +0.209 HD
ENDBRANCH  14  15
ENDBRANCH  13  14
ENDBRANCH   1  13
TORSDOF 10
ENDMDL
MODEL 6
REMARK VINA RESULT:      -3.5      2.685      4.808
REMARK  Name = 
REMARK  10 active torsions:
REMARK  status: ('A' for Active; 'I' for Inactive)
REMARK    1  A    between atoms: N_1  and  C_2
REMARK    2  A    between atoms: C_2  and  C_3
REMARK    3  A    between atoms: C_2  and  C_6
REMARK    4  A    between atoms: C_2  and  C_9
REMARK    5  A    between atoms: C_3  and  C_4
REMARK    6  A    between atoms: C_4  and  O_5
REMARK    7  A    between atoms: C_6  and  C_7
REMARK    8  A    between atoms: C_7  and  O_8
REMARK    9  A    between atoms: C_9  and  C_10
REMARK   10  A    between atoms: C_10  and  O_11
REMARK                            x       y       z     vdW  Elec       q    Type
REMARK                         _______ _______ _______ _____ _____    ______ ____
ROOT
ATOM      1  C   UNL     1       9.272  -1.118  22.542  0.00  0.00    +0.023 C 
ENDROOT
BRANCH   1   2
ATOM      2  N   UNL     1      10.581  -1.779  22.671  0.00  0.00    -0.324 NA
ATOM      3  H   UNL     1      10.591  -2.406  23.476  0.00  0.00    +0.119 HD
ATOM      4  H   UNL     1      10.794  -2.349  21.852  0.00  0.00    +0.119 HD
ENDBRANCH   1   2
BRANCH   1   5
ATOM      5  C   UNL     1       8.215  -2.229  22.288  0.00  0.00    +0.050 C 
BRANCH   5   6
ATOM      6  C   UNL     1       7.858  -3.092  23.498  0.00  0.00    +0.157 C 
BRANCH   6   7
ATOM      7  O   UNL     1       8.967  -3.921  23.835  0.00  0.00    -0.395 OA
ATOM      8  H   UNL     1       9.691  -3.341  24.124  0.00  0.00    +0.209 HD
ENDBRANCH   6   7
ENDBRANCH   5   6
ENDBRANCH   1   5
BRANCH   1   9
ATOM      9  C   UNL     1       9.285  -0.181  21.301  0.00  0.00    +0.050 C 
BRANCH   9  10
ATOM     10  C   UNL     1       8.889   1.272  21.553  0.00  0.00    +0.157 C 
BRANCH  10  11
ATOM     11  O   UNL     1      10.057   2.086  21.573  0.00  0.00    -0.395 OA
ATOM     12  H   UNL     1      10.785   1.553  21.932  0.00  0.00    +0.209 HD
ENDBRANCH  10  11
ENDBRANCH   9  10
ENDBRANCH   1   9
BRANCH   1  13
ATOM     13  C   UNL     1       9.013  -0.351  23.863  0.00  0.00    +0.050 C 
BRANCH  13  14
ATOM     14  C   UNL     1      10.241  -0.156  24.751  0.00  0.00    +0.157 C 
BRANCH  14  15
ATOM     15  O   UNL     1      11.072   0.861  24.203  0.00  0.00    -0.395 OA
ATOM     16  H   UNL     1      11.600   0.463  23.490  0.00  0.00    +0.209 HD
ENDBRANCH  14  15
ENDBRANCH  13  14
ENDBRANCH   1  13
TORSDOF 10
ENDMDL
MODEL 7
REMARK VINA RESULT:      -3.5      2.884      3.272
REMARK  Name = 
REMARK  10 active torsions:
REMARK  status: ('A' for Active; 'I' for Inactive)
REMARK    1  A    between atoms: N_1  and  C_2
REMARK    2  A    between atoms: C_2  and  C_3
REMARK    3  A    between atoms: C_2  and  C_6
REMARK    4  A    between atoms: C_2  and  C_9
REMARK    5  A    between atoms: C_3  and  C_4
REMARK    6  A    between atoms: C_4  and  O_5
REMARK    7  A    between atoms: C_6  and  C_7
REMARK    8  A    between atoms: C_7  and  O_8
REMARK    9  A    between atoms: C_9  and  C_10
REMARK   10  A    between atoms: C_10  and  O_11
REMARK                            x       y       z     vdW  Elec       q    Type
REMARK                         _______ _______ _______ _____ _____    ______ ____
ROOT
ATOM      1  C   UNL     1       9.212   0.359  24.090  0.00  0.00    +0.023 C 
ENDROOT
BRANCH   1   2
ATOM      2  N   UNL     1       8.168   0.636  23.090  0.00  0.00    -0.324 NA
ATOM      3  H   UNL     1       8.579   0.999  22.229  0.00  0.00    +0.119 HD
ATOM      4  H   UNL     1       7.657  -0.210  22.838  0.00  0.00    +0.119 HD
ENDBRANCH   1   2
BRANCH   1   5
ATOM      5  C   UNL     1      10.271   1.493  23.980  0.00  0.00    +0.050 C 
BRANCH   5   6
ATOM      6  C   UNL     1       9.961   2.591  22.962  0.00  0.00    +0.157 C 
BRANCH   6   7
ATOM      7  O   UNL     1      10.238   2.116  21.649  0.00  0.00    -0.395 OA
ATOM      8  H   UNL     1       9.563   2.481  21.054  0.00  0.00    +0.209 HD
ENDBRANCH   6   7
ENDBRANCH   5   6
ENDBRANCH   1   5
BRANCH   1   9
ATOM      9  C   UNL     1       9.916  -0.984  23.746  0.00  0.00    +0.050 C 
BRANCH   9  10
ATOM     10  C   UNL     1       9.488  -1.650  22.441  0.00  0.00    +0.157 C 
BRANCH  10  11
ATOM     11  O   UNL     1       9.968  -0.888  21.338  0.00  0.00    -0.395 OA
ATOM     12  H   UNL     1      10.244  -0.019  21.675  0.00  0.00    +0.209 HD
ENDBRANCH  10  11
ENDBRANCH   9  10
ENDBRANCH   1   9
BRANCH   1  13
ATOM     13  C   UNL     1       8.523   0.331  25.478  0.00  0.00    +0.050 C 
BRANCH  13  14
ATOM     14  C   UNL     1       8.858  -0.883  26.343  0.00  0.00    +0.157 C 
BRANCH  14  15
ATOM     15  O   UNL     1       9.268  -0.453  27.635  0.00  0.00    -0.395 OA
ATOM     16  H   UNL     1       8.480  -0.429  28.206  0.00  0.00    +0.209 HD
ENDBRANCH  14  15
ENDBRANCH  13  14
ENDBRANCH   1  13
TORSDOF 10
ENDMDL
MODEL 8
REMARK VINA RESULT:      -3.4      2.933      4.204
REMARK  Name = 
REMARK  10 active torsions:
REMARK  status: ('A' for Active; 'I' for Inactive)
REMARK    1  A    between atoms: N_1  and  C_2
REMARK    2  A    between atoms: C_2  and  C_3
REMARK    3  A    between atoms: C_2  and  C_6
REMARK    4  A    between atoms: C_2  and  C_9
REMARK    5  A    between atoms: C_3  and  C_4
REMARK    6  A    between atoms: C_4  and  O_5
REMARK    7  A    between atoms: C_6  and  C_7
REMARK    8  A    between atoms: C_7  and  O_8
REMARK    9  A    between atoms: C_9  and  C_10
REMARK   10  A    between atoms: C_10  and  O_11
REMARK                            x       y       z     vdW  Elec       q    Type
REMARK                         _______ _______ _______ _____ _____    ______ ____
ROOT
ATOM      1  C   UNL     1       9.229   0.230  24.092  0.00  0.00    +0.023 C 
ENDROOT
BRANCH   1   2
ATOM      2  N   UNL     1       8.158   0.324  23.086  0.00  0.00    -0.324 NA
ATOM      3  H   UNL     1       7.836   1.288  22.989  0.00  0.00    +0.119 HD
ATOM      4  H   UNL     1       8.483   0.029  22.165  0.00  0.00    +0.119 HD
ENDBRANCH   1   2
BRANCH   1   5
ATOM      5  C   UNL     1       8.558   0.330  25.491  0.00  0.00    +0.050 C 
BRANCH   5   6
ATOM      6  C   UNL     1       8.764  -0.875  26.410  0.00  0.00    +0.157 C 
BRANCH   6   7
ATOM      7  O   UNL     1       9.274  -0.434  27.665  0.00  0.00    -0.395 OA
ATOM      8  H   UNL     1       8.991   0.486  27.792  0.00  0.00    +0.209 HD
ENDBRANCH   6   7
ENDBRANCH   5   6
ENDBRANCH   1   5
BRANCH   1   9
ATOM      9  C   UNL     1      10.192   1.441  23.939  0.00  0.00    +0.050 C 
BRANCH   9  10
ATOM     10  C   UNL     1       9.842   2.442  22.840  0.00  0.00    +0.157 C 
BRANCH  10  11
ATOM     11  O   UNL     1      10.175   1.889  21.571  0.00  0.00    -0.395 OA
ATOM     12  H   UNL     1       9.969   2.554  20.893  0.00  0.00    +0.209 HD
ENDBRANCH  10  11
ENDBRANCH   9  10
ENDBRANCH   1   9
BRANCH   1  13
ATOM     13  C   UNL     1       9.943  -1.128  23.878  0.00  0.00    +0.050 C 
BRANCH  13  14
ATOM     14  C   UNL     1       9.531  -1.885  22.616  0.00  0.00    +0.157 C 
BRANCH  14  15
ATOM     15  O   UNL     1      10.185  -1.323  21.484  0.00  0.00    -0.395 OA
ATOM     16  H   UNL     1      11.027  -1.794  21.363  0.00  0.00    +0.209 HD
ENDBRANCH  14  15
ENDBRANCH  13  14
ENDBRANCH   1  13
TORSDOF 10
ENDMDL
MODEL 9
REMARK VINA RESULT:      -3.4      3.011      3.532
REMARK  Name = 
REMARK  10 active torsions:
REMARK  status: ('A' for Active; 'I' for Inactive)
REMARK    1  A    between atoms: N_1  and  C_2
REMARK    2  A    between atoms: C_2  and  C_3
REMARK    3  A    between atoms: C_2  and  C_6
REMARK    4  A    between atoms: C_2  and  C_9
REMARK    5  A    between atoms: C_3  and  C_4
REMARK    6  A    between atoms: C_4  and  O_5
REMARK    7  A    between atoms: C_6  and  C_7
REMARK    8  A    between atoms: C_7  and  O_8
REMARK    9  A    between atoms: C_9  and  C_10
REMARK   10  A    between atoms: C_10  and  O_11
REMARK                            x       y       z     vdW  Elec       q    Type
REMARK                         _______ _______ _______ _____ _____    ______ ____
ROOT
ATOM      1  C   UNL     1       9.486   0.173  24.362  0.00  0.00    +0.023 C 
ENDROOT
BRANCH   1   2
ATOM      2  N   UNL     1      10.530   0.587  25.314  0.00  0.00    -0.324 NA
ATOM      3  H   UNL     1      10.732   1.584  25.218  0.00  0.00    +0.119 HD
ATOM      4  H   UNL     1      10.237   0.438  26.279  0.00  0.00    +0.119 HD
ENDBRANCH   1   2
BRANCH   1   5
ATOM      5  C   UNL     1       8.324  -0.446  25.190  0.00  0.00    +0.050 C 
BRANCH   5   6
ATOM      6  C   UNL     1       8.743  -1.225  26.438  0.00  0.00    +0.157 C 
BRANCH   6   7
ATOM      7  O   UNL     1       8.875  -0.327  27.537  0.00  0.00    -0.395 OA
ATOM      8  H   UNL     1       9.818  -0.276  27.764  0.00  0.00    +0.209 HD
ENDBRANCH   6   7
ENDBRANCH   5   6
ENDBRANCH   1   5
BRANCH   1   9
ATOM      9  C   UNL     1      10.047  -0.935  23.428  0.00  0.00    +0.050 C 
BRANCH   9  10
ATOM     10  C   UNL     1       9.138  -1.368  22.280  0.00  0.00    +0.157 C 
BRANCH  10  11
ATOM     11  O   UNL     1       9.673  -0.898  21.047  0.00  0.00    -0.395 OA
ATOM     12  H   UNL     1       9.159  -1.299  20.327  0.00  0.00    +0.209 HD
ENDBRANCH  10  11
ENDBRANCH   9  10
ENDBRANCH   1   9
BRANCH   1  13
ATOM     13  C   UNL     1       9.044   1.439  23.585  0.00  0.00    +0.050 C 
BRANCH  13  14
ATOM     14  C   UNL     1      10.174   2.210  22.905  0.00  0.00    +0.157 C 
BRANCH  14  15
ATOM     15  O   UNL     1      10.059   2.083  21.493  0.00  0.00    -0.395 OA
ATOM     16  H   UNL     1      10.794   2.574  21.088  0.00  0.00    +0.209 HD
ENDBRANCH  14  15
ENDBRANCH  13  14
ENDBRANCH   1  13
TORSDOF 10
ENDMDL
