MODEL 1
REMARK VINA RESULT:      -7.0      0.000      0.000
REMARK  Name = 
REMARK  10 active torsions:
REMARK  status: ('A' for Active; 'I' for Inactive)
REMARK    1  A    between atoms: O_1  and  S_2
REMARK    2  A    between atoms: S_2  and  C_4
REMARK    3  A    between atoms: C_4  and  N_5
REMARK    4  A    between atoms: N_5  and  C_6
REMARK    5  A    between atoms: C_9  and  S_12
REMARK    6  A    between atoms: S_12  and  C_15
REMARK    7  A    between atoms: C_18  and  N_19
REMARK    8  A    between atoms: N_19  and  C_20
REMARK    9  A    between atoms: C_20  and  S_21
REMARK   10  A    between atoms: S_21  and  O_22
REMARK                            x       y       z     vdW  Elec       q    Type
REMARK                         _______ _______ _______ _____ _____    ______ ____
ROOT
ATOM      1  S   UNL     1       8.985  -4.308  25.442  0.00  0.00    +0.025 S 
ATOM      2  O   UNL     1       8.658  -4.275  26.858  0.00  0.00    -0.164 OA
ATOM      3  O   UNL     1      10.142  -5.041  24.969  0.00  0.00    -0.164 OA
ENDROOT
BRANCH   1   7
ATOM      4  C   UNL     1       9.693   0.071  24.183  0.00  0.00    +0.028 A 
ATOM      5  C   UNL     1       9.058  -0.234  25.397  0.00  0.00    +0.025 A 
ATOM      6  C   UNL     1       8.795  -1.559  25.773  0.00  0.00    +0.029 A 
ATOM      7  C   UNL     1       9.200  -2.604  24.941  0.00  0.00    +0.094 A 
ATOM      8  C   UNL     1       9.887  -2.324  23.758  0.00  0.00    +0.029 A 
ATOM      9  C   UNL     1      10.126  -0.996  23.386  0.00  0.00    +0.025 A 
BRANCH   4  10
ATOM     10  N   UNL     1       9.987   1.418  23.910  0.00  0.00    -0.325 N 
ATOM     11  H   UNL     1      10.452   1.485  23.002  0.00  0.00    +0.148 HD
BRANCH  10  12
ATOM     12  C   UNL     1       8.877   2.372  23.955  0.00  0.00    +0.278 C 
BRANCH  12  13
ATOM     13  S   UNL     1       8.195   2.546  22.251  0.00  0.00    +0.012 S 
ATOM     14  O   UNL     1       7.328   1.357  21.969  0.00  0.00    -0.165 OA
BRANCH  13  15
ATOM     15  O   UNL     1       9.592   2.205  21.526  0.00  0.00    -0.268 OA
ATOM     16  H   UNL     1      10.065   1.579  22.126  0.00  0.00    +0.243 HD
ENDBRANCH  13  15
ENDBRANCH  12  13
ENDBRANCH  10  12
ENDBRANCH   4  10
ENDBRANCH   1   7
BRANCH   1  17
ATOM     17  C   UNL     1       7.577  -5.007  24.605  0.00  0.00    +0.094 A 
ATOM     18  C   UNL     1       6.427  -5.306  25.339  0.00  0.00    +0.029 A 
ATOM     19  C   UNL     1       5.291  -5.805  24.685  0.00  0.00    +0.025 A 
ATOM     20  C   UNL     1       5.295  -6.042  23.300  0.00  0.00    +0.028 A 
ATOM     21  C   UNL     1       6.458  -5.718  22.589  0.00  0.00    +0.025 A 
ATOM     22  C   UNL     1       7.599  -5.221  23.231  0.00  0.00    +0.029 A 
BRANCH  20  23
ATOM     23  N   UNL     1       4.098  -6.454  22.666  0.00  0.00    -0.325 N 
ATOM     24  H   UNL     1       4.098  -6.111  21.703  0.00  0.00    +0.148 HD
BRANCH  23  25
ATOM     25  C   UNL     1       2.861  -6.052  23.357  0.00  0.00    +0.278 C 
BRANCH  25  26
ATOM     26  S   UNL     1       1.942  -7.591  23.779  0.00  0.00    +0.012 S 
ATOM     27  O   UNL     1       2.881  -8.479  24.537  0.00  0.00    -0.165 OA
BRANCH  26  28
ATOM     28  O   UNL     1       1.903  -8.128  22.259  0.00  0.00    -0.268 OA
ATOM     29  H   UNL     1       2.601  -7.661  21.732  0.00  0.00    +0.243 HD
ENDBRANCH  26  28
ENDBRANCH  25  26
ENDBRANCH  23  25
ENDBRANCH  20  23
ENDBRANCH   1  17
TORSDOF 10
ENDMDL
MODEL 2
REMARK VINA RESULT:      -7.0      0.116      8.112
REMARK  Name = 
REMARK  10 active torsions:
REMARK  status: ('A' for Active; 'I' for Inactive)
REMARK    1  A    between atoms: O_1  and  S_2
REMARK    2  A    between atoms: S_2  and  C_4
REMARK    3  A    between atoms: C_4  and  N_5
REMARK    4  A    between atoms: N_5  and  C_6
REMARK    5  A    between atoms: C_9  and  S_12
REMARK    6  A    between atoms: S_12  and  C_15
REMARK    7  A    between atoms: C_18  and  N_19
REMARK    8  A    between atoms: N_19  and  C_20
REMARK    9  A    between atoms: C_20  and  S_21
REMARK   10  A    between atoms: S_21  and  O_22
REMARK                            x       y       z     vdW  Elec       q    Type
REMARK                         _______ _______ _______ _____ _____    ______ ____
ROOT
ATOM      1  S   UNL     1       8.969  -4.316  25.457  0.00  0.00    +0.025 S 
ATOM      2  O   UNL     1      10.114  -5.096  25.017  0.00  0.00    -0.164 OA
ATOM      3  O   UNL     1       8.646  -4.208  26.865  0.00  0.00    -0.164 OA
ENDROOT
BRANCH   1   7
ATOM      4  C   UNL     1       5.268  -6.002  23.284  0.00  0.00    +0.028 A 
ATOM      5  C   UNL     1       5.228  -5.720  24.659  0.00  0.00    +0.025 A 
ATOM      6  C   UNL     1       6.358  -5.250  25.343  0.00  0.00    +0.029 A 
ATOM      7  C   UNL     1       7.543  -5.024  24.641  0.00  0.00    +0.094 A 
ATOM      8  C   UNL     1       7.586  -5.240  23.262  0.00  0.00    +0.029 A 
ATOM      9  C   UNL     1       6.455  -5.728  22.595  0.00  0.00    +0.025 A 
BRANCH   4  10
ATOM     10  N   UNL     1       4.075  -6.401  22.656  0.00  0.00    -0.325 N 
ATOM     11  H   UNL     1       4.093  -7.413  22.509  0.00  0.00    +0.148 HD
BRANCH  10  12
ATOM     12  C   UNL     1       2.816  -6.030  23.305  0.00  0.00    +0.278 C 
BRANCH  12  13
ATOM     13  S   UNL     1       1.932  -7.577  23.778  0.00  0.00    +0.012 S 
ATOM     14  O   UNL     1       2.898  -8.465  24.502  0.00  0.00    -0.165 OA
BRANCH  13  15
ATOM     15  O   UNL     1       1.897  -8.161  22.277  0.00  0.00    -0.268 OA
ATOM     16  H   UNL     1       1.330  -7.543  21.757  0.00  0.00    +0.243 HD
ENDBRANCH  13  15
ENDBRANCH  12  13
ENDBRANCH  10  12
ENDBRANCH   4  10
ENDBRANCH   1   7
BRANCH   1  17
ATOM     17  C   UNL     1       9.227  -2.652  24.878  0.00  0.00    +0.094 A 
ATOM     18  C   UNL     1       8.752  -1.582  25.640  0.00  0.00    +0.029 A 
ATOM     19  C   UNL     1       8.998  -0.265  25.225  0.00  0.00    +0.025 A 
ATOM     20  C   UNL     1       9.689   0.005  24.033  0.00  0.00    +0.028 A 
ATOM     21  C   UNL     1      10.166  -1.089  23.297  0.00  0.00    +0.025 A 
ATOM     22  C   UNL     1       9.927  -2.408  23.700  0.00  0.00    +0.029 A 
BRANCH  20  23
ATOM     23  N   UNL     1       9.999   1.346  23.702  0.00  0.00    -0.325 N 
ATOM     24  H   UNL     1      10.827   1.635  24.227  0.00  0.00    +0.148 HD
BRANCH  23  25
ATOM     25  C   UNL     1       8.899   2.304  23.904  0.00  0.00    +0.278 C 
BRANCH  25  26
ATOM     26  S   UNL     1       8.095   2.573  22.269  0.00  0.00    +0.012 S 
ATOM     27  O   UNL     1       7.121   1.454  22.061  0.00  0.00    -0.165 OA
BRANCH  26  28
ATOM     28  O   UNL     1       9.419   2.212  21.424  0.00  0.00    -0.268 OA
ATOM     29  H   UNL     1      10.220   2.474  21.948  0.00  0.00    +0.243 HD
ENDBRANCH  26  28
ENDBRANCH  25  26
ENDBRANCH  23  25
ENDBRANCH  20  23
ENDBRANCH   1  17
TORSDOF 10
ENDMDL
MODEL 3
REMARK VINA RESULT:      -6.9      0.790      8.411
REMARK  Name = 
REMARK  10 active torsions:
REMARK  status: ('A' for Active; 'I' for Inactive)
REMARK    1  A    between atoms: O_1  and  S_2
REMARK    2  A    between atoms: S_2  and  C_4
REMARK    3  A    between atoms: C_4  and  N_5
REMARK    4  A    between atoms: N_5  and  C_6
REMARK    5  A    between atoms: C_9  and  S_12
REMARK    6  A    between atoms: S_12  and  C_15
REMARK    7  A    between atoms: C_18  and  N_19
REMARK    8  A    between atoms: N_19  and  C_20
REMARK    9  A    between atoms: C_20  and  S_21
REMARK   10  A    between atoms: S_21  and  O_22
REMARK                            x       y       z     vdW  Elec       q    Type
REMARK                         _______ _______ _______ _____ _____    ______ ____
ROOT
ATOM      1  S   UNL     1       8.592  -4.746  25.587  0.00  0.00    +0.025 S 
ATOM      2  O   UNL     1       9.653  -5.381  24.823  0.00  0.00    -0.164 OA
ATOM      3  O   UNL     1       8.401  -5.060  26.988  0.00  0.00    -0.164 OA
ENDROOT
BRANCH   1   7
ATOM      4  C   UNL     1       4.680  -5.923  23.450  0.00  0.00    +0.028 A 
ATOM      5  C   UNL     1       5.819  -5.560  22.715  0.00  0.00    +0.025 A 
ATOM      6  C   UNL     1       7.003  -5.156  23.350  0.00  0.00    +0.029 A 
ATOM      7  C   UNL     1       7.066  -5.143  24.744  0.00  0.00    +0.094 A 
ATOM      8  C   UNL     1       5.963  -5.558  25.494  0.00  0.00    +0.029 A 
ATOM      9  C   UNL     1       4.781  -5.941  24.847  0.00  0.00    +0.025 A 
BRANCH   4  10
ATOM     10  N   UNL     1       3.556  -6.385  22.743  0.00  0.00    -0.325 N 
ATOM     11  H   UNL     1       3.697  -7.366  22.490  0.00  0.00    +0.148 HD
BRANCH  10  12
ATOM     12  C   UNL     1       2.248  -6.235  23.384  0.00  0.00    +0.278 C 
BRANCH  12  13
ATOM     13  S   UNL     1       1.552  -7.916  23.677  0.00  0.00    +0.012 S 
ATOM     14  O   UNL     1       2.577  -8.725  24.414  0.00  0.00    -0.165 OA
BRANCH  13  15
ATOM     15  O   UNL     1       1.704  -8.380  22.143  0.00  0.00    -0.268 OA
ATOM     16  H   UNL     1       1.744  -9.367  22.158  0.00  0.00    +0.243 HD
ENDBRANCH  13  15
ENDBRANCH  12  13
ENDBRANCH  10  12
ENDBRANCH   4  10
ENDBRANCH   1   7
BRANCH   1  17
ATOM     17  C   UNL     1       8.883  -2.990  25.507  0.00  0.00    +0.094 A 
ATOM     18  C   UNL     1       9.555  -2.459  24.404  0.00  0.00    +0.029 A 
ATOM     19  C   UNL     1       9.742  -1.073  24.300  0.00  0.00    +0.025 A 
ATOM     20  C   UNL     1       9.292  -0.202  25.307  0.00  0.00    +0.028 A 
ATOM     21  C   UNL     1       8.609  -0.763  26.394  0.00  0.00    +0.025 A 
ATOM     22  C   UNL     1       8.417  -2.145  26.509  0.00  0.00    +0.029 A 
BRANCH  20  23
ATOM     23  N   UNL     1       9.416   1.196  25.116  0.00  0.00    -0.325 N 
ATOM     24  H   UNL     1       8.481   1.606  25.053  0.00  0.00    +0.148 HD
BRANCH  23  25
ATOM     25  C   UNL     1      10.234   1.593  23.958  0.00  0.00    +0.278 C 
BRANCH  25  26
ATOM     26  S   UNL     1       9.105   2.375  22.730  0.00  0.00    +0.012 S 
ATOM     27  O   UNL     1       7.984   1.414  22.479  0.00  0.00    -0.165 OA
BRANCH  26  28
ATOM     28  O   UNL     1      10.141   2.227  21.505  0.00  0.00    -0.268 OA
ATOM     29  H   UNL     1       9.636   2.027  20.675  0.00  0.00    +0.243 HD
ENDBRANCH  26  28
ENDBRANCH  25  26
ENDBRANCH  23  25
ENDBRANCH  20  23
ENDBRANCH   1  17
TORSDOF 10
ENDMDL
MODEL 4
REMARK VINA RESULT:      -6.8      1.111      1.774
REMARK  Name = 
REMARK  10 active torsions:
REMARK  status: ('A' for Active; 'I' for Inactive)
REMARK    1  A    between atoms: O_1  and  S_2
REMARK    2  A    between atoms: S_2  and  C_4
REMARK    3  A    between atoms: C_4  and  N_5
REMARK    4  A    between atoms: N_5  and  C_6
REMARK    5  A    between atoms: C_9  and  S_12
REMARK    6  A    between atoms: S_12  and  C_15
REMARK    7  A    between atoms: C_18  and  N_19
REMARK    8  A    between atoms: N_19  and  C_20
REMARK    9  A    between atoms: C_20  and  S_21
REMARK   10  A    between atoms: S_21  and  O_22
REMARK                            x       y       z     vdW  Elec       q    Type
REMARK                         _______ _______ _______ _____ _____    ______ ____
ROOT
ATOM      1  S   UNL     1       8.579  -4.825  25.637  0.00  0.00    +0.025 S 
ATOM      2  O   UNL     1       8.349  -5.030  27.058  0.00  0.00    -0.164 OA
ATOM      3  O   UNL     1       9.615  -5.563  24.943  0.00  0.00    -0.164 OA
ENDROOT
BRANCH   1   7
ATOM      4  C   UNL     1       9.376  -0.316  25.095  0.00  0.00    +0.028 A 
ATOM      5  C   UNL     1       9.788  -1.241  24.122  0.00  0.00    +0.025 A 
ATOM      6  C   UNL     1       9.593  -2.619  24.293  0.00  0.00    +0.029 A 
ATOM      7  C   UNL     1       8.947  -3.086  25.439  0.00  0.00    +0.094 A 
ATOM      8  C   UNL     1       8.476  -2.178  26.390  0.00  0.00    +0.029 A 
ATOM      9  C   UNL     1       8.695  -0.806  26.215  0.00  0.00    +0.025 A 
BRANCH   4  10
ATOM     10  N   UNL     1       9.541   1.052  24.818  0.00  0.00    -0.325 N 
ATOM     11  H   UNL     1       9.434   1.587  25.683  0.00  0.00    +0.148 HD
BRANCH  10  12
ATOM     12  C   UNL     1      10.777   1.460  24.148  0.00  0.00    +0.278 C 
BRANCH  12  13
ATOM     13  S   UNL     1      10.446   3.020  23.223  0.00  0.00    +0.012 S 
ATOM     14  O   UNL     1       9.074   3.499  23.589  0.00  0.00    -0.165 OA
BRANCH  13  15
ATOM     15  O   UNL     1      10.247   2.280  21.806  0.00  0.00    -0.268 OA
ATOM     16  H   UNL     1       9.279   2.101  21.724  0.00  0.00    +0.243 HD
ENDBRANCH  13  15
ENDBRANCH  12  13
ENDBRANCH  10  12
ENDBRANCH   4  10
ENDBRANCH   1   7
BRANCH   1  17
ATOM     17  C   UNL     1       7.051  -5.214  24.809  0.00  0.00    +0.094 A 
ATOM     18  C   UNL     1       7.007  -5.191  23.413  0.00  0.00    +0.029 A 
ATOM     19  C   UNL     1       5.827  -5.549  22.746  0.00  0.00    +0.025 A 
ATOM     20  C   UNL     1       4.668  -5.903  23.457  0.00  0.00    +0.028 A 
ATOM     21  C   UNL     1       4.748  -5.931  24.856  0.00  0.00    +0.025 A 
ATOM     22  C   UNL     1       5.920  -5.575  25.534  0.00  0.00    +0.029 A 
BRANCH  20  23
ATOM     23  N   UNL     1       3.529  -6.351  22.744  0.00  0.00    -0.325 N 
ATOM     24  H   UNL     1       3.482  -5.856  21.851  0.00  0.00    +0.148 HD
BRANCH  23  25
ATOM     25  C   UNL     1       2.255  -6.227  23.472  0.00  0.00    +0.278 C 
BRANCH  25  26
ATOM     26  S   UNL     1       1.582  -7.926  23.696  0.00  0.00    +0.012 S 
ATOM     27  O   UNL     1       2.602  -8.714  24.459  0.00  0.00    -0.165 OA
BRANCH  26  28
ATOM     28  O   UNL     1       1.740  -8.324  22.142  0.00  0.00    -0.268 OA
ATOM     29  H   UNL     1       0.848  -8.304  21.710  0.00  0.00    +0.243 HD
ENDBRANCH  26  28
ENDBRANCH  25  26
ENDBRANCH  23  25
ENDBRANCH  20  23
ENDBRANCH   1  17
TORSDOF 10
ENDMDL
MODEL 5
REMARK VINA RESULT:      -6.6      1.519      1.822
REMARK  Name = 
REMARK  10 active torsions:
REMARK  status: ('A' for Active; 'I' for Inactive)
REMARK    1  A    between atoms: O_1  and  S_2
REMARK    2  A    between atoms: S_2  and  C_4
REMARK    3  A    between atoms: C_4  and  N_5
REMARK    4  A    between atoms: N_5  and  C_6
REMARK    5  A    between atoms: C_9  and  S_12
REMARK    6  A    between atoms: S_12  and  C_15
REMARK    7  A    between atoms: C_18  and  N_19
REMARK    8  A    between atoms: N_19  and  C_20
REMARK    9  A    between atoms: C_20  and  S_21
REMARK   10  A    between atoms: S_21  and  O_22
REMARK                            x       y       z     vdW  Elec       q    Type
REMARK                         _______ _______ _______ _____ _____    ______ ____
ROOT
ATOM      1  S   UNL     1       8.838  -3.721  24.918  0.00  0.00    +0.025 S 
ATOM      2  O   UNL     1       8.662  -3.161  26.249  0.00  0.00    -0.164 OA
ATOM      3  O   UNL     1       9.976  -4.566  24.617  0.00  0.00    -0.164 OA
ENDROOT
BRANCH   1   7
ATOM      4  C   UNL     1       9.091  -0.053  22.137  0.00  0.00    +0.028 A 
ATOM      5  C   UNL     1       7.897  -0.369  22.802  0.00  0.00    +0.025 A 
ATOM      6  C   UNL     1       7.790  -1.506  23.616  0.00  0.00    +0.029 A 
ATOM      7  C   UNL     1       8.903  -2.329  23.798  0.00  0.00    +0.094 A 
ATOM      8  C   UNL     1      10.118  -1.998  23.193  0.00  0.00    +0.029 A 
ATOM      9  C   UNL     1      10.204  -0.870  22.368  0.00  0.00    +0.025 A 
BRANCH   4  10
ATOM     10  N   UNL     1       9.141   1.142  21.398  0.00  0.00    -0.325 N 
ATOM     11  H   UNL     1       8.870   0.952  20.429  0.00  0.00    +0.148 HD
BRANCH  10  12
ATOM     12  C   UNL     1       8.365   2.278  21.900  0.00  0.00    +0.278 C 
BRANCH  12  13
ATOM     13  S   UNL     1       9.283   3.024  23.314  0.00  0.00    +0.012 S 
ATOM     14  O   UNL     1       8.869   4.460  23.435  0.00  0.00    -0.165 OA
BRANCH  13  15
ATOM     15  O   UNL     1      10.689   3.077  22.531  0.00  0.00    -0.268 OA
ATOM     16  H   UNL     1      10.705   3.943  22.055  0.00  0.00    +0.243 HD
ENDBRANCH  13  15
ENDBRANCH  12  13
ENDBRANCH  10  12
ENDBRANCH   4  10
ENDBRANCH   1   7
BRANCH   1  17
ATOM     17  C   UNL     1       7.389  -4.699  24.578  0.00  0.00    +0.094 A 
ATOM     18  C   UNL     1       7.113  -5.075  23.261  0.00  0.00    +0.029 A 
ATOM     19  C   UNL     1       6.007  -5.892  22.985  0.00  0.00    +0.025 A 
ATOM     20  C   UNL     1       5.145  -6.318  24.008  0.00  0.00    +0.028 A 
ATOM     21  C   UNL     1       5.456  -5.938  25.321  0.00  0.00    +0.025 A 
ATOM     22  C   UNL     1       6.556  -5.121  25.609  0.00  0.00    +0.029 A 
BRANCH  20  23
ATOM     23  N   UNL     1       4.098  -7.220  23.698  0.00  0.00    -0.325 N 
ATOM     24  H   UNL     1       4.295  -7.660  22.797  0.00  0.00    +0.148 HD
BRANCH  23  25
ATOM     25  C   UNL     1       2.750  -6.627  23.699  0.00  0.00    +0.278 C 
BRANCH  25  26
ATOM     26  S   UNL     1       1.540  -8.013  23.780  0.00  0.00    +0.012 S 
ATOM     27  O   UNL     1       2.161  -9.101  24.602  0.00  0.00    -0.165 OA
BRANCH  26  28
ATOM     28  O   UNL     1       1.723  -8.423  22.233  0.00  0.00    -0.268 OA
ATOM     29  H   UNL     1       2.641  -8.772  22.096  0.00  0.00    +0.243 HD
ENDBRANCH  26  28
ENDBRANCH  25  26
ENDBRANCH  23  25
ENDBRANCH  20  23
ENDBRANCH   1  17
TORSDOF 10
ENDMDL
MODEL 6
REMARK VINA RESULT:      -6.6      3.429      9.540
REMARK  Name = 
REMARK  10 active torsions:
REMARK  status: ('A' for Active; 'I' for Inactive)
REMARK    1  A    between atoms: O_1  and  S_2
REMARK    2  A    between atoms: S_2  and  C_4
REMARK    3  A    between atoms: C_4  and  N_5
REMARK    4  A    between atoms: N_5  and  C_6
REMARK    5  A    between atoms: C_9  and  S_12
REMARK    6  A    between atoms: S_12  and  C_15
REMARK    7  A    between atoms: C_18  and  N_19
REMARK    8  A    between atoms: N_19  and  C_20
REMARK    9  A    between atoms: C_20  and  S_21
REMARK   10  A    between atoms: S_21  and  O_22
REMARK                            x       y       z     vdW  Elec       q    Type
REMARK                         _______ _______ _______ _____ _____    ______ ____
ROOT
ATOM      1  S   UNL     1       9.266  -1.995  22.992  0.00  0.00    +0.025 S 
ATOM      2  O   UNL     1       8.409  -2.206  21.837  0.00  0.00    -0.164 OA
ATOM      3  O   UNL     1      10.550  -2.660  23.090  0.00  0.00    -0.164 OA
ENDROOT
BRANCH   1   7
ATOM      4  C   UNL     1       6.685  -3.322  26.574  0.00  0.00    +0.028 A 
ATOM      5  C   UNL     1       6.778  -1.968  26.218  0.00  0.00    +0.025 A 
ATOM      6  C   UNL     1       7.594  -1.543  25.159  0.00  0.00    +0.029 A 
ATOM      7  C   UNL     1       8.307  -2.487  24.419  0.00  0.00    +0.094 A 
ATOM      8  C   UNL     1       8.181  -3.845  24.719  0.00  0.00    +0.029 A 
ATOM      9  C   UNL     1       7.377  -4.253  25.791  0.00  0.00    +0.025 A 
BRANCH   4  10
ATOM     10  N   UNL     1       5.790  -3.676  27.599  0.00  0.00    -0.325 N 
ATOM     11  H   UNL     1       5.233  -2.859  27.858  0.00  0.00    +0.148 HD
BRANCH  10  12
ATOM     12  C   UNL     1       4.897  -4.810  27.353  0.00  0.00    +0.278 C 
BRANCH  12  13
ATOM     13  S   UNL     1       5.380  -6.183  28.483  0.00  0.00    +0.012 S 
ATOM     14  O   UNL     1       6.870  -6.156  28.644  0.00  0.00    -0.165 OA
BRANCH  13  15
ATOM     15  O   UNL     1       5.116  -7.337  27.392  0.00  0.00    -0.268 OA
ATOM     16  H   UNL     1       5.021  -6.876  26.524  0.00  0.00    +0.243 HD
ENDBRANCH  13  15
ENDBRANCH  12  13
ENDBRANCH  10  12
ENDBRANCH   4  10
ENDBRANCH   1   7
BRANCH   1  17
ATOM     17  C   UNL     1       9.605  -0.248  23.068  0.00  0.00    +0.094 A 
ATOM     18  C   UNL     1      10.441   0.242  24.074  0.00  0.00    +0.029 A 
ATOM     19  C   UNL     1      10.761   1.607  24.112  0.00  0.00    +0.025 A 
ATOM     20  C   UNL     1      10.229   2.505  23.173  0.00  0.00    +0.028 A 
ATOM     21  C   UNL     1       9.405   1.982  22.167  0.00  0.00    +0.025 A 
ATOM     22  C   UNL     1       9.077   0.621  22.118  0.00  0.00    +0.029 A 
BRANCH  20  23
ATOM     23  N   UNL     1      10.654   3.856  23.190  0.00  0.00    -0.325 N 
ATOM     24  H   UNL     1      10.384   4.300  22.310  0.00  0.00    +0.148 HD
BRANCH  23  25
ATOM     25  C   UNL     1      12.091   4.050  23.447  0.00  0.00    +0.278 C 
BRANCH  25  26
ATOM     26  S   UNL     1      12.525   5.750  22.889  0.00  0.00    +0.012 S 
ATOM     27  O   UNL     1      13.789   5.648  22.090  0.00  0.00    -0.165 OA
BRANCH  26  28
ATOM     28  O   UNL     1      12.934   6.259  24.362  0.00  0.00    -0.268 OA
ATOM     29  H   UNL     1      13.227   7.205  24.309  0.00  0.00    +0.243 HD
ENDBRANCH  26  28
ENDBRANCH  25  26
ENDBRANCH  23  25
ENDBRANCH  20  23
ENDBRANCH   1  17
TORSDOF 10
ENDMDL
MODEL 7
REMARK VINA RESULT:      -6.5      2.074      2.302
REMARK  Name = 
REMARK  10 active torsions:
REMARK  status: ('A' for Active; 'I' for Inactive)
REMARK    1  A    between atoms: O_1  and  S_2
REMARK    2  A    between atoms: S_2  and  C_4
REMARK    3  A    between atoms: C_4  and  N_5
REMARK    4  A    between atoms: N_5  and  C_6
REMARK    5  A    between atoms: C_9  and  S_12
REMARK    6  A    between atoms: S_12  and  C_15
REMARK    7  A    between atoms: C_18  and  N_19
REMARK    8  A    between atoms: N_19  and  C_20
REMARK    9  A    between atoms: C_20  and  S_21
REMARK   10  A    between atoms: S_21  and  O_22
REMARK                            x       y       z     vdW  Elec       q    Type
REMARK                         _______ _______ _______ _____ _____    ______ ____
ROOT
ATOM      1  S   UNL     1       9.014  -2.497  24.204  0.00  0.00    +0.025 S 
ATOM      2  O   UNL     1       8.788  -2.232  25.616  0.00  0.00    -0.164 OA
ATOM      3  O   UNL     1      10.281  -3.029  23.747  0.00  0.00    -0.164 OA
ENDROOT
BRANCH   1   7
ATOM      4  C   UNL     1       8.442   1.585  22.137  0.00  0.00    +0.028 A 
ATOM      5  C   UNL     1       7.390   0.984  22.846  0.00  0.00    +0.025 A 
ATOM      6  C   UNL     1       7.533  -0.277  23.442  0.00  0.00    +0.029 A 
ATOM      7  C   UNL     1       8.758  -0.941  23.360  0.00  0.00    +0.094 A 
ATOM      8  C   UNL     1       9.836  -0.335  22.711  0.00  0.00    +0.029 A 
ATOM      9  C   UNL     1       9.672   0.917  22.104  0.00  0.00    +0.025 A 
BRANCH   4  10
ATOM     10  N   UNL     1       8.244   2.881  21.631  0.00  0.00    -0.325 N 
ATOM     11  H   UNL     1       8.319   2.860  20.611  0.00  0.00    +0.148 HD
BRANCH  10  12
ATOM     12  C   UNL     1       7.009   3.571  22.009  0.00  0.00    +0.278 C 
BRANCH  12  13
ATOM     13  S   UNL     1       7.457   5.214  22.714  0.00  0.00    +0.012 S 
ATOM     14  O   UNL     1       7.424   6.223  21.606  0.00  0.00    -0.165 OA
BRANCH  13  15
ATOM     15  O   UNL     1       9.018   4.853  22.880  0.00  0.00    -0.268 OA
ATOM     16  H   UNL     1       9.366   5.460  23.577  0.00  0.00    +0.243 HD
ENDBRANCH  13  15
ENDBRANCH  12  13
ENDBRANCH  10  12
ENDBRANCH   4  10
ENDBRANCH   1   7
BRANCH   1  17
ATOM     17  C   UNL     1       7.771  -3.667  23.696  0.00  0.00    +0.094 A 
ATOM     18  C   UNL     1       7.127  -4.442  24.664  0.00  0.00    +0.029 A 
ATOM     19  C   UNL     1       6.108  -5.328  24.284  0.00  0.00    +0.025 A 
ATOM     20  C   UNL     1       5.739  -5.478  22.937  0.00  0.00    +0.028 A 
ATOM     21  C   UNL     1       6.393  -4.676  21.992  0.00  0.00    +0.025 A 
ATOM     22  C   UNL     1       7.413  -3.789  22.357  0.00  0.00    +0.029 A 
BRANCH  20  23
ATOM     23  N   UNL     1       4.641  -6.310  22.610  0.00  0.00    -0.325 N 
ATOM     24  H   UNL     1       4.618  -6.446  21.597  0.00  0.00    +0.148 HD
BRANCH  23  25
ATOM     25  C   UNL     1       3.336  -5.832  23.096  0.00  0.00    +0.278 C 
BRANCH  25  26
ATOM     26  S   UNL     1       2.572  -7.204  24.059  0.00  0.00    +0.012 S 
ATOM     27  O   UNL     1       3.687  -7.978  24.695  0.00  0.00    -0.165 OA
BRANCH  26  28
ATOM     28  O   UNL     1       2.108  -8.025  22.752  0.00  0.00    -0.268 OA
ATOM     29  H   UNL     1       1.183  -8.354  22.887  0.00  0.00    +0.243 HD
ENDBRANCH  26  28
ENDBRANCH  25  26
ENDBRANCH  23  25
ENDBRANCH  20  23
ENDBRANCH   1  17
TORSDOF 10
ENDMDL
MODEL 8
REMARK VINA RESULT:      -6.3      3.345      4.017
REMARK  Name = 
REMARK  10 active torsions:
REMARK  status: ('A' for Active; 'I' for Inactive)
REMARK    1  A    between atoms: O_1  and  S_2
REMARK    2  A    between atoms: S_2  and  C_4
REMARK    3  A    between atoms: C_4  and  N_5
REMARK    4  A    between atoms: N_5  and  C_6
REMARK    5  A    between atoms: C_9  and  S_12
REMARK    6  A    between atoms: S_12  and  C_15
REMARK    7  A    between atoms: C_18  and  N_19
REMARK    8  A    between atoms: N_19  and  C_20
REMARK    9  A    between atoms: C_20  and  S_21
REMARK   10  A    between atoms: S_21  and  O_22
REMARK                            x       y       z     vdW  Elec       q    Type
REMARK                         _______ _______ _______ _____ _____    ______ ____
ROOT
ATOM      1  S   UNL     1       9.256  -1.939  22.905  0.00  0.00    +0.025 S 
ATOM      2  O   UNL     1      10.657  -2.253  22.678  0.00  0.00    -0.164 OA
ATOM      3  O   UNL     1       8.288  -2.064  21.834  0.00  0.00    -0.164 OA
ENDROOT
BRANCH   1   7
ATOM      4  C   UNL     1       9.135   2.487  24.190  0.00  0.00    +0.028 A 
ATOM      5  C   UNL     1      10.320   1.741  24.293  0.00  0.00    +0.025 A 
ATOM      6  C   UNL     1      10.362   0.382  23.949  0.00  0.00    +0.029 A 
ATOM      7  C   UNL     1       9.211  -0.240  23.462  0.00  0.00    +0.094 A 
ATOM      8  C   UNL     1       8.038   0.500  23.295  0.00  0.00    +0.029 A 
ATOM      9  C   UNL     1       8.006   1.851  23.661  0.00  0.00    +0.025 A 
BRANCH   4  10
ATOM     10  N   UNL     1       9.191   3.861  24.484  0.00  0.00    -0.325 N 
ATOM     11  H   UNL     1       9.797   4.328  23.804  0.00  0.00    +0.148 HD
BRANCH  10  12
ATOM     12  C   UNL     1       7.921   4.583  24.575  0.00  0.00    +0.278 C 
BRANCH  12  13
ATOM     13  S   UNL     1       7.825   5.764  23.163  0.00  0.00    +0.012 S 
ATOM     14  O   UNL     1       7.313   5.022  21.965  0.00  0.00    -0.165 OA
BRANCH  13  15
ATOM     15  O   UNL     1       9.420   5.823  22.946  0.00  0.00    -0.268 OA
ATOM     16  H   UNL     1       9.558   6.140  22.020  0.00  0.00    +0.243 HD
ENDBRANCH  13  15
ENDBRANCH  12  13
ENDBRANCH  10  12
ENDBRANCH   4  10
ENDBRANCH   1   7
BRANCH   1  17
ATOM     17  C   UNL     1       8.694  -3.014  24.210  0.00  0.00    +0.094 A 
ATOM     18  C   UNL     1       8.295  -4.315  23.897  0.00  0.00    +0.029 A 
ATOM     19  C   UNL     1       7.904  -5.191  24.921  0.00  0.00    +0.025 A 
ATOM     20  C   UNL     1       7.874  -4.774  26.262  0.00  0.00    +0.028 A 
ATOM     21  C   UNL     1       8.294  -3.467  26.546  0.00  0.00    +0.025 A 
ATOM     22  C   UNL     1       8.686  -2.584  25.533  0.00  0.00    +0.029 A 
BRANCH  20  23
ATOM     23  N   UNL     1       7.566  -5.717  27.272  0.00  0.00    -0.325 N 
ATOM     24  H   UNL     1       7.496  -6.645  26.849  0.00  0.00    +0.148 HD
BRANCH  23  25
ATOM     25  C   UNL     1       6.355  -5.414  28.054  0.00  0.00    +0.278 C 
BRANCH  25  26
ATOM     26  S   UNL     1       5.028  -6.551  27.474  0.00  0.00    +0.012 S 
ATOM     27  O   UNL     1       3.741  -6.081  28.081  0.00  0.00    -0.165 OA
BRANCH  26  28
ATOM     28  O   UNL     1       5.543  -7.797  28.357  0.00  0.00    -0.268 OA
ATOM     29  H   UNL     1       6.346  -8.189  27.928  0.00  0.00    +0.243 HD
ENDBRANCH  26  28
ENDBRANCH  25  26
ENDBRANCH  23  25
ENDBRANCH  20  23
ENDBRANCH   1  17
TORSDOF 10
ENDMDL
MODEL 9
REMARK VINA RESULT:      -6.2      2.827      8.884
REMARK  Name = 
REMARK  10 active torsions:
REMARK  status: ('A' for Active; 'I' for Inactive)
REMARK    1  A    between atoms: O_1  and  S_2
REMARK    2  A    between atoms: S_2  and  C_4
REMARK    3  A    between atoms: C_4  and  N_5
REMARK    4  A    between atoms: N_5  and  C_6
REMARK    5  A    between atoms: C_9  and  S_12
REMARK    6  A    between atoms: S_12  and  C_15
REMARK    7  A    between atoms: C_18  and  N_19
REMARK    8  A    between atoms: N_19  and  C_20
REMARK    9  A    between atoms: C_20  and  S_21
REMARK   10  A    between atoms: S_21  and  O_22
REMARK                            x       y       z     vdW  Elec       q    Type
REMARK                         _______ _______ _______ _____ _____    ______ ____
ROOT
ATOM      1  S   UNL     1       9.214  -1.713  23.300  0.00  0.00    +0.025 S 
ATOM      2  O   UNL     1      10.284  -1.954  22.346  0.00  0.00    -0.164 OA
ATOM      3  O   UNL     1       9.503  -1.570  24.713  0.00  0.00    -0.164 OA
ENDROOT
BRANCH   1   7
ATOM      4  C   UNL     1       6.168  -5.153  22.915  0.00  0.00    +0.028 A 
ATOM      5  C   UNL     1       7.122  -5.150  23.945  0.00  0.00    +0.025 A 
ATOM      6  C   UNL     1       8.083  -4.134  24.050  0.00  0.00    +0.029 A 
ATOM      7  C   UNL     1       8.078  -3.084  23.130  0.00  0.00    +0.094 A 
ATOM      8  C   UNL     1       7.100  -3.037  22.134  0.00  0.00    +0.029 A 
ATOM      9  C   UNL     1       6.158  -4.068  22.030  0.00  0.00    +0.025 A 
BRANCH   4  10
ATOM     10  N   UNL     1       5.193  -6.166  22.920  0.00  0.00    -0.325 N 
ATOM     11  H   UNL     1       5.470  -6.904  22.268  0.00  0.00    +0.148 HD
BRANCH  10  12
ATOM     12  C   UNL     1       4.852  -6.767  24.211  0.00  0.00    +0.278 C 
BRANCH  12  13
ATOM     13  S   UNL     1       3.033  -7.059  24.250  0.00  0.00    +0.012 S 
ATOM     14  O   UNL     1       2.798  -8.521  24.484  0.00  0.00    -0.165 OA
BRANCH  13  15
ATOM     15  O   UNL     1       2.846  -6.873  22.661  0.00  0.00    -0.268 OA
ATOM     16  H   UNL     1       2.332  -6.038  22.542  0.00  0.00    +0.243 HD
ENDBRANCH  13  15
ENDBRANCH  12  13
ENDBRANCH  10  12
ENDBRANCH   4  10
ENDBRANCH   1   7
BRANCH   1  17
ATOM     17  C   UNL     1       8.412  -0.203  22.802  0.00  0.00    +0.094 A 
ATOM     18  C   UNL     1       7.339   0.281  23.554  0.00  0.00    +0.029 A 
ATOM     19  C   UNL     1       6.734   1.498  23.207  0.00  0.00    +0.025 A 
ATOM     20  C   UNL     1       7.167   2.232  22.090  0.00  0.00    +0.028 A 
ATOM     21  C   UNL     1       8.255   1.729  21.364  0.00  0.00    +0.025 A 
ATOM     22  C   UNL     1       8.867   0.514  21.700  0.00  0.00    +0.029 A 
BRANCH  20  23
ATOM     23  N   UNL     1       6.593   3.500  21.832  0.00  0.00    -0.325 N 
ATOM     24  H   UNL     1       6.948   3.849  20.939  0.00  0.00    +0.148 HD
BRANCH  23  25
ATOM     25  C   UNL     1       6.797   4.499  22.895  0.00  0.00    +0.278 C 
BRANCH  25  26
ATOM     26  S   UNL     1       7.390   6.046  22.089  0.00  0.00    +0.012 S 
ATOM     27  O   UNL     1       7.904   6.945  23.171  0.00  0.00    -0.165 OA
BRANCH  26  28
ATOM     28  O   UNL     1       5.909   6.558  21.710  0.00  0.00    -0.268 OA
ATOM     29  H   UNL     1       5.669   6.219  20.810  0.00  0.00    +0.243 HD
ENDBRANCH  26  28
ENDBRANCH  25  26
ENDBRANCH  23  25
ENDBRANCH  20  23
ENDBRANCH   1  17
TORSDOF 10
ENDMDL
