MODEL 1
REMARK VINA RESULT:      -7.3      0.000      0.000
REMARK  Name = 
REMARK  6 active torsions:
REMARK  status: ('A' for Active; 'I' for Inactive)
REMARK    1  A    between atoms: C_1  and  C_2
REMARK    2  A    between atoms: C_4  and  N_5
REMARK    3  A    between atoms: C_14  and  C_21
REMARK    4  A    between atoms: C_15  and  O_16
REMARK    5  A    between atoms: C_24  and  O_25
REMARK    6  A    between atoms: C_26  and  O_27
REMARK                            x       y       z     vdW  Elec       q    Type
REMARK                         _______ _______ _______ _____ _____    ______ ____
ROOT
ATOM      1  C   UNL     1      10.377   2.506  23.710  0.00  0.00    +0.044 C 
ATOM      2  C   UNL     1       9.654   1.312  24.267  0.00  0.00    -0.048 A 
ATOM      3  C   UNL     1       9.993   0.020  23.847  0.00  0.00    +0.019 A 
ATOM      4  C   UNL     1       9.300  -1.088  24.357  0.00  0.00    +0.070 A 
ATOM      5  C   UNL     1       8.249  -0.934  25.258  0.00  0.00    +0.162 A 
ATOM      6  O   UNL     1       7.536  -2.006  25.739  0.00  0.00    -0.449 OA
ATOM      7  C   UNL     1       7.835  -3.285  25.282  0.00  0.00    +0.181 A 
ATOM      8  C   UNL     1       8.838  -3.561  24.427  0.00  0.00    +0.208 A 
ATOM      9  C   UNL     1       7.898   0.362  25.664  0.00  0.00    +0.094 A 
ATOM     10  C   UNL     1       9.673  -2.444  23.918  0.00  0.00    +0.234 A 
ATOM     11  O   UNL     1      10.623  -2.649  23.173  0.00  0.00    -0.283 OA
ATOM     12  C   UNL     1       8.618   1.470  25.191  0.00  0.00    +0.031 A 
ENDROOT
BRANCH   9  13
ATOM     13  N   UNL     1       6.818   0.665  26.544  0.00  0.00    -0.204 N 
ATOM     14  S   UNL     1       5.265   0.926  25.936  0.00  0.00    +0.046 S 
ATOM     15  O   UNL     1       4.762  -0.317  25.370  0.00  0.00    -0.155 OA
ATOM     16  O   UNL     1       5.259   2.176  25.208  0.00  0.00    -0.155 OA
ATOM     17  C   UNL     1       4.550   1.198  27.560  0.00  0.00    +0.190 C 
ATOM     18  C   UNL     1       5.698   1.011  28.555  0.00  0.00    +0.045 C 
ATOM     19  C   UNL     1       6.997   1.354  27.817  0.00  0.00    +0.133 C 
ENDBRANCH   9  13
BRANCH   7  20
ATOM     20  C   UNL     1       6.983  -4.355  25.868  0.00  0.00    +0.025 A 
ATOM     21  C   UNL     1       7.284  -4.880  27.134  0.00  0.00    +0.060 A 
ATOM     22  C   UNL     1       6.476  -5.869  27.685  0.00  0.00    +0.159 A 
ATOM     23  C   UNL     1       5.379  -6.376  26.992  0.00  0.00    +0.158 A 
ATOM     24  C   UNL     1       5.064  -5.886  25.737  0.00  0.00    +0.050 A 
ATOM     25  C   UNL     1       5.852  -4.866  25.194  0.00  0.00    +0.015 A 
BRANCH  22  26
ATOM     26  O   UNL     1       6.761  -6.343  28.934  0.00  0.00    -0.503 OA
ATOM     27  H   UNL     1       6.444  -5.643  29.538  0.00  0.00    +0.292 HD
ENDBRANCH  22  26
BRANCH  23  28
ATOM     28  O   UNL     1       4.634  -7.350  27.595  0.00  0.00    -0.503 OA
ATOM     29  H   UNL     1       4.837  -7.336  28.547  0.00  0.00    +0.292 HD
ENDBRANCH  23  28
ENDBRANCH   7  20
BRANCH   8  30
ATOM     30  O   UNL     1       9.162  -4.849  24.040  0.00  0.00    -0.501 OA
ATOM     31  H   UNL     1      10.075  -5.003  24.343  0.00  0.00    +0.292 HD
ENDBRANCH   8  30
TORSDOF 5
ENDMDL
MODEL 2
REMARK VINA RESULT:      -7.1      1.989      6.134
REMARK  Name = 
REMARK  6 active torsions:
REMARK  status: ('A' for Active; 'I' for Inactive)
REMARK    1  A    between atoms: C_1  and  C_2
REMARK    2  A    between atoms: C_4  and  N_5
REMARK    3  A    between atoms: C_14  and  C_21
REMARK    4  A    between atoms: C_15  and  O_16
REMARK    5  A    between atoms: C_24  and  O_25
REMARK    6  A    between atoms: C_26  and  O_27
REMARK                            x       y       z     vdW  Elec       q    Type
REMARK                         _______ _______ _______ _____ _____    ______ ____
ROOT
ATOM      1  C   UNL     1       5.577  -6.150  27.974  0.00  0.00    +0.044 C 
ATOM      2  C   UNL     1       6.152  -4.951  27.274  0.00  0.00    -0.048 A 
ATOM      3  C   UNL     1       7.240  -5.093  26.405  0.00  0.00    +0.019 A 
ATOM      4  C   UNL     1       7.783  -3.967  25.770  0.00  0.00    +0.070 A 
ATOM      5  C   UNL     1       7.283  -2.689  26.008  0.00  0.00    +0.162 A 
ATOM      6  O   UNL     1       7.827  -1.570  25.422  0.00  0.00    -0.449 OA
ATOM      7  C   UNL     1       8.942  -1.703  24.602  0.00  0.00    +0.181 A 
ATOM      8  C   UNL     1       9.503  -2.885  24.284  0.00  0.00    +0.208 A 
ATOM      9  C   UNL     1       6.204  -2.545  26.892  0.00  0.00    +0.094 A 
ATOM     10  C   UNL     1       8.921  -4.129  24.848  0.00  0.00    +0.234 A 
ATOM     11  O   UNL     1       9.369  -5.230  24.554  0.00  0.00    -0.283 OA
ATOM     12  C   UNL     1       5.629  -3.674  27.494  0.00  0.00    +0.031 A 
ENDROOT
BRANCH   9  13
ATOM     13  N   UNL     1       5.625  -1.294  27.258  0.00  0.00    -0.204 N 
ATOM     14  S   UNL     1       4.406  -0.605  26.315  0.00  0.00    +0.046 S 
ATOM     15  O   UNL     1       3.218  -1.443  26.390  0.00  0.00    -0.155 OA
ATOM     16  O   UNL     1       4.982  -0.175  25.059  0.00  0.00    -0.155 OA
ATOM     17  C   UNL     1       4.223   0.822  27.387  0.00  0.00    +0.190 C 
ATOM     18  C   UNL     1       5.213   0.607  28.536  0.00  0.00    +0.045 C 
ATOM     19  C   UNL     1       6.350  -0.266  27.996  0.00  0.00    +0.133 C 
ENDBRANCH   9  13
BRANCH   7  20
ATOM     20  C   UNL     1       9.442  -0.419  24.042  0.00  0.00    +0.025 A 
ATOM     21  C   UNL     1       8.977   0.036  22.799  0.00  0.00    +0.060 A 
ATOM     22  C   UNL     1       9.435   1.245  22.287  0.00  0.00    +0.159 A 
ATOM     23  C   UNL     1      10.375   2.011  22.972  0.00  0.00    +0.158 A 
ATOM     24  C   UNL     1      10.860   1.583  24.195  0.00  0.00    +0.050 A 
ATOM     25  C   UNL     1      10.376   0.386  24.732  0.00  0.00    +0.015 A 
BRANCH  22  26
ATOM     26  O   UNL     1       8.944   1.692  21.093  0.00  0.00    -0.503 OA
ATOM     27  H   UNL     1       9.461   1.206  20.420  0.00  0.00    +0.292 HD
ENDBRANCH  22  26
BRANCH  23  28
ATOM     28  O   UNL     1      10.781   3.185  22.405  0.00  0.00    -0.503 OA
ATOM     29  H   UNL     1      11.379   2.971  21.666  0.00  0.00    +0.292 HD
ENDBRANCH  23  28
ENDBRANCH   7  20
BRANCH   8  30
ATOM     30  O   UNL     1      10.569  -2.999  23.410  0.00  0.00    -0.501 OA
ATOM     31  H   UNL     1      10.293  -3.634  22.724  0.00  0.00    +0.292 HD
ENDBRANCH   8  30
TORSDOF 5
ENDMDL
MODEL 3
REMARK VINA RESULT:      -6.9      2.606      3.676
REMARK  Name = 
REMARK  6 active torsions:
REMARK  status: ('A' for Active; 'I' for Inactive)
REMARK    1  A    between atoms: C_1  and  C_2
REMARK    2  A    between atoms: C_4  and  N_5
REMARK    3  A    between atoms: C_14  and  C_21
REMARK    4  A    between atoms: C_15  and  O_16
REMARK    5  A    between atoms: C_24  and  O_25
REMARK    6  A    between atoms: C_26  and  O_27
REMARK                            x       y       z     vdW  Elec       q    Type
REMARK                         _______ _______ _______ _____ _____    ______ ____
ROOT
ATOM      1  C   UNL     1       9.059   5.705  25.026  0.00  0.00    +0.044 C 
ATOM      2  C   UNL     1       8.753   4.243  24.870  0.00  0.00    -0.048 A 
ATOM      3  C   UNL     1       9.302   3.514  23.808  0.00  0.00    +0.019 A 
ATOM      4  C   UNL     1       8.996   2.154  23.658  0.00  0.00    +0.070 A 
ATOM      5  C   UNL     1       8.124   1.506  24.531  0.00  0.00    +0.162 A 
ATOM      6  O   UNL     1       7.784   0.183  24.377  0.00  0.00    -0.449 OA
ATOM      7  C   UNL     1       8.285  -0.528  23.291  0.00  0.00    +0.181 A 
ATOM      8  C   UNL     1       9.147  -0.017  22.393  0.00  0.00    +0.208 A 
ATOM      9  C   UNL     1       7.561   2.241  25.584  0.00  0.00    +0.094 A 
ATOM     10  C   UNL     1       9.588   1.393  22.544  0.00  0.00    +0.234 A 
ATOM     11  O   UNL     1      10.404   1.889  21.778  0.00  0.00    -0.283 OA
ATOM     12  C   UNL     1       7.900   3.591  25.764  0.00  0.00    +0.031 A 
ENDROOT
BRANCH   9  13
ATOM     13  N   UNL     1       6.623   1.716  26.520  0.00  0.00    -0.204 N 
ATOM     14  S   UNL     1       4.964   1.857  26.242  0.00  0.00    +0.046 S 
ATOM     15  O   UNL     1       4.607   1.056  25.081  0.00  0.00    -0.155 OA
ATOM     16  O   UNL     1       4.591   3.249  26.376  0.00  0.00    -0.155 OA
ATOM     17  C   UNL     1       4.519   0.991  27.750  0.00  0.00    +0.190 C 
ATOM     18  C   UNL     1       5.845   0.590  28.403  0.00  0.00    +0.045 C 
ATOM     19  C   UNL     1       6.899   1.604  27.948  0.00  0.00    +0.133 C 
ENDBRANCH   9  13
BRANCH   7  20
ATOM     20  C   UNL     1       7.833  -1.944  23.230  0.00  0.00    +0.025 A 
ATOM     21  C   UNL     1       6.651  -2.278  22.553  0.00  0.00    +0.060 A 
ATOM     22  C   UNL     1       6.241  -3.605  22.485  0.00  0.00    +0.159 A 
ATOM     23  C   UNL     1       6.969  -4.619  23.103  0.00  0.00    +0.158 A 
ATOM     24  C   UNL     1       8.132  -4.319  23.788  0.00  0.00    +0.050 A 
ATOM     25  C   UNL     1       8.569  -2.992  23.829  0.00  0.00    +0.015 A 
BRANCH  22  26
ATOM     26  O   UNL     1       5.107  -3.919  21.790  0.00  0.00    -0.503 OA
ATOM     27  H   UNL     1       4.586  -3.092  21.790  0.00  0.00    +0.292 HD
ENDBRANCH  22  26
BRANCH  23  28
ATOM     28  O   UNL     1       6.502  -5.899  22.998  0.00  0.00    -0.503 OA
ATOM     29  H   UNL     1       6.060  -6.127  23.835  0.00  0.00    +0.292 HD
ENDBRANCH  23  28
ENDBRANCH   7  20
BRANCH   8  30
ATOM     30  O   UNL     1       9.687  -0.764  21.361  0.00  0.00    -0.501 OA
ATOM     31  H   UNL     1      10.326  -1.375  21.771  0.00  0.00    +0.292 HD
ENDBRANCH   8  30
TORSDOF 5
ENDMDL
MODEL 4
REMARK VINA RESULT:      -6.8      3.191      7.539
REMARK  Name = 
REMARK  6 active torsions:
REMARK  status: ('A' for Active; 'I' for Inactive)
REMARK    1  A    between atoms: C_1  and  C_2
REMARK    2  A    between atoms: C_4  and  N_5
REMARK    3  A    between atoms: C_14  and  C_21
REMARK    4  A    between atoms: C_15  and  O_16
REMARK    5  A    between atoms: C_24  and  O_25
REMARK    6  A    between atoms: C_26  and  O_27
REMARK                            x       y       z     vdW  Elec       q    Type
REMARK                         _______ _______ _______ _____ _____    ______ ____
ROOT
ATOM      1  C   UNL     1       2.333  -4.255  27.423  0.00  0.00    +0.044 C 
ATOM      2  C   UNL     1       3.400  -3.483  26.698  0.00  0.00    -0.048 A 
ATOM      3  C   UNL     1       3.539  -2.105  26.903  0.00  0.00    +0.019 A 
ATOM      4  C   UNL     1       4.524  -1.389  26.208  0.00  0.00    +0.070 A 
ATOM      5  C   UNL     1       5.359  -2.014  25.283  0.00  0.00    +0.162 A 
ATOM      6  O   UNL     1       6.305  -1.320  24.566  0.00  0.00    -0.449 OA
ATOM      7  C   UNL     1       6.408   0.058  24.728  0.00  0.00    +0.181 A 
ATOM      8  C   UNL     1       5.671   0.768  25.603  0.00  0.00    +0.208 A 
ATOM      9  C   UNL     1       5.206  -3.391  25.065  0.00  0.00    +0.094 A 
ATOM     10  C   UNL     1       4.671   0.058  26.440  0.00  0.00    +0.234 A 
ATOM     11  O   UNL     1       4.008   0.654  27.279  0.00  0.00    -0.283 OA
ATOM     12  C   UNL     1       4.252  -4.119  25.792  0.00  0.00    +0.031 A 
ENDROOT
BRANCH   9  13
ATOM     13  N   UNL     1       5.961  -4.144  24.119  0.00  0.00    -0.204 N 
ATOM     14  S   UNL     1       5.375  -4.387  22.554  0.00  0.00    +0.046 S 
ATOM     15  O   UNL     1       5.338  -3.109  21.858  0.00  0.00    -0.155 OA
ATOM     16  O   UNL     1       4.234  -5.274  22.621  0.00  0.00    -0.155 OA
ATOM     17  C   UNL     1       6.812  -5.329  22.038  0.00  0.00    +0.190 C 
ATOM     18  C   UNL     1       7.748  -5.354  23.249  0.00  0.00    +0.045 C 
ATOM     19  C   UNL     1       6.875  -5.215  24.500  0.00  0.00    +0.133 C 
ENDBRANCH   9  13
BRANCH   7  20
ATOM     20  C   UNL     1       7.459   0.692  23.887  0.00  0.00    +0.025 A 
ATOM     21  C   UNL     1       8.755   0.867  24.394  0.00  0.00    +0.060 A 
ATOM     22  C   UNL     1       9.739   1.446  23.598  0.00  0.00    +0.159 A 
ATOM     23  C   UNL     1       9.459   1.884  22.307  0.00  0.00    +0.158 A 
ATOM     24  C   UNL     1       8.187   1.734  21.783  0.00  0.00    +0.050 A 
ATOM     25  C   UNL     1       7.203   1.121  22.565  0.00  0.00    +0.015 A 
BRANCH  22  26
ATOM     26  O   UNL     1      11.005   1.576  24.093  0.00  0.00    -0.503 OA
ATOM     27  H   UNL     1      11.217   2.523  23.974  0.00  0.00    +0.292 HD
ENDBRANCH  22  26
BRANCH  23  28
ATOM     28  O   UNL     1      10.474   2.447  21.586  0.00  0.00    -0.503 OA
ATOM     29  H   UNL     1      10.917   1.737  21.087  0.00  0.00    +0.292 HD
ENDBRANCH  23  28
ENDBRANCH   7  20
BRANCH   8  30
ATOM     30  O   UNL     1       5.840   2.127  25.797  0.00  0.00    -0.501 OA
ATOM     31  H   UNL     1       5.936   2.256  26.758  0.00  0.00    +0.292 HD
ENDBRANCH   8  30
TORSDOF 5
ENDMDL
MODEL 5
REMARK VINA RESULT:      -6.7      1.985      2.883
REMARK  Name = 
REMARK  6 active torsions:
REMARK  status: ('A' for Active; 'I' for Inactive)
REMARK    1  A    between atoms: C_1  and  C_2
REMARK    2  A    between atoms: C_4  and  N_5
REMARK    3  A    between atoms: C_14  and  C_21
REMARK    4  A    between atoms: C_15  and  O_16
REMARK    5  A    between atoms: C_24  and  O_25
REMARK    6  A    between atoms: C_26  and  O_27
REMARK                            x       y       z     vdW  Elec       q    Type
REMARK                         _______ _______ _______ _____ _____    ______ ____
ROOT
ATOM      1  C   UNL     1       7.389   4.965  22.197  0.00  0.00    +0.044 C 
ATOM      2  C   UNL     1       7.501   3.623  22.861  0.00  0.00    -0.048 A 
ATOM      3  C   UNL     1       8.078   2.542  22.182  0.00  0.00    +0.019 A 
ATOM      4  C   UNL     1       8.160   1.287  22.802  0.00  0.00    +0.070 A 
ATOM      5  C   UNL     1       7.650   1.075  24.080  0.00  0.00    +0.162 A 
ATOM      6  O   UNL     1       7.689  -0.158  24.688  0.00  0.00    -0.449 OA
ATOM      7  C   UNL     1       8.211  -1.244  23.994  0.00  0.00    +0.181 A 
ATOM      8  C   UNL     1       8.749  -1.159  22.763  0.00  0.00    +0.208 A 
ATOM      9  C   UNL     1       7.056   2.153  24.753  0.00  0.00    +0.094 A 
ATOM     10  C   UNL     1       8.779   0.160  22.082  0.00  0.00    +0.234 A 
ATOM     11  O   UNL     1       9.297   0.296  20.981  0.00  0.00    -0.283 OA
ATOM     12  C   UNL     1       7.012   3.421  24.154  0.00  0.00    +0.031 A 
ENDROOT
BRANCH   9  13
ATOM     13  N   UNL     1       6.456   2.064  26.044  0.00  0.00    -0.204 N 
ATOM     14  S   UNL     1       4.820   1.682  26.203  0.00  0.00    +0.046 S 
ATOM     15  O   UNL     1       4.606   0.314  25.753  0.00  0.00    -0.155 OA
ATOM     16  O   UNL     1       4.036   2.796  25.717  0.00  0.00    -0.155 OA
ATOM     17  C   UNL     1       4.862   1.741  27.996  0.00  0.00    +0.190 C 
ATOM     18  C   UNL     1       6.313   2.058  28.366  0.00  0.00    +0.045 C 
ATOM     19  C   UNL     1       6.922   2.832  27.193  0.00  0.00    +0.133 C 
ENDBRANCH   9  13
BRANCH   7  20
ATOM     20  C   UNL     1       8.185  -2.522  24.755  0.00  0.00    +0.025 A 
ATOM     21  C   UNL     1       9.279  -3.397  24.699  0.00  0.00    +0.060 A 
ATOM     22  C   UNL     1       9.257  -4.584  25.425  0.00  0.00    +0.159 A 
ATOM     23  C   UNL     1       8.152  -4.940  26.194  0.00  0.00    +0.158 A 
ATOM     24  C   UNL     1       7.053  -4.102  26.260  0.00  0.00    +0.050 A 
ATOM     25  C   UNL     1       7.085  -2.892  25.561  0.00  0.00    +0.015 A 
BRANCH  22  26
ATOM     26  O   UNL     1      10.346  -5.408  25.390  0.00  0.00    -0.503 OA
ATOM     27  H   UNL     1      10.746  -5.321  26.278  0.00  0.00    +0.292 HD
ENDBRANCH  22  26
BRANCH  23  28
ATOM     28  O   UNL     1       8.200  -6.123  26.876  0.00  0.00    -0.503 OA
ATOM     29  H   UNL     1       7.615  -6.046  27.652  0.00  0.00    +0.292 HD
ENDBRANCH  23  28
ENDBRANCH   7  20
BRANCH   8  30
ATOM     30  O   UNL     1       9.327  -2.240  22.119  0.00  0.00    -0.501 OA
ATOM     31  H   UNL     1      10.193  -2.380  22.544  0.00  0.00    +0.292 HD
ENDBRANCH   8  30
TORSDOF 5
ENDMDL
MODEL 6
REMARK VINA RESULT:      -6.7      1.175      1.773
REMARK  Name = 
REMARK  6 active torsions:
REMARK  status: ('A' for Active; 'I' for Inactive)
REMARK    1  A    between atoms: C_1  and  C_2
REMARK    2  A    between atoms: C_4  and  N_5
REMARK    3  A    between atoms: C_14  and  C_21
REMARK    4  A    between atoms: C_15  and  O_16
REMARK    5  A    between atoms: C_24  and  O_25
REMARK    6  A    between atoms: C_26  and  O_27
REMARK                            x       y       z     vdW  Elec       q    Type
REMARK                         _______ _______ _______ _____ _____    ______ ____
ROOT
ATOM      1  C   UNL     1       9.918   4.073  23.735  0.00  0.00    +0.044 C 
ATOM      2  C   UNL     1       9.392   2.754  24.224  0.00  0.00    -0.048 A 
ATOM      3  C   UNL     1       9.920   1.555  23.731  0.00  0.00    +0.019 A 
ATOM      4  C   UNL     1       9.409   0.327  24.177  0.00  0.00    +0.070 A 
ATOM      5  C   UNL     1       8.356   0.268  25.087  0.00  0.00    +0.162 A 
ATOM      6  O   UNL     1       7.819  -0.926  25.506  0.00  0.00    -0.449 OA
ATOM      7  C   UNL     1       8.305  -2.116  24.977  0.00  0.00    +0.181 A 
ATOM      8  C   UNL     1       9.330  -2.187  24.107  0.00  0.00    +0.208 A 
ATOM      9  C   UNL     1       7.815   1.470  25.566  0.00  0.00    +0.094 A 
ATOM     10  C   UNL     1       9.980  -0.929  23.661  0.00  0.00    +0.234 A 
ATOM     11  O   UNL     1      10.943  -0.944  22.905  0.00  0.00    -0.283 OA
ATOM     12  C   UNL     1       8.353   2.699  25.156  0.00  0.00    +0.031 A 
ENDROOT
BRANCH   9  13
ATOM     13  N   UNL     1       6.710   1.554  26.463  0.00  0.00    -0.204 N 
ATOM     14  S   UNL     1       5.129   1.594  25.873  0.00  0.00    +0.046 S 
ATOM     15  O   UNL     1       4.823   0.315  25.247  0.00  0.00    -0.155 OA
ATOM     16  O   UNL     1       4.916   2.861  25.207  0.00  0.00    -0.155 OA
ATOM     17  C   UNL     1       4.396   1.669  27.509  0.00  0.00    +0.190 C 
ATOM     18  C   UNL     1       5.570   1.620  28.491  0.00  0.00    +0.045 C 
ATOM     19  C   UNL     1       6.790   2.200  27.768  0.00  0.00    +0.133 C 
ENDBRANCH   9  13
BRANCH   7  20
ATOM     20  C   UNL     1       7.633  -3.336  25.502  0.00  0.00    +0.025 A 
ATOM     21  C   UNL     1       6.464  -3.813  24.892  0.00  0.00    +0.060 A 
ATOM     22  C   UNL     1       5.848  -4.963  25.376  0.00  0.00    +0.159 A 
ATOM     23  C   UNL     1       6.354  -5.643  26.480  0.00  0.00    +0.158 A 
ATOM     24  C   UNL     1       7.499  -5.190  27.110  0.00  0.00    +0.050 A 
ATOM     25  C   UNL     1       8.143  -4.056  26.605  0.00  0.00    +0.015 A 
BRANCH  22  26
ATOM     26  O   UNL     1       4.731  -5.436  24.748  0.00  0.00    -0.503 OA
ATOM     27  H   UNL     1       4.227  -4.633  24.509  0.00  0.00    +0.292 HD
ENDBRANCH  22  26
BRANCH  23  28
ATOM     28  O   UNL     1       5.693  -6.762  26.902  0.00  0.00    -0.503 OA
ATOM     29  H   UNL     1       4.762  -6.521  27.058  0.00  0.00    +0.292 HD
ENDBRANCH  23  28
ENDBRANCH   7  20
BRANCH   8  30
ATOM     30  O   UNL     1       9.843  -3.387  23.647  0.00  0.00    -0.501 OA
ATOM     31  H   UNL     1       9.435  -3.543  22.776  0.00  0.00    +0.292 HD
ENDBRANCH   8  30
TORSDOF 5
ENDMDL
MODEL 7
REMARK VINA RESULT:      -6.6      2.553      6.955
REMARK  Name = 
REMARK  6 active torsions:
REMARK  status: ('A' for Active; 'I' for Inactive)
REMARK    1  A    between atoms: C_1  and  C_2
REMARK    2  A    between atoms: C_4  and  N_5
REMARK    3  A    between atoms: C_14  and  C_21
REMARK    4  A    between atoms: C_15  and  O_16
REMARK    5  A    between atoms: C_24  and  O_25
REMARK    6  A    between atoms: C_26  and  O_27
REMARK                            x       y       z     vdW  Elec       q    Type
REMARK                         _______ _______ _______ _____ _____    ______ ____
ROOT
ATOM      1  C   UNL     1       8.276  -4.890  25.085  0.00  0.00    +0.044 C 
ATOM      2  C   UNL     1       8.171  -3.407  24.870  0.00  0.00    -0.048 A 
ATOM      3  C   UNL     1       8.899  -2.786  23.848  0.00  0.00    +0.019 A 
ATOM      4  C   UNL     1       8.810  -1.398  23.667  0.00  0.00    +0.070 A 
ATOM      5  C   UNL     1       8.031  -0.605  24.507  0.00  0.00    +0.162 A 
ATOM      6  O   UNL     1       7.961   0.760  24.366  0.00  0.00    -0.449 OA
ATOM      7  C   UNL     1       8.726   1.385  23.387  0.00  0.00    +0.181 A 
ATOM      8  C   UNL     1       9.502   0.725  22.506  0.00  0.00    +0.208 A 
ATOM      9  C   UNL     1       7.315  -1.226  25.541  0.00  0.00    +0.094 A 
ATOM     10  C   UNL     1       9.571  -0.756  22.581  0.00  0.00    +0.234 A 
ATOM     11  O   UNL     1      10.228  -1.403  21.776  0.00  0.00    -0.283 OA
ATOM     12  C   UNL     1       7.366  -2.620  25.698  0.00  0.00    +0.031 A 
ENDROOT
BRANCH   9  13
ATOM     13  N   UNL     1       6.517  -0.531  26.497  0.00  0.00    -0.204 N 
ATOM     14  S   UNL     1       4.902  -0.171  26.165  0.00  0.00    +0.046 S 
ATOM     15  O   UNL     1       4.145  -1.412  26.088  0.00  0.00    -0.155 OA
ATOM     16  O   UNL     1       4.858   0.837  25.128  0.00  0.00    -0.155 OA
ATOM     17  C   UNL     1       4.631   0.619  27.753  0.00  0.00    +0.190 C 
ATOM     18  C   UNL     1       5.957   0.497  28.508  0.00  0.00    +0.045 C 
ATOM     19  C   UNL     1       7.071   0.415  27.459  0.00  0.00    +0.133 C 
ENDBRANCH   9  13
BRANCH   7  20
ATOM     20  C   UNL     1       8.572   2.864  23.346  0.00  0.00    +0.025 A 
ATOM     21  C   UNL     1       7.564   3.446  22.564  0.00  0.00    +0.060 A 
ATOM     22  C   UNL     1       7.414   4.829  22.542  0.00  0.00    +0.159 A 
ATOM     23  C   UNL     1       8.266   5.660  23.264  0.00  0.00    +0.158 A 
ATOM     24  C   UNL     1       9.277   5.116  24.036  0.00  0.00    +0.050 A 
ATOM     25  C   UNL     1       9.410   3.725  24.090  0.00  0.00    +0.015 A 
BRANCH  22  26
ATOM     26  O   UNL     1       6.403   5.378  21.805  0.00  0.00    -0.503 OA
ATOM     27  H   UNL     1       5.656   5.450  22.431  0.00  0.00    +0.292 HD
ENDBRANCH  22  26
BRANCH  23  28
ATOM     28  O   UNL     1       8.060   7.009  23.190  0.00  0.00    -0.503 OA
ATOM     29  H   UNL     1       8.390   7.409  24.015  0.00  0.00    +0.292 HD
ENDBRANCH  23  28
ENDBRANCH   7  20
BRANCH   8  30
ATOM     30  O   UNL     1      10.199   1.362  21.495  0.00  0.00    -0.501 OA
ATOM     31  H   UNL     1      10.826   1.966  21.934  0.00  0.00    +0.292 HD
ENDBRANCH   8  30
TORSDOF 5
ENDMDL
MODEL 8
REMARK VINA RESULT:      -6.6      1.990      2.674
REMARK  Name = 
REMARK  6 active torsions:
REMARK  status: ('A' for Active; 'I' for Inactive)
REMARK    1  A    between atoms: C_1  and  C_2
REMARK    2  A    between atoms: C_4  and  N_5
REMARK    3  A    between atoms: C_14  and  C_21
REMARK    4  A    between atoms: C_15  and  O_16
REMARK    5  A    between atoms: C_24  and  O_25
REMARK    6  A    between atoms: C_26  and  O_27
REMARK                            x       y       z     vdW  Elec       q    Type
REMARK                         _______ _______ _______ _____ _____    ______ ____
ROOT
ATOM      1  C   UNL     1       9.369  -0.360  21.401  0.00  0.00    +0.044 C 
ATOM      2  C   UNL     1       8.554  -1.201  22.344  0.00  0.00    -0.048 A 
ATOM      3  C   UNL     1       8.171  -2.498  21.984  0.00  0.00    +0.019 A 
ATOM      4  C   UNL     1       7.394  -3.269  22.861  0.00  0.00    +0.070 A 
ATOM      5  C   UNL     1       6.961  -2.761  24.084  0.00  0.00    +0.162 A 
ATOM      6  O   UNL     1       6.169  -3.489  24.939  0.00  0.00    -0.449 OA
ATOM      7  C   UNL     1       5.742  -4.757  24.559  0.00  0.00    +0.181 A 
ATOM      8  C   UNL     1       6.108  -5.361  23.413  0.00  0.00    +0.208 A 
ATOM      9  C   UNL     1       7.330  -1.454  24.436  0.00  0.00    +0.094 A 
ATOM     10  C   UNL     1       7.007  -4.637  22.478  0.00  0.00    +0.234 A 
ATOM     11  O   UNL     1       7.402  -5.161  21.445  0.00  0.00    -0.283 OA
ATOM     12  C   UNL     1       8.145  -0.696  23.581  0.00  0.00    +0.031 A 
ENDROOT
BRANCH   9  13
ATOM     13  N   UNL     1       6.920  -0.797  25.633  0.00  0.00    -0.204 N 
ATOM     14  S   UNL     1       5.356  -0.179  25.778  0.00  0.00    +0.046 S 
ATOM     15  O   UNL     1       4.408  -1.283  25.783  0.00  0.00    -0.155 OA
ATOM     16  O   UNL     1       5.226   0.960  24.895  0.00  0.00    -0.155 OA
ATOM     17  C   UNL     1       5.622   0.414  27.451  0.00  0.00    +0.190 C 
ATOM     18  C   UNL     1       7.054   0.010  27.812  0.00  0.00    +0.045 C 
ATOM     19  C   UNL     1       7.844  -0.076  26.502  0.00  0.00    +0.133 C 
ENDBRANCH   9  13
BRANCH   7  20
ATOM     20  C   UNL     1       4.880  -5.435  25.565  0.00  0.00    +0.025 A 
ATOM     21  C   UNL     1       5.458  -6.228  26.567  0.00  0.00    +0.060 A 
ATOM     22  C   UNL     1       4.649  -6.847  27.515  0.00  0.00    +0.159 A 
ATOM     23  C   UNL     1       3.263  -6.719  27.477  0.00  0.00    +0.158 A 
ATOM     24  C   UNL     1       2.664  -5.952  26.494  0.00  0.00    +0.050 A 
ATOM     25  C   UNL     1       3.473  -5.299  25.561  0.00  0.00    +0.015 A 
BRANCH  22  26
ATOM     26  O   UNL     1       5.230  -7.586  28.507  0.00  0.00    -0.503 OA
ATOM     27  H   UNL     1       5.359  -8.469  28.108  0.00  0.00    +0.292 HD
ENDBRANCH  22  26
BRANCH  23  28
ATOM     28  O   UNL     1       2.534  -7.359  28.439  0.00  0.00    -0.503 OA
ATOM     29  H   UNL     1       3.072  -7.396  29.250  0.00  0.00    +0.292 HD
ENDBRANCH  23  28
ENDBRANCH   7  20
BRANCH   8  30
ATOM     30  O   UNL     1       5.728  -6.651  23.089  0.00  0.00    -0.501 OA
ATOM     31  H   UNL     1       5.405  -6.617  22.170  0.00  0.00    +0.292 HD
ENDBRANCH   8  30
TORSDOF 5
ENDMDL
MODEL 9
REMARK VINA RESULT:      -6.6      3.239      4.204
REMARK  Name = 
REMARK  6 active torsions:
REMARK  status: ('A' for Active; 'I' for Inactive)
REMARK    1  A    between atoms: C_1  and  C_2
REMARK    2  A    between atoms: C_4  and  N_5
REMARK    3  A    between atoms: C_14  and  C_21
REMARK    4  A    between atoms: C_15  and  O_16
REMARK    5  A    between atoms: C_24  and  O_25
REMARK    6  A    between atoms: C_26  and  O_27
REMARK                            x       y       z     vdW  Elec       q    Type
REMARK                         _______ _______ _______ _____ _____    ______ ____
ROOT
ATOM      1  C   UNL     1      10.041   5.409  24.125  0.00  0.00    +0.044 C 
ATOM      2  C   UNL     1       9.215   4.158  24.032  0.00  0.00    -0.048 A 
ATOM      3  C   UNL     1       9.828   2.900  24.072  0.00  0.00    +0.019 A 
ATOM      4  C   UNL     1       9.052   1.737  23.965  0.00  0.00    +0.070 A 
ATOM      5  C   UNL     1       7.672   1.800  23.787  0.00  0.00    +0.162 A 
ATOM      6  O   UNL     1       6.901   0.671  23.644  0.00  0.00    -0.449 OA
ATOM      7  C   UNL     1       7.515  -0.577  23.628  0.00  0.00    +0.181 A 
ATOM      8  C   UNL     1       8.836  -0.765  23.809  0.00  0.00    +0.208 A 
ATOM      9  C   UNL     1       7.060   3.061  23.730  0.00  0.00    +0.094 A 
ATOM     10  C   UNL     1       9.707   0.418  24.020  0.00  0.00    +0.234 A 
ATOM     11  O   UNL     1      10.906   0.295  24.232  0.00  0.00    -0.283 OA
ATOM     12  C   UNL     1       7.828   4.226  23.881  0.00  0.00    +0.031 A 
ENDROOT
BRANCH   9  13
ATOM     13  N   UNL     1       5.667   3.270  23.507  0.00  0.00    -0.204 N 
ATOM     14  S   UNL     1       4.557   3.047  24.759  0.00  0.00    +0.046 S 
ATOM     15  O   UNL     1       4.783   4.059  25.780  0.00  0.00    -0.155 OA
ATOM     16  O   UNL     1       4.480   1.634  25.061  0.00  0.00    -0.155 OA
ATOM     17  C   UNL     1       3.147   3.500  23.744  0.00  0.00    +0.190 C 
ATOM     18  C   UNL     1       3.723   3.858  22.372  0.00  0.00    +0.045 C 
ATOM     19  C   UNL     1       5.030   3.075  22.210  0.00  0.00    +0.133 C 
ENDBRANCH   9  13
BRANCH   7  20
ATOM     20  C   UNL     1       6.574  -1.716  23.454  0.00  0.00    +0.025 A 
ATOM     21  C   UNL     1       6.533  -2.416  22.240  0.00  0.00    +0.060 A 
ATOM     22  C   UNL     1       5.663  -3.491  22.087  0.00  0.00    +0.159 A 
ATOM     23  C   UNL     1       4.803  -3.876  23.112  0.00  0.00    +0.158 A 
ATOM     24  C   UNL     1       4.812  -3.197  24.318  0.00  0.00    +0.050 A 
ATOM     25  C   UNL     1       5.710  -2.139  24.489  0.00  0.00    +0.015 A 
BRANCH  22  26
ATOM     26  O   UNL     1       5.661  -4.186  20.911  0.00  0.00    -0.503 OA
ATOM     27  H   UNL     1       6.592  -4.460  20.789  0.00  0.00    +0.292 HD
ENDBRANCH  22  26
BRANCH  23  28
ATOM     28  O   UNL     1       3.973  -4.938  22.888  0.00  0.00    -0.503 OA
ATOM     29  H   UNL     1       3.060  -4.602  22.845  0.00  0.00    +0.292 HD
ENDBRANCH  23  28
ENDBRANCH   7  20
BRANCH   8  30
ATOM     30  O   UNL     1       9.415  -2.021  23.859  0.00  0.00    -0.501 OA
ATOM     31  H   UNL     1       8.688  -2.661  23.755  0.00  0.00    +0.292 HD
ENDBRANCH   8  30
TORSDOF 5
ENDMDL
