MODEL 1
REMARK VINA RESULT:      -5.3      0.000      0.000
REMARK  Name = 
REMARK  10 active torsions:
REMARK  status: ('A' for Active; 'I' for Inactive)
REMARK    1  A    between atoms: C_2  and  C_3
REMARK    2  A    between atoms: C_4  and  N_5
REMARK    3  A    between atoms: N_5  and  CA_6
REMARK    4  A    between atoms: CA_6  and  C_8
REMARK    5  A    between atoms: CA_6  and  C_11
REMARK    6  A    between atoms: C_8  and  O_9
REMARK    7  A    between atoms: C_11  and  C_12
REMARK    8  A    between atoms: C_11  and  C_13
REMARK    9  A    between atoms: C_11  and  S_19
REMARK   10  A    between atoms: C_13  and  N_14
REMARK                            x       y       z     vdW  Elec       q    Type
REMARK                         _______ _______ _______ _____ _____    ______ ____
ROOT
ATOM      1  CA  UNL     1       7.540  -4.709  24.921  0.00  0.00    +0.210 C 
ENDROOT
BRANCH   1   2
ATOM      2  N   UNL     1       7.643  -3.292  24.506  0.00  0.00    -0.335 N 
ATOM      3  H   UNL     1       7.016  -2.631  24.949  0.00  0.00    +0.146 HD
BRANCH   2   5
ATOM      4  C   UNL     1       9.587  -2.047  23.701  0.00  0.00    +0.057 C 
ATOM      5  C   UNL     1       8.486  -2.781  23.543  0.00  0.00    +0.071 C 
BRANCH   4   7
ATOM      6  O   UNL     1       9.822  -0.855  21.667  0.00  0.00    -0.296 OA
ATOM      7  C   UNL     1      10.338  -1.559  22.528  0.00  0.00    +0.252 C 
ENDBRANCH   4   7
ENDBRANCH   2   5
ENDBRANCH   1   2
BRANCH   1   8
ATOM      8  C   UNL     1       6.122  -5.107  25.445  0.00  0.00    +0.155 C 
ATOM      9  C   UNL     1       6.085  -5.934  26.749  0.00  0.00    +0.042 C 
BRANCH   8  10
ATOM     10  S   UNL     1       5.191  -3.476  25.895  0.00  0.00    +0.097 S 
ATOM     11  O   UNL     1       5.982  -2.963  27.071  0.00  0.00    -0.152 OA
ATOM     12  O   UNL     1       3.828  -4.020  26.252  0.00  0.00    -0.152 OA
ENDBRANCH   8  10
BRANCH   8  13
ATOM     13  C   UNL     1       5.229  -5.773  24.355  0.00  0.00    +0.178 C 
BRANCH  13  14
ATOM     14  N   UNL     1       5.576  -5.509  22.974  0.00  0.00    -0.249 N 
ATOM     15  N   UNL     1       5.239  -4.341  22.396  0.00  0.00    -0.066 NA
ATOM     16  N   UNL     1       5.711  -4.357  21.157  0.00  0.00    -0.138 NA
ATOM     17  C   UNL     1       6.377  -5.534  20.976  0.00  0.00    +0.156 A 
ATOM     18  C   UNL     1       6.338  -6.264  22.132  0.00  0.00    +0.130 A 
ENDBRANCH  13  14
ENDBRANCH   8  13
ENDBRANCH   1   8
BRANCH   1  19
ATOM     19  C   UNL     1       8.777  -4.967  25.842  0.00  0.00    +0.327 C 
ATOM     20  OXT UNL     1       8.980  -4.346  26.883  0.00  0.00    -0.249 OA
BRANCH  19  21
ATOM     21  O   UNL     1       9.576  -6.017  25.542  0.00  0.00    -0.479 OA
ATOM     22  H   UNL     1       9.827  -6.583  26.283  0.00  0.00    +0.295 HD
ENDBRANCH  19  21
ENDBRANCH   1  19
TORSDOF 9
ENDMDL
MODEL 2
REMARK VINA RESULT:      -5.3      2.760      4.976
REMARK  Name = 
REMARK  10 active torsions:
REMARK  status: ('A' for Active; 'I' for Inactive)
REMARK    1  A    between atoms: C_2  and  C_3
REMARK    2  A    between atoms: C_4  and  N_5
REMARK    3  A    between atoms: N_5  and  CA_6
REMARK    4  A    between atoms: CA_6  and  C_8
REMARK    5  A    between atoms: CA_6  and  C_11
REMARK    6  A    between atoms: C_8  and  O_9
REMARK    7  A    between atoms: C_11  and  C_12
REMARK    8  A    between atoms: C_11  and  C_13
REMARK    9  A    between atoms: C_11  and  S_19
REMARK   10  A    between atoms: C_13  and  N_14
REMARK                            x       y       z     vdW  Elec       q    Type
REMARK                         _______ _______ _______ _____ _____    ______ ____
ROOT
ATOM      1  CA  UNL     1       8.443  -2.010  23.563  0.00  0.00    +0.210 C 
ENDROOT
BRANCH   1   2
ATOM      2  N   UNL     1       7.231  -2.209  22.737  0.00  0.00    -0.335 N 
ATOM      3  H   UNL     1       6.612  -1.414  22.621  0.00  0.00    +0.146 HD
BRANCH   2   5
ATOM      4  C   UNL     1       7.289  -4.620  22.337  0.00  0.00    +0.057 C 
ATOM      5  C   UNL     1       6.834  -3.383  22.136  0.00  0.00    +0.071 C 
BRANCH   4   7
ATOM      6  O   UNL     1       5.891  -5.606  20.698  0.00  0.00    -0.296 OA
ATOM      7  C   UNL     1       6.754  -5.753  21.557  0.00  0.00    +0.252 C 
ENDBRANCH   4   7
ENDBRANCH   2   5
ENDBRANCH   1   2
BRANCH   1   8
ATOM      8  C   UNL     1       8.241  -1.002  24.741  0.00  0.00    +0.155 C 
ATOM      9  C   UNL     1       9.435  -0.074  25.056  0.00  0.00    +0.042 C 
BRANCH   8  10
ATOM     10  S   UNL     1       6.825   0.208  24.232  0.00  0.00    +0.097 S 
ATOM     11  O   UNL     1       5.594  -0.647  24.387  0.00  0.00    -0.152 OA
ATOM     12  O   UNL     1       7.204   0.497  22.799  0.00  0.00    -0.152 OA
ENDBRANCH   8  10
BRANCH   8  13
ATOM     13  C   UNL     1       7.721  -1.678  26.045  0.00  0.00    +0.178 C 
BRANCH  13  14
ATOM     14  N   UNL     1       7.713  -3.126  26.074  0.00  0.00    -0.249 N 
ATOM     15  N   UNL     1       8.819  -3.807  26.427  0.00  0.00    -0.066 NA
ATOM     16  N   UNL     1       8.518  -5.099  26.405  0.00  0.00    -0.138 NA
ATOM     17  C   UNL     1       7.202  -5.217  26.064  0.00  0.00    +0.156 A 
ATOM     18  C   UNL     1       6.661  -3.973  25.889  0.00  0.00    +0.130 A 
ENDBRANCH  13  14
ENDBRANCH   8  13
ENDBRANCH   1   8
BRANCH   1  19
ATOM     19  C   UNL     1       9.604  -1.751  22.548  0.00  0.00    +0.327 C 
ATOM     20  OXT UNL     1      10.725  -2.240  22.670  0.00  0.00    -0.249 OA
BRANCH  19  21
ATOM     21  O   UNL     1       9.309  -1.071  21.416  0.00  0.00    -0.479 OA
ATOM     22  H   UNL     1       9.378  -1.570  20.592  0.00  0.00    +0.295 HD
ENDBRANCH  19  21
ENDBRANCH   1  19
TORSDOF 9
ENDMDL
MODEL 3
REMARK VINA RESULT:      -5.2      3.997      6.488
REMARK  Name = 
REMARK  10 active torsions:
REMARK  status: ('A' for Active; 'I' for Inactive)
REMARK    1  A    between atoms: C_2  and  C_3
REMARK    2  A    between atoms: C_4  and  N_5
REMARK    3  A    between atoms: N_5  and  CA_6
REMARK    4  A    between atoms: CA_6  and  C_8
REMARK    5  A    between atoms: CA_6  and  C_11
REMARK    6  A    between atoms: C_8  and  O_9
REMARK    7  A    between atoms: C_11  and  C_12
REMARK    8  A    between atoms: C_11  and  C_13
REMARK    9  A    between atoms: C_11  and  S_19
REMARK   10  A    between atoms: C_13  and  N_14
REMARK                            x       y       z     vdW  Elec       q    Type
REMARK                         _______ _______ _______ _____ _____    ______ ____
ROOT
ATOM      1  CA  UNL     1       8.322  -1.913  23.928  0.00  0.00    +0.210 C 
ENDROOT
BRANCH   1   2
ATOM      2  N   UNL     1       8.164  -2.574  22.613  0.00  0.00    -0.335 N 
ATOM      3  H   UNL     1       8.841  -2.348  21.895  0.00  0.00    +0.146 HD
BRANCH   2   5
ATOM      4  C   UNL     1       7.215  -4.767  22.096  0.00  0.00    +0.057 C 
ATOM      5  C   UNL     1       7.159  -3.444  22.251  0.00  0.00    +0.071 C 
BRANCH   4   7
ATOM      6  O   UNL     1       5.832  -5.822  20.488  0.00  0.00    -0.296 OA
ATOM      7  C   UNL     1       6.024  -5.523  21.661  0.00  0.00    +0.252 C 
ENDBRANCH   4   7
ENDBRANCH   2   5
ENDBRANCH   1   2
BRANCH   1   8
ATOM      8  C   UNL     1       8.988  -0.501  23.844  0.00  0.00    +0.155 C 
ATOM      9  C   UNL     1       9.915  -0.113  25.017  0.00  0.00    +0.042 C 
BRANCH   8  10
ATOM     10  S   UNL     1      10.150  -0.499  22.303  0.00  0.00    +0.097 S 
ATOM     11  O   UNL     1       9.174  -0.404  21.158  0.00  0.00    -0.152 OA
ATOM     12  O   UNL     1      10.810  -1.850  22.446  0.00  0.00    -0.152 OA
ENDBRANCH   8  10
BRANCH   8  13
ATOM     13  C   UNL     1       7.967   0.642  23.559  0.00  0.00    +0.178 C 
BRANCH  13  14
ATOM     14  N   UNL     1       8.342   1.976  23.984  0.00  0.00    -0.249 N 
ATOM     15  N   UNL     1       9.092   2.760  23.188  0.00  0.00    -0.066 NA
ATOM     16  N   UNL     1       9.247   3.924  23.804  0.00  0.00    -0.138 NA
ATOM     17  C   UNL     1       8.557   3.872  24.980  0.00  0.00    +0.156 A 
ATOM     18  C   UNL     1       7.941   2.655  25.095  0.00  0.00    +0.130 A 
ENDBRANCH  13  14
ENDBRANCH   8  13
ENDBRANCH   1   8
BRANCH   1  19
ATOM     19  C   UNL     1       8.967  -2.989  24.863  0.00  0.00    +0.327 C 
ATOM     20  OXT UNL     1       8.523  -3.265  25.975  0.00  0.00    -0.249 OA
BRANCH  19  21
ATOM     21  O   UNL     1       9.972  -3.740  24.357  0.00  0.00    -0.479 OA
ATOM     22  H   UNL     1      10.385  -3.406  23.550  0.00  0.00    +0.295 HD
ENDBRANCH  19  21
ENDBRANCH   1  19
TORSDOF 9
ENDMDL
MODEL 4
REMARK VINA RESULT:      -5.2      2.533      3.584
REMARK  Name = 
REMARK  10 active torsions:
REMARK  status: ('A' for Active; 'I' for Inactive)
REMARK    1  A    between atoms: C_2  and  C_3
REMARK    2  A    between atoms: C_4  and  N_5
REMARK    3  A    between atoms: N_5  and  CA_6
REMARK    4  A    between atoms: CA_6  and  C_8
REMARK    5  A    between atoms: CA_6  and  C_11
REMARK    6  A    between atoms: C_8  and  O_9
REMARK    7  A    between atoms: C_11  and  C_12
REMARK    8  A    between atoms: C_11  and  C_13
REMARK    9  A    between atoms: C_11  and  S_19
REMARK   10  A    between atoms: C_13  and  N_14
REMARK                            x       y       z     vdW  Elec       q    Type
REMARK                         _______ _______ _______ _____ _____    ______ ____
ROOT
ATOM      1  CA  UNL     1       8.236  -3.383  24.508  0.00  0.00    +0.210 C 
ENDROOT
BRANCH   1   2
ATOM      2  N   UNL     1       8.572  -2.053  25.065  0.00  0.00    -0.335 N 
ATOM      3  H   UNL     1       8.029  -1.731  25.858  0.00  0.00    +0.146 HD
BRANCH   2   5
ATOM      4  C   UNL     1       9.933  -0.023  25.103  0.00  0.00    +0.057 C 
ATOM      5  C   UNL     1       9.529  -1.185  24.589  0.00  0.00    +0.071 C 
BRANCH   4   7
ATOM      6  O   UNL     1      10.712   1.897  23.955  0.00  0.00    -0.296 OA
ATOM      7  C   UNL     1      10.956   0.787  24.415  0.00  0.00    +0.252 C 
ENDBRANCH   4   7
ENDBRANCH   2   5
ENDBRANCH   1   2
BRANCH   1   8
ATOM      8  C   UNL     1       6.699  -3.659  24.428  0.00  0.00    +0.155 C 
ATOM      9  C   UNL     1       5.838  -3.057  25.560  0.00  0.00    +0.042 C 
BRANCH   8  10
ATOM     10  S   UNL     1       6.038  -2.802  22.828  0.00  0.00    +0.097 S 
ATOM     11  O   UNL     1       5.227  -3.896  22.183  0.00  0.00    -0.152 OA
ATOM     12  O   UNL     1       7.335  -2.491  22.120  0.00  0.00    -0.152 OA
ENDBRANCH   8  10
BRANCH   8  13
ATOM     13  C   UNL     1       6.356  -5.165  24.227  0.00  0.00    +0.178 C 
BRANCH  13  14
ATOM     14  N   UNL     1       5.754  -5.855  25.350  0.00  0.00    -0.249 N 
ATOM     15  N   UNL     1       6.460  -6.073  26.475  0.00  0.00    -0.066 NA
ATOM     16  N   UNL     1       5.659  -6.680  27.340  0.00  0.00    -0.138 NA
ATOM     17  C   UNL     1       4.433  -6.812  26.755  0.00  0.00    +0.156 A 
ATOM     18  C   UNL     1       4.461  -6.257  25.504  0.00  0.00    +0.130 A 
ENDBRANCH  13  14
ENDBRANCH   8  13
ENDBRANCH   1   8
BRANCH   1  19
ATOM     19  C   UNL     1       9.139  -4.400  25.278  0.00  0.00    +0.327 C 
ATOM     20  OXT UNL     1       9.974  -5.111  24.723  0.00  0.00    -0.249 OA
BRANCH  19  21
ATOM     21  O   UNL     1       9.087  -4.388  26.630  0.00  0.00    -0.479 OA
ATOM     22  H   UNL     1       8.326  -4.829  27.029  0.00  0.00    +0.295 HD
ENDBRANCH  19  21
ENDBRANCH   1  19
TORSDOF 9
ENDMDL
MODEL 5
REMARK VINA RESULT:      -5.2      2.698      4.839
REMARK  Name = 
REMARK  10 active torsions:
REMARK  status: ('A' for Active; 'I' for Inactive)
REMARK    1  A    between atoms: C_2  and  C_3
REMARK    2  A    between atoms: C_4  and  N_5
REMARK    3  A    between atoms: N_5  and  CA_6
REMARK    4  A    between atoms: CA_6  and  C_8
REMARK    5  A    between atoms: CA_6  and  C_11
REMARK    6  A    between atoms: C_8  and  O_9
REMARK    7  A    between atoms: C_11  and  C_12
REMARK    8  A    between atoms: C_11  and  C_13
REMARK    9  A    between atoms: C_11  and  S_19
REMARK   10  A    between atoms: C_13  and  N_14
REMARK                            x       y       z     vdW  Elec       q    Type
REMARK                         _______ _______ _______ _____ _____    ______ ____
ROOT
ATOM      1  CA  UNL     1       7.022  -2.857  24.718  0.00  0.00    +0.210 C 
ENDROOT
BRANCH   1   2
ATOM      2  N   UNL     1       6.630  -4.271  24.522  0.00  0.00    -0.335 N 
ATOM      3  H   UNL     1       6.610  -4.866  25.342  0.00  0.00    +0.146 HD
BRANCH   2   5
ATOM      4  C   UNL     1       7.150  -5.367  22.399  0.00  0.00    +0.057 C 
ATOM      5  C   UNL     1       6.323  -4.876  23.323  0.00  0.00    +0.071 C 
BRANCH   4   7
ATOM      6  O   UNL     1       5.896  -5.314  20.390  0.00  0.00    -0.296 OA
ATOM      7  C   UNL     1       6.620  -5.948  21.150  0.00  0.00    +0.252 C 
ENDBRANCH   4   7
ENDBRANCH   2   5
ENDBRANCH   1   2
BRANCH   1   8
ATOM      8  C   UNL     1       8.438  -2.683  25.357  0.00  0.00    +0.155 C 
ATOM      9  C   UNL     1       8.610  -1.485  26.318  0.00  0.00    +0.042 C 
BRANCH   8  10
ATOM     10  S   UNL     1       8.769  -4.228  26.467  0.00  0.00    +0.097 S 
ATOM     11  O   UNL     1       9.007  -5.315  25.450  0.00  0.00    -0.152 OA
ATOM     12  O   UNL     1       7.450  -4.337  27.196  0.00  0.00    -0.152 OA
ENDBRANCH   8  10
BRANCH   8  13
ATOM     13  C   UNL     1       9.591  -2.707  24.310  0.00  0.00    +0.178 C 
BRANCH  13  14
ATOM     14  N   UNL     1       9.587  -1.662  23.306  0.00  0.00    -0.249 N 
ATOM     15  N   UNL     1      10.261  -0.515  23.513  0.00  0.00    -0.066 NA
ATOM     16  N   UNL     1      10.118   0.234  22.428  0.00  0.00    -0.138 NA
ATOM     17  C   UNL     1       9.373  -0.470  21.527  0.00  0.00    +0.156 A 
ATOM     18  C   UNL     1       9.059  -1.695  22.050  0.00  0.00    +0.130 A 
ENDBRANCH  13  14
ENDBRANCH   8  13
ENDBRANCH   1   8
BRANCH   1  19
ATOM     19  C   UNL     1       5.798  -2.176  25.415  0.00  0.00    +0.327 C 
ATOM     20  OXT UNL     1       5.271  -1.150  24.991  0.00  0.00    -0.249 OA
BRANCH  19  21
ATOM     21  O   UNL     1       5.218  -2.832  26.446  0.00  0.00    -0.479 OA
ATOM     22  H   UNL     1       4.307  -3.121  26.304  0.00  0.00    +0.295 HD
ENDBRANCH  19  21
ENDBRANCH   1  19
TORSDOF 9
ENDMDL
MODEL 6
REMARK VINA RESULT:      -5.1      2.393      4.278
REMARK  Name = 
REMARK  10 active torsions:
REMARK  status: ('A' for Active; 'I' for Inactive)
REMARK    1  A    between atoms: C_2  and  C_3
REMARK    2  A    between atoms: C_4  and  N_5
REMARK    3  A    between atoms: N_5  and  CA_6
REMARK    4  A    between atoms: CA_6  and  C_8
REMARK    5  A    between atoms: CA_6  and  C_11
REMARK    6  A    between atoms: C_8  and  O_9
REMARK    7  A    between atoms: C_11  and  C_12
REMARK    8  A    between atoms: C_11  and  C_13
REMARK    9  A    between atoms: C_11  and  S_19
REMARK   10  A    between atoms: C_13  and  N_14
REMARK                            x       y       z     vdW  Elec       q    Type
REMARK                         _______ _______ _______ _____ _____    ______ ____
ROOT
ATOM      1  CA  UNL     1       7.623  -4.426  25.272  0.00  0.00    +0.210 C 
ENDROOT
BRANCH   1   2
ATOM      2  N   UNL     1       8.202  -4.875  23.986  0.00  0.00    -0.335 N 
ATOM      3  H   UNL     1       9.171  -4.639  23.805  0.00  0.00    +0.146 HD
BRANCH   2   5
ATOM      4  C   UNL     1       6.925  -5.065  21.910  0.00  0.00    +0.057 C 
ATOM      5  C   UNL     1       7.543  -5.555  22.985  0.00  0.00    +0.071 C 
BRANCH   4   7
ATOM      6  O   UNL     1       5.904  -5.604  19.842  0.00  0.00    -0.296 OA
ATOM      7  C   UNL     1       6.238  -5.966  20.964  0.00  0.00    +0.252 C 
ENDBRANCH   4   7
ENDBRANCH   2   5
ENDBRANCH   1   2
BRANCH   1   8
ATOM      8  C   UNL     1       7.344  -2.889  25.332  0.00  0.00    +0.155 C 
ATOM      9  C   UNL     1       6.509  -2.302  24.173  0.00  0.00    +0.042 C 
BRANCH   8  10
ATOM     10  S   UNL     1       6.272  -2.554  26.902  0.00  0.00    +0.097 S 
ATOM     11  O   UNL     1       5.454  -3.815  27.014  0.00  0.00    -0.152 OA
ATOM     12  O   UNL     1       5.488  -1.344  26.454  0.00  0.00    -0.152 OA
ENDBRANCH   8  10
BRANCH   8  13
ATOM     13  C   UNL     1       8.632  -2.040  25.557  0.00  0.00    +0.178 C 
BRANCH  13  14
ATOM     14  N   UNL     1       9.359  -1.627  24.373  0.00  0.00    -0.249 N 
ATOM     15  N   UNL     1      10.004  -2.535  23.617  0.00  0.00    -0.066 NA
ATOM     16  N   UNL     1      10.542  -1.891  22.591  0.00  0.00    -0.138 NA
ATOM     17  C   UNL     1      10.199  -0.574  22.695  0.00  0.00    +0.156 A 
ATOM     18  C   UNL     1       9.413  -0.392  23.800  0.00  0.00    +0.130 A 
ENDBRANCH  13  14
ENDBRANCH   8  13
ENDBRANCH   1   8
BRANCH   1  19
ATOM     19  C   UNL     1       8.519  -5.067  26.382  0.00  0.00    +0.327 C 
ATOM     20  OXT UNL     1       9.739  -4.925  26.425  0.00  0.00    -0.249 OA
BRANCH  19  21
ATOM     21  O   UNL     1       7.897  -5.686  27.412  0.00  0.00    -0.479 OA
ATOM     22  H   UNL     1       8.454  -6.250  27.965  0.00  0.00    +0.295 HD
ENDBRANCH  19  21
ENDBRANCH   1  19
TORSDOF 9
ENDMDL
MODEL 7
REMARK VINA RESULT:      -5.1      2.771      4.205
REMARK  Name = 
REMARK  10 active torsions:
REMARK  status: ('A' for Active; 'I' for Inactive)
REMARK    1  A    between atoms: C_2  and  C_3
REMARK    2  A    between atoms: C_4  and  N_5
REMARK    3  A    between atoms: N_5  and  CA_6
REMARK    4  A    between atoms: CA_6  and  C_8
REMARK    5  A    between atoms: CA_6  and  C_11
REMARK    6  A    between atoms: C_8  and  O_9
REMARK    7  A    between atoms: C_11  and  C_12
REMARK    8  A    between atoms: C_11  and  C_13
REMARK    9  A    between atoms: C_11  and  S_19
REMARK   10  A    between atoms: C_13  and  N_14
REMARK                            x       y       z     vdW  Elec       q    Type
REMARK                         _______ _______ _______ _____ _____    ______ ____
ROOT
ATOM      1  CA  UNL     1       6.637  -2.773  23.866  0.00  0.00    +0.210 C 
ENDROOT
BRANCH   1   2
ATOM      2  N   UNL     1       6.968  -1.981  22.660  0.00  0.00    -0.335 N 
ATOM      3  H   UNL     1       6.250  -1.891  21.951  0.00  0.00    +0.146 HD
BRANCH   2   5
ATOM      4  C   UNL     1       8.486  -0.083  22.391  0.00  0.00    +0.057 C 
ATOM      5  C   UNL     1       8.176  -1.380  22.382  0.00  0.00    +0.071 C 
BRANCH   4   7
ATOM      6  O   UNL     1      10.118   1.552  21.870  0.00  0.00    -0.296 OA
ATOM      7  C   UNL     1       9.842   0.368  22.023  0.00  0.00    +0.252 C 
ENDBRANCH   4   7
ENDBRANCH   2   5
ENDBRANCH   1   2
BRANCH   1   8
ATOM      8  C   UNL     1       5.983  -4.157  23.547  0.00  0.00    +0.155 C 
ATOM      9  C   UNL     1       4.443  -4.171  23.427  0.00  0.00    +0.042 C 
BRANCH   8  10
ATOM     10  S   UNL     1       6.596  -4.699  21.798  0.00  0.00    +0.097 S 
ATOM     11  O   UNL     1       5.621  -4.006  20.881  0.00  0.00    -0.152 OA
ATOM     12  O   UNL     1       6.408  -6.195  21.886  0.00  0.00    -0.152 OA
ENDBRANCH   8  10
BRANCH   8  13
ATOM     13  C   UNL     1       6.464  -5.296  24.494  0.00  0.00    +0.178 C 
BRANCH  13  14
ATOM     14  N   UNL     1       7.766  -5.131  25.109  0.00  0.00    -0.249 N 
ATOM     15  N   UNL     1       8.888  -5.266  24.377  0.00  0.00    -0.066 NA
ATOM     16  N   UNL     1       9.918  -5.025  25.177  0.00  0.00    -0.138 NA
ATOM     17  C   UNL     1       9.427  -4.706  26.409  0.00  0.00    +0.156 A 
ATOM     18  C   UNL     1       8.059  -4.728  26.377  0.00  0.00    +0.130 A 
ENDBRANCH  13  14
ENDBRANCH   8  13
ENDBRANCH   1   8
BRANCH   1  19
ATOM     19  C   UNL     1       5.881  -1.790  24.818  0.00  0.00    +0.327 C 
ATOM     20  OXT UNL     1       5.754  -1.989  26.024  0.00  0.00    -0.249 OA
BRANCH  19  21
ATOM     21  O   UNL     1       5.475  -0.606  24.305  0.00  0.00    -0.479 OA
ATOM     22  H   UNL     1       4.696  -0.211  24.717  0.00  0.00    +0.295 HD
ENDBRANCH  19  21
ENDBRANCH   1  19
TORSDOF 9
ENDMDL
MODEL 8
REMARK VINA RESULT:      -5.1      2.575      5.607
REMARK  Name = 
REMARK  10 active torsions:
REMARK  status: ('A' for Active; 'I' for Inactive)
REMARK    1  A    between atoms: C_2  and  C_3
REMARK    2  A    between atoms: C_4  and  N_5
REMARK    3  A    between atoms: N_5  and  CA_6
REMARK    4  A    between atoms: CA_6  and  C_8
REMARK    5  A    between atoms: CA_6  and  C_11
REMARK    6  A    between atoms: C_8  and  O_9
REMARK    7  A    between atoms: C_11  and  C_12
REMARK    8  A    between atoms: C_11  and  C_13
REMARK    9  A    between atoms: C_11  and  S_19
REMARK   10  A    between atoms: C_13  and  N_14
REMARK                            x       y       z     vdW  Elec       q    Type
REMARK                         _______ _______ _______ _____ _____    ______ ____
ROOT
ATOM      1  CA  UNL     1       7.421  -3.269  24.151  0.00  0.00    +0.210 C 
ENDROOT
BRANCH   1   2
ATOM      2  N   UNL     1       6.666  -4.328  24.857  0.00  0.00    -0.335 N 
ATOM      3  H   UNL     1       6.860  -4.458  25.843  0.00  0.00    +0.146 HD
BRANCH   2   5
ATOM      4  C   UNL     1       4.839  -5.952  24.908  0.00  0.00    +0.057 C 
ATOM      5  C   UNL     1       5.746  -5.188  24.299  0.00  0.00    +0.071 C 
BRANCH   4   7
ATOM      6  O   UNL     1       3.615  -7.946  24.535  0.00  0.00    -0.296 OA
ATOM      7  C   UNL     1       3.960  -6.843  24.126  0.00  0.00    +0.252 C 
ENDBRANCH   4   7
ENDBRANCH   2   5
ENDBRANCH   1   2
BRANCH   1   8
ATOM      8  C   UNL     1       8.782  -2.909  24.831  0.00  0.00    +0.155 C 
ATOM      9  C   UNL     1       8.733  -1.812  25.917  0.00  0.00    +0.042 C 
BRANCH   8  10
ATOM     10  S   UNL     1       9.391  -4.479  25.775  0.00  0.00    +0.097 S 
ATOM     11  O   UNL     1       9.177  -5.574  24.761  0.00  0.00    -0.152 OA
ATOM     12  O   UNL     1       8.420  -4.506  26.932  0.00  0.00    -0.152 OA
ENDBRANCH   8  10
BRANCH   8  13
ATOM     13  C   UNL     1       9.919  -2.610  23.808  0.00  0.00    +0.178 C 
BRANCH  13  14
ATOM     14  N   UNL     1       9.780  -1.410  23.007  0.00  0.00    -0.249 N 
ATOM     15  N   UNL     1       9.268  -1.476  21.764  0.00  0.00    -0.066 NA
ATOM     16  N   UNL     1       9.221  -0.240  21.285  0.00  0.00    -0.138 NA
ATOM     17  C   UNL     1       9.679   0.604  22.254  0.00  0.00    +0.156 A 
ATOM     18  C   UNL     1      10.002  -0.116  23.372  0.00  0.00    +0.130 A 
ENDBRANCH  13  14
ENDBRANCH   8  13
ENDBRANCH   1   8
BRANCH   1  19
ATOM     19  C   UNL     1       6.389  -2.122  23.890  0.00  0.00    +0.327 C 
ATOM     20  OXT UNL     1       5.566  -1.757  24.727  0.00  0.00    -0.249 OA
BRANCH  19  21
ATOM     21  O   UNL     1       6.512  -1.416  22.743  0.00  0.00    -0.479 OA
ATOM     22  H   UNL     1       6.139  -1.826  21.952  0.00  0.00    +0.295 HD
ENDBRANCH  19  21
ENDBRANCH   1  19
TORSDOF 9
ENDMDL
MODEL 9
REMARK VINA RESULT:      -5.1      2.673      3.962
REMARK  Name = 
REMARK  10 active torsions:
REMARK  status: ('A' for Active; 'I' for Inactive)
REMARK    1  A    between atoms: C_2  and  C_3
REMARK    2  A    between atoms: C_4  and  N_5
REMARK    3  A    between atoms: N_5  and  CA_6
REMARK    4  A    between atoms: CA_6  and  C_8
REMARK    5  A    between atoms: CA_6  and  C_11
REMARK    6  A    between atoms: C_8  and  O_9
REMARK    7  A    between atoms: C_11  and  C_12
REMARK    8  A    between atoms: C_11  and  C_13
REMARK    9  A    between atoms: C_11  and  S_19
REMARK   10  A    between atoms: C_13  and  N_14
REMARK                            x       y       z     vdW  Elec       q    Type
REMARK                         _______ _______ _______ _____ _____    ______ ____
ROOT
ATOM      1  CA  UNL     1       7.976  -4.001  24.529  0.00  0.00    +0.210 C 
ENDROOT
BRANCH   1   2
ATOM      2  N   UNL     1       7.130  -3.496  25.633  0.00  0.00    -0.335 N 
ATOM      3  H   UNL     1       6.318  -4.048  25.886  0.00  0.00    +0.146 HD
BRANCH   2   5
ATOM      4  C   UNL     1       8.409  -1.572  26.431  0.00  0.00    +0.057 C 
ATOM      5  C   UNL     1       7.313  -2.325  26.334  0.00  0.00    +0.071 C 
BRANCH   4   7
ATOM      6  O   UNL     1       7.380   0.203  27.616  0.00  0.00    -0.296 OA
ATOM      7  C   UNL     1       8.414  -0.359  27.272  0.00  0.00    +0.252 C 
ENDBRANCH   4   7
ENDBRANCH   2   5
ENDBRANCH   1   2
BRANCH   1   8
ATOM      8  C   UNL     1       7.169  -4.386  23.245  0.00  0.00    +0.155 C 
ATOM      9  C   UNL     1       7.592  -5.693  22.540  0.00  0.00    +0.042 C 
BRANCH   8  10
ATOM     10  S   UNL     1       5.344  -4.710  23.784  0.00  0.00    +0.097 S 
ATOM     11  O   UNL     1       5.484  -5.882  24.722  0.00  0.00    -0.152 OA
ATOM     12  O   UNL     1       4.715  -5.051  22.454  0.00  0.00    -0.152 OA
ENDBRANCH   8  10
BRANCH   8  13
ATOM     13  C   UNL     1       7.066  -3.222  22.215  0.00  0.00    +0.178 C 
BRANCH  13  14
ATOM     14  N   UNL     1       7.959  -2.097  22.405  0.00  0.00    -0.249 N 
ATOM     15  N   UNL     1       9.241  -2.168  22.003  0.00  0.00    -0.066 NA
ATOM     16  N   UNL     1       9.807  -0.997  22.263  0.00  0.00    -0.138 NA
ATOM     17  C   UNL     1       8.856  -0.181  22.802  0.00  0.00    +0.156 A 
ATOM     18  C   UNL     1       7.663  -0.848  22.864  0.00  0.00    +0.130 A 
ENDBRANCH  13  14
ENDBRANCH   8  13
ENDBRANCH   1   8
BRANCH   1  19
ATOM     19  C   UNL     1       8.910  -5.077  25.174  0.00  0.00    +0.327 C 
ATOM     20  OXT UNL     1      10.124  -5.115  24.982  0.00  0.00    -0.249 OA
BRANCH  19  21
ATOM     21  O   UNL     1       8.368  -5.909  26.093  0.00  0.00    -0.479 OA
ATOM     22  H   UNL     1       7.525  -6.314  25.852  0.00  0.00    +0.295 HD
ENDBRANCH  19  21
ENDBRANCH   1  19
TORSDOF 9
ENDMDL
