MODEL 1
REMARK VINA RESULT:      -7.7      0.000      0.000
REMARK  Name = 
REMARK  11 active torsions:
REMARK  status: ('A' for Active; 'I' for Inactive)
REMARK    1  A    between atoms: N9_8  and  C1*_9
REMARK    2  A    between atoms: C3*_12  and  O3*_14
REMARK    3  A    between atoms: C4*_15  and  C5*_17
REMARK    4  A    between atoms: C5*_17  and  O5*_18
REMARK    5  A    between atoms: O5*_18  and  P_19
REMARK    6  A    between atoms: P_19  and  O1P_20
REMARK    7  A    between atoms: P_19  and  O3*_22
REMARK    8  A    between atoms: O3*_22  and  C3*_23
REMARK    9  A    between atoms: C1*_26  and  N1_33
REMARK   10  A    between atoms: C4*_29  and  C5*_31
REMARK   11  A    between atoms: C5*_31  and  O5*_32
REMARK                            x       y       z     vdW  Elec       q    Type
REMARK                         _______ _______ _______ _____ _____    ______ ____
ROOT
ATOM      1  O5*   G A   2       3.998   1.588  25.441  0.00  0.00    -0.284 OA
ENDROOT
BRANCH   1   2
ATOM      2  P     G A   2       4.665   2.700  24.296  0.00  0.00    +0.475 P 
ATOM      3  O2P   G A   2       3.246   2.827  23.772  0.00  0.00    -0.227 OA
BRANCH   2   4
ATOM      4  O1P   G A   2       5.311   1.476  23.431  0.00  0.00    -0.302 OA
ATOM      5  H1P   G A   2       6.212   1.227  23.686  0.00  0.00    +0.222 HD
ENDBRANCH   2   4
BRANCH   2   6
ATOM      6  O3*   C A   1       5.332   3.813  23.151  0.00  0.00    -0.281 OA
BRANCH   6   7
ATOM      7  C3*   C A   1       6.421   4.612  23.718  0.00  0.00    +0.165 C 
ATOM      8  C4*   C A   1       6.910   4.042  25.070  0.00  0.00    +0.175 C 
ATOM      9  O4*   C A   1       8.117   3.306  24.839  0.00  0.00    -0.348 OA
ATOM     10  C1*   C A   1       8.663   3.727  23.587  0.00  0.00    +0.226 C 
ATOM     11  C2*   C A   1       7.700   4.698  22.920  0.00  0.00    +0.089 C 
BRANCH  10  12
ATOM     12  N1    C A   1       9.034   2.575  22.796  0.00  0.00    -0.273 N 
ATOM     13  C2    C A   1      10.216   1.931  23.168  0.00  0.00    +0.352 A 
ATOM     14  O2    C A   1      11.012   2.466  23.939  0.00  0.00    -0.244 OA
ATOM     15  N3    C A   1      10.435   0.662  22.696  0.00  0.00    -0.178 NA
ATOM     16  C4    C A   1       9.629   0.163  21.814  0.00  0.00    +0.123 A 
ATOM     17  N4    C A   1       9.827  -1.148  21.478  0.00  0.00    -0.343 N 
ATOM     18  H41   C A   1      10.451  -1.596  22.146  0.00  0.00    +0.144 HD
ATOM     19  H42   C A   1       8.985  -1.694  21.336  0.00  0.00    +0.144 HD
ATOM     20  C5    C A   1       8.522   0.924  21.200  0.00  0.00    +0.061 A 
ATOM     21  C6    C A   1       8.257   2.103  21.762  0.00  0.00    +0.096 A 
ENDBRANCH  10  12
BRANCH   8  22
ATOM     22  C5*   C A   1       7.164   5.163  26.097  0.00  0.00    +0.190 C 
BRANCH  22  23
ATOM     23  O5*   C A   1       7.537   4.581  27.350  0.00  0.00    -0.392 OA
ATOM     24  H5*   C A   1       6.746   4.607  27.912  0.00  0.00    +0.210 HD
ENDBRANCH  22  23
ENDBRANCH   8  22
ENDBRANCH   6   7
ENDBRANCH   2   6
ENDBRANCH   1   2
BRANCH   1  25
ATOM     25  C5*   G A   2       4.682   1.570  26.691  0.00  0.00    +0.206 C 
BRANCH  25  28
ATOM     26  C1*   G A   2       7.080  -0.970  26.779  0.00  0.00    +0.225 C 
ATOM     27  O4*   G A   2       6.271  -0.104  25.951  0.00  0.00    -0.348 OA
ATOM     28  C4*   G A   2       6.168   1.166  26.654  0.00  0.00    +0.175 C 
ATOM     29  C3*   G A   2       6.849   0.941  28.019  0.00  0.00    +0.150 C 
ATOM     30  C2*   G A   2       7.915  -0.053  27.634  0.00  0.00    +0.088 C 
BRANCH  26  42
ATOM     31  N2    G A   2       6.793  -5.990  28.074  0.00  0.00    -0.329 N 
ATOM     32  H21   G A   2       6.485  -6.903  27.771  0.00  0.00    +0.145 HD
ATOM     33  H22   G A   2       6.088  -5.496  28.606  0.00  0.00    +0.145 HD
ATOM     34  C2    G A   2       7.383  -5.201  27.142  0.00  0.00    +0.195 A 
ATOM     35  N1    G A   2       8.161  -5.832  26.197  0.00  0.00    -0.293 N 
ATOM     36  H1    G A   2       8.293  -6.829  26.238  0.00  0.00    +0.172 HD
ATOM     37  C6    G A   2       8.855  -5.183  25.187  0.00  0.00    +0.280 A 
ATOM     38  O6    G A   2       9.534  -5.799  24.358  0.00  0.00    -0.265 OA
ATOM     39  C5    G A   2       8.672  -3.750  25.219  0.00  0.00    +0.172 A 
ATOM     40  N7    G A   2       9.168  -2.751  24.416  0.00  0.00    -0.229 NA
ATOM     41  C8    G A   2       8.654  -1.643  24.912  0.00  0.00    +0.203 A 
ATOM     42  N9    G A   2       7.837  -1.896  25.984  0.00  0.00    -0.288 N 
ATOM     43  C4    G A   2       7.857  -3.248  26.202  0.00  0.00    +0.171 A 
ATOM     44  N3    G A   2       7.192  -3.907  27.178  0.00  0.00    -0.196 NA
ENDBRANCH  26  42
BRANCH  29  45
ATOM     45  O3*   G A   2       7.452   2.028  28.678  0.00  0.00    -0.389 OA
ATOM     46  H3*   G A   2       7.516   1.824  29.634  0.00  0.00    +0.210 HD
ENDBRANCH  29  45
ENDBRANCH  25  28
ENDBRANCH   1  25
TORSDOF 11
ENDMDL
MODEL 2
REMARK VINA RESULT:      -7.7      4.154      8.023
REMARK  Name = 
REMARK  11 active torsions:
REMARK  status: ('A' for Active; 'I' for Inactive)
REMARK    1  A    between atoms: N9_8  and  C1*_9
REMARK    2  A    between atoms: C3*_12  and  O3*_14
REMARK    3  A    between atoms: C4*_15  and  C5*_17
REMARK    4  A    between atoms: C5*_17  and  O5*_18
REMARK    5  A    between atoms: O5*_18  and  P_19
REMARK    6  A    between atoms: P_19  and  O1P_20
REMARK    7  A    between atoms: P_19  and  O3*_22
REMARK    8  A    between atoms: O3*_22  and  C3*_23
REMARK    9  A    between atoms: C1*_26  and  N1_33
REMARK   10  A    between atoms: C4*_29  and  C5*_31
REMARK   11  A    between atoms: C5*_31  and  O5*_32
REMARK                            x       y       z     vdW  Elec       q    Type
REMARK                         _______ _______ _______ _____ _____    ______ ____
ROOT
ATOM      1  O5*   G A   2       6.865  -5.999  27.118  0.00  0.00    -0.284 OA
ENDROOT
BRANCH   1   2
ATOM      2  P     G A   2       5.229  -6.233  26.607  0.00  0.00    +0.475 P 
ATOM      3  O2P   G A   2       4.910  -5.031  27.479  0.00  0.00    -0.227 OA
BRANCH   2   4
ATOM      4  O1P   G A   2       5.065  -7.515  27.605  0.00  0.00    -0.302 OA
ATOM      5  H1P   G A   2       4.702  -8.310  27.190  0.00  0.00    +0.222 HD
ENDBRANCH   2   4
BRANCH   2   6
ATOM      6  O3*   C A   1       3.592  -6.468  26.097  0.00  0.00    -0.281 OA
BRANCH   6   7
ATOM      7  C3*   C A   1       3.502  -6.950  24.716  0.00  0.00    +0.165 C 
ATOM      8  C4*   C A   1       2.315  -6.309  23.959  0.00  0.00    +0.175 C 
ATOM      9  O4*   C A   1       2.825  -5.260  23.128  0.00  0.00    -0.348 OA
ATOM     10  C1*   C A   1       4.227  -5.474  22.950  0.00  0.00    +0.226 C 
ATOM     11  C2*   C A   1       4.667  -6.652  23.805  0.00  0.00    +0.089 C 
BRANCH  10  12
ATOM     12  N1    C A   1       4.948  -4.239  23.171  0.00  0.00    -0.273 N 
ATOM     13  C2    C A   1       5.767  -3.811  22.124  0.00  0.00    +0.352 A 
ATOM     14  O2    C A   1       6.053  -4.567  21.195  0.00  0.00    -0.244 OA
ATOM     15  N3    C A   1       6.192  -2.507  22.129  0.00  0.00    -0.178 NA
ATOM     16  C4    C A   1       5.954  -1.765  23.163  0.00  0.00    +0.123 A 
ATOM     17  N4    C A   1       6.291  -0.444  23.056  0.00  0.00    -0.343 N 
ATOM     18  H41   C A   1       6.479  -0.202  22.086  0.00  0.00    +0.144 HD
ATOM     19  H42   C A   1       5.640   0.208  23.479  0.00  0.00    +0.144 HD
ATOM     20  C5    C A   1       5.324  -2.269  24.400  0.00  0.00    +0.061 A 
ATOM     21  C6    C A   1       4.813  -3.498  24.323  0.00  0.00    +0.096 A 
ENDBRANCH  10  12
BRANCH   8  22
ATOM     22  C5*   C A   1       1.566  -7.347  23.100  0.00  0.00    +0.190 C 
BRANCH  22  23
ATOM     23  O5*   C A   1       2.095  -8.650  23.364  0.00  0.00    -0.392 OA
ATOM     24  H5*   C A   1       1.339  -9.260  23.360  0.00  0.00    +0.210 HD
ENDBRANCH  22  23
ENDBRANCH   8  22
ENDBRANCH   6   7
ENDBRANCH   2   6
ENDBRANCH   1   2
BRANCH   1  25
ATOM     25  C5*   G A   2       7.258  -4.630  27.181  0.00  0.00    +0.206 C 
BRANCH  25  28
ATOM     26  C1*   G A   2       8.863  -3.034  24.519  0.00  0.00    +0.225 C 
ATOM     27  O4*   G A   2       8.417  -2.937  25.891  0.00  0.00    -0.348 OA
ATOM     28  C4*   G A   2       8.575  -4.261  26.474  0.00  0.00    +0.175 C 
ATOM     29  C3*   G A   2       9.007  -5.178  25.312  0.00  0.00    +0.150 C 
ATOM     30  C2*   G A   2       9.807  -4.207  24.479  0.00  0.00    +0.088 C 
BRANCH  26  42
ATOM     31  N2    G A   2       7.342   1.302  26.937  0.00  0.00    -0.329 N 
ATOM     32  H21   G A   2       7.643   2.068  27.523  0.00  0.00    +0.145 HD
ATOM     33  H22   G A   2       6.992   0.516  27.470  0.00  0.00    +0.145 HD
ATOM     34  C2    G A   2       8.185   0.919  25.946  0.00  0.00    +0.195 A 
ATOM     35  N1    G A   2       8.916   1.914  25.336  0.00  0.00    -0.293 N 
ATOM     36  H1    G A   2       8.788   2.873  25.610  0.00  0.00    +0.172 HD
ATOM     37  C6    G A   2       9.806   1.709  24.292  0.00  0.00    +0.280 A 
ATOM     38  O6    G A   2      10.443   2.637  23.783  0.00  0.00    -0.265 OA
ATOM     39  C5    G A   2       9.900   0.319  23.906  0.00  0.00    +0.172 A 
ATOM     40  N7    G A   2      10.649  -0.308  22.939  0.00  0.00    -0.229 NA
ATOM     41  C8    G A   2      10.334  -1.583  23.054  0.00  0.00    +0.203 A 
ATOM     42  N9    G A   2       9.432  -1.797  24.066  0.00  0.00    -0.288 N 
ATOM     43  C4    G A   2       9.132  -0.575  24.608  0.00  0.00    +0.171 A 
ATOM     44  N3    G A   2       8.268  -0.346  25.623  0.00  0.00    -0.196 NA
ENDBRANCH  26  42
BRANCH  29  45
ATOM     45  O3*   G A   2       9.797  -6.310  25.581  0.00  0.00    -0.389 OA
ATOM     46  H3*   G A   2      10.680  -6.186  25.176  0.00  0.00    +0.210 HD
ENDBRANCH  29  45
ENDBRANCH  25  28
ENDBRANCH   1  25
TORSDOF 11
ENDMDL
MODEL 3
REMARK VINA RESULT:      -7.7      3.468      5.300
REMARK  Name = 
REMARK  11 active torsions:
REMARK  status: ('A' for Active; 'I' for Inactive)
REMARK    1  A    between atoms: N9_8  and  C1*_9
REMARK    2  A    between atoms: C3*_12  and  O3*_14
REMARK    3  A    between atoms: C4*_15  and  C5*_17
REMARK    4  A    between atoms: C5*_17  and  O5*_18
REMARK    5  A    between atoms: O5*_18  and  P_19
REMARK    6  A    between atoms: P_19  and  O1P_20
REMARK    7  A    between atoms: P_19  and  O3*_22
REMARK    8  A    between atoms: O3*_22  and  C3*_23
REMARK    9  A    between atoms: C1*_26  and  N1_33
REMARK   10  A    between atoms: C4*_29  and  C5*_31
REMARK   11  A    between atoms: C5*_31  and  O5*_32
REMARK                            x       y       z     vdW  Elec       q    Type
REMARK                         _______ _______ _______ _____ _____    ______ ____
ROOT
ATOM      1  O5*   G A   2       9.860  -2.163  23.173  0.00  0.00    -0.284 OA
ENDROOT
BRANCH   1   2
ATOM      2  P     G A   2       9.156  -0.730  22.507  0.00  0.00    +0.475 P 
ATOM      3  O2P   G A   2       7.907  -1.573  22.320  0.00  0.00    -0.227 OA
BRANCH   2   4
ATOM      4  O1P   G A   2       9.991  -0.924  21.118  0.00  0.00    -0.302 OA
ATOM      5  H1P   G A   2       9.446  -1.094  20.336  0.00  0.00    +0.222 HD
ENDBRANCH   2   4
BRANCH   2   6
ATOM      6  O3*   C A   1       8.452   0.704  21.842  0.00  0.00    -0.281 OA
BRANCH   6   7
ATOM      7  C3*   C A   1       7.486   1.326  22.751  0.00  0.00    +0.165 C 
ATOM      8  C4*   C A   1       7.809   1.016  24.232  0.00  0.00    +0.175 C 
ATOM      9  O4*   C A   1       8.462   2.158  24.799  0.00  0.00    -0.348 OA
ATOM     10  C1*   C A   1       8.181   3.289  23.971  0.00  0.00    +0.226 C 
ATOM     11  C2*   C A   1       7.406   2.833  22.744  0.00  0.00    +0.089 C 
BRANCH  10  12
ATOM     12  N1    C A   1       9.400   4.020  23.703  0.00  0.00    -0.273 N 
ATOM     13  C2    C A   1       9.327   5.407  23.847  0.00  0.00    +0.352 A 
ATOM     14  O2    C A   1       8.240   5.978  23.936  0.00  0.00    -0.244 OA
ATOM     15  N3    C A   1      10.502   6.108  23.947  0.00  0.00    -0.178 NA
ATOM     16  C4    C A   1      11.626   5.495  23.756  0.00  0.00    +0.123 A 
ATOM     17  N4    C A   1      12.764   6.217  23.994  0.00  0.00    -0.343 N 
ATOM     18  H41   C A   1      12.543   7.072  24.501  0.00  0.00    +0.144 HD
ATOM     19  H42   C A   1      13.519   5.709  24.438  0.00  0.00    +0.144 HD
ATOM     20  C5    C A   1      11.723   4.083  23.336  0.00  0.00    +0.061 A 
ATOM     21  C6    C A   1      10.581   3.396  23.366  0.00  0.00    +0.096 A 
ENDBRANCH  10  12
BRANCH   8  22
ATOM     22  C5*   C A   1       6.532   0.688  25.031  0.00  0.00    +0.190 C 
BRANCH  22  23
ATOM     23  O5*   C A   1       5.690  -0.164  24.248  0.00  0.00    -0.392 OA
ATOM     24  H5*   C A   1       6.235  -0.489  23.512  0.00  0.00    +0.210 HD
ENDBRANCH  22  23
ENDBRANCH   8  22
ENDBRANCH   6   7
ENDBRANCH   2   6
ENDBRANCH   1   2
BRANCH   1  25
ATOM     25  C5*   G A   2       9.449  -2.439  24.509  0.00  0.00    +0.206 C 
BRANCH  25  28
ATOM     26  C1*   G A   2       6.946  -4.273  26.114  0.00  0.00    +0.225 C 
ATOM     27  O4*   G A   2       7.342  -3.566  24.918  0.00  0.00    -0.348 OA
ATOM     28  C4*   G A   2       8.770  -3.800  24.751  0.00  0.00    +0.175 C 
ATOM     29  C3*   G A   2       9.214  -4.571  26.010  0.00  0.00    +0.150 C 
ATOM     30  C2*   G A   2       7.965  -5.366  26.300  0.00  0.00    +0.088 C 
BRANCH  26  42
ATOM     31  N2    G A   2       5.451  -6.369  21.605  0.00  0.00    -0.329 N 
ATOM     32  H21   G A   2       5.140  -7.218  21.154  0.00  0.00    +0.145 HD
ATOM     33  H22   G A   2       6.455  -6.252  21.570  0.00  0.00    +0.145 HD
ATOM     34  C2    G A   2       4.944  -6.108  22.836  0.00  0.00    +0.195 A 
ATOM     35  N1    G A   2       3.639  -6.486  23.062  0.00  0.00    -0.293 N 
ATOM     36  H1    G A   2       3.101  -6.906  22.322  0.00  0.00    +0.172 HD
ATOM     37  C6    G A   2       2.953  -6.277  24.250  0.00  0.00    +0.280 A 
ATOM     38  O6    G A   2       1.783  -6.643  24.403  0.00  0.00    -0.265 OA
ATOM     39  C5    G A   2       3.761  -5.619  25.250  0.00  0.00    +0.172 A 
ATOM     40  N7    G A   2       3.479  -5.234  26.539  0.00  0.00    -0.229 NA
ATOM     41  C8    G A   2       4.600  -4.692  26.973  0.00  0.00    +0.203 A 
ATOM     42  N9    G A   2       5.589  -4.734  26.024  0.00  0.00    -0.288 N 
ATOM     43  C4    G A   2       5.053  -5.312  24.903  0.00  0.00    +0.171 A 
ATOM     44  N3    G A   2       5.697  -5.526  23.734  0.00  0.00    -0.196 NA
ENDBRANCH  26  42
BRANCH  29  45
ATOM     45  O3*   G A   2      10.309  -5.450  25.932  0.00  0.00    -0.389 OA
ATOM     46  H3*   G A   2      10.726  -5.518  26.815  0.00  0.00    +0.210 HD
ENDBRANCH  29  45
ENDBRANCH  25  28
ENDBRANCH   1  25
TORSDOF 11
ENDMDL
MODEL 4
REMARK VINA RESULT:      -7.4      3.599      6.354
REMARK  Name = 
REMARK  11 active torsions:
REMARK  status: ('A' for Active; 'I' for Inactive)
REMARK    1  A    between atoms: N9_8  and  C1*_9
REMARK    2  A    between atoms: C3*_12  and  O3*_14
REMARK    3  A    between atoms: C4*_15  and  C5*_17
REMARK    4  A    between atoms: C5*_17  and  O5*_18
REMARK    5  A    between atoms: O5*_18  and  P_19
REMARK    6  A    between atoms: P_19  and  O1P_20
REMARK    7  A    between atoms: P_19  and  O3*_22
REMARK    8  A    between atoms: O3*_22  and  C3*_23
REMARK    9  A    between atoms: C1*_26  and  N1_33
REMARK   10  A    between atoms: C4*_29  and  C5*_31
REMARK   11  A    between atoms: C5*_31  and  O5*_32
REMARK                            x       y       z     vdW  Elec       q    Type
REMARK                         _______ _______ _______ _____ _____    ______ ____
ROOT
ATOM      1  O5*   G A   2       8.478  -2.963  22.482  0.00  0.00    -0.284 OA
ENDROOT
BRANCH   1   2
ATOM      2  P     G A   2       9.394  -1.746  23.302  0.00  0.00    +0.475 P 
ATOM      3  O2P   G A   2      10.437  -1.972  22.221  0.00  0.00    -0.227 OA
BRANCH   2   4
ATOM      4  O1P   G A   2       9.797  -2.797  24.484  0.00  0.00    -0.302 OA
ATOM      5  H1P   G A   2       9.407  -3.678  24.395  0.00  0.00    +0.222 HD
ENDBRANCH   2   4
BRANCH   2   6
ATOM      6  O3*   C A   1      10.310  -0.528  24.122  0.00  0.00    -0.281 OA
BRANCH   6   7
ATOM      7  C3*   C A   1       9.698   0.799  24.013  0.00  0.00    +0.165 C 
ATOM      8  C4*   C A   1       8.694   0.875  22.839  0.00  0.00    +0.175 C 
ATOM      9  O4*   C A   1       7.369   0.757  23.372  0.00  0.00    -0.348 OA
ATOM     10  C1*   C A   1       7.421   1.062  24.767  0.00  0.00    +0.226 C 
ATOM     11  C2*   C A   1       8.869   1.273  25.182  0.00  0.00    +0.089 C 
BRANCH  10  12
ATOM     12  N1    C A   1       6.696   0.062  25.519  0.00  0.00    -0.273 N 
ATOM     13  C2    C A   1       5.303   0.166  25.495  0.00  0.00    +0.352 A 
ATOM     14  O2    C A   1       4.752   1.186  25.082  0.00  0.00    -0.244 OA
ATOM     15  N3    C A   1       4.568  -0.925  25.886  0.00  0.00    -0.178 NA
ATOM     16  C4    C A   1       5.173  -1.947  26.402  0.00  0.00    +0.123 A 
ATOM     17  N4    C A   1       4.402  -3.048  26.655  0.00  0.00    -0.343 N 
ATOM     18  H41   C A   1       3.501  -2.966  26.188  0.00  0.00    +0.144 HD
ATOM     19  H42   C A   1       4.839  -3.941  26.459  0.00  0.00    +0.144 HD
ATOM     20  C5    C A   1       6.621  -1.977  26.690  0.00  0.00    +0.061 A 
ATOM     21  C6    C A   1       7.326  -0.962  26.190  0.00  0.00    +0.096 A 
ENDBRANCH  10  12
BRANCH   8  22
ATOM     22  C5*   C A   1       8.834   2.198  22.061  0.00  0.00    +0.190 C 
BRANCH  22  23
ATOM     23  O5*   C A   1      10.126   2.252  21.449  0.00  0.00    -0.392 OA
ATOM     24  H5*   C A   1      10.754   2.489  22.151  0.00  0.00    +0.210 HD
ENDBRANCH  22  23
ENDBRANCH   8  22
ENDBRANCH   6   7
ENDBRANCH   2   6
ENDBRANCH   1   2
BRANCH   1  25
ATOM     25  C5*   G A   2       7.947  -3.963  23.347  0.00  0.00    +0.206 C 
BRANCH  25  28
ATOM     26  C1*   G A   2       5.232  -5.996  24.188  0.00  0.00    +0.225 C 
ATOM     27  O4*   G A   2       5.953  -4.773  24.462  0.00  0.00    -0.348 OA
ATOM     28  C4*   G A   2       6.451  -4.288  23.182  0.00  0.00    +0.175 C 
ATOM     29  C3*   G A   2       6.098  -5.385  22.158  0.00  0.00    +0.150 C 
ATOM     30  C2*   G A   2       4.810  -5.906  22.744  0.00  0.00    +0.088 C 
BRANCH  26  42
ATOM     31  N2    G A   2       6.474  -7.379  29.036  0.00  0.00    -0.329 N 
ATOM     32  H21   G A   2       6.462  -7.090  30.004  0.00  0.00    +0.145 HD
ATOM     33  H22   G A   2       7.330  -7.124  28.562  0.00  0.00    +0.145 HD
ATOM     34  C2    G A   2       5.371  -7.095  28.298  0.00  0.00    +0.195 A 
ATOM     35  N1    G A   2       4.158  -7.156  28.947  0.00  0.00    -0.293 N 
ATOM     36  H1    G A   2       4.118  -7.431  29.914  0.00  0.00    +0.172 HD
ATOM     37  C6    G A   2       2.931  -6.920  28.345  0.00  0.00    +0.280 A 
ATOM     38  O6    G A   2       1.870  -6.982  28.976  0.00  0.00    -0.265 OA
ATOM     39  C5    G A   2       3.053  -6.589  26.944  0.00  0.00    +0.172 A 
ATOM     40  N7    G A   2       2.107  -6.286  25.995  0.00  0.00    -0.229 NA
ATOM     41  C8    G A   2       2.801  -6.059  24.898  0.00  0.00    +0.203 A 
ATOM     42  N9    G A   2       4.150  -6.184  25.113  0.00  0.00    -0.288 N 
ATOM     43  C4    G A   2       4.321  -6.544  26.424  0.00  0.00    +0.171 A 
ATOM     44  N3    G A   2       5.504  -6.781  27.035  0.00  0.00    -0.196 NA
ENDBRANCH  26  42
BRANCH  29  45
ATOM     45  O3*   G A   2       5.880  -5.032  20.814  0.00  0.00    -0.389 OA
ATOM     46  H3*   G A   2       5.039  -4.535  20.748  0.00  0.00    +0.210 HD
ENDBRANCH  29  45
ENDBRANCH  25  28
ENDBRANCH   1  25
TORSDOF 11
ENDMDL
MODEL 5
REMARK VINA RESULT:      -7.4      2.637      4.613
REMARK  Name = 
REMARK  11 active torsions:
REMARK  status: ('A' for Active; 'I' for Inactive)
REMARK    1  A    between atoms: N9_8  and  C1*_9
REMARK    2  A    between atoms: C3*_12  and  O3*_14
REMARK    3  A    between atoms: C4*_15  and  C5*_17
REMARK    4  A    between atoms: C5*_17  and  O5*_18
REMARK    5  A    between atoms: O5*_18  and  P_19
REMARK    6  A    between atoms: P_19  and  O1P_20
REMARK    7  A    between atoms: P_19  and  O3*_22
REMARK    8  A    between atoms: O3*_22  and  C3*_23
REMARK    9  A    between atoms: C1*_26  and  N1_33
REMARK   10  A    between atoms: C4*_29  and  C5*_31
REMARK   11  A    between atoms: C5*_31  and  O5*_32
REMARK                            x       y       z     vdW  Elec       q    Type
REMARK                         _______ _______ _______ _____ _____    ______ ____
ROOT
ATOM      1  O5*   G A   2       6.563   2.562  23.847  0.00  0.00    -0.284 OA
ENDROOT
BRANCH   1   2
ATOM      2  P     G A   2       7.530   1.546  22.834  0.00  0.00    +0.475 P 
ATOM      3  O2P   G A   2       7.611   2.748  21.909  0.00  0.00    -0.227 OA
BRANCH   2   4
ATOM      4  O1P   G A   2       6.208   0.732  22.330  0.00  0.00    -0.302 OA
ATOM      5  H1P   G A   2       5.666   1.200  21.678  0.00  0.00    +0.222 HD
ENDBRANCH   2   4
BRANCH   2   6
ATOM      6  O3*   C A   1       8.497   0.531  21.820  0.00  0.00    -0.281 OA
BRANCH   6   7
ATOM      7  C3*   C A   1       9.529  -0.189  22.572  0.00  0.00    +0.165 C 
ATOM      8  C4*   C A   1       9.232  -0.201  24.090  0.00  0.00    +0.175 C 
ATOM      9  O4*   C A   1       8.673  -1.476  24.428  0.00  0.00    -0.348 OA
ATOM     10  C1*   C A   1       9.003  -2.398  23.388  0.00  0.00    +0.226 C 
ATOM     11  C2*   C A   1       9.709  -1.655  22.264  0.00  0.00    +0.089 C 
BRANCH  10  12
ATOM     12  N1    C A   1       7.828  -3.147  22.999  0.00  0.00    -0.273 N 
ATOM     13  C2    C A   1       7.807  -4.492  23.373  0.00  0.00    +0.352 A 
ATOM     14  O2    C A   1       8.827  -5.055  23.769  0.00  0.00    -0.244 OA
ATOM     15  N3    C A   1       6.603  -5.151  23.344  0.00  0.00    -0.178 NA
ATOM     16  C4    C A   1       5.569  -4.562  22.836  0.00  0.00    +0.123 A 
ATOM     17  N4    C A   1       4.374  -5.219  22.950  0.00  0.00    -0.343 N 
ATOM     18  H41   C A   1       4.451  -5.981  23.621  0.00  0.00    +0.144 HD
ATOM     19  H42   C A   1       3.571  -4.634  23.147  0.00  0.00    +0.144 HD
ATOM     20  C5    C A   1       5.623  -3.237  22.185  0.00  0.00    +0.061 A 
ATOM     21  C6    C A   1       6.768  -2.571  22.336  0.00  0.00    +0.096 A 
ENDBRANCH  10  12
BRANCH   8  22
ATOM     22  C5*   C A   1      10.507   0.053  24.918  0.00  0.00    +0.190 C 
BRANCH  22  23
ATOM     23  O5*   C A   1      11.187   1.200  24.398  0.00  0.00    -0.392 OA
ATOM     24  H5*   C A   1      10.783   1.392  23.536  0.00  0.00    +0.210 HD
ENDBRANCH  22  23
ENDBRANCH   8  22
ENDBRANCH   6   7
ENDBRANCH   2   6
ENDBRANCH   1   2
BRANCH   1  25
ATOM     25  C5*   G A   2       5.607   1.850  24.629  0.00  0.00    +0.206 C 
BRANCH  25  28
ATOM     26  C1*   G A   2       4.905  -0.990  26.539  0.00  0.00    +0.225 C 
ATOM     27  O4*   G A   2       5.201  -0.464  25.225  0.00  0.00    -0.348 OA
ATOM     28  C4*   G A   2       6.133   0.638  25.419  0.00  0.00    +0.175 C 
ATOM     29  C3*   G A   2       6.252   0.817  26.946  0.00  0.00    +0.150 C 
ATOM     30  C2*   G A   2       6.077  -0.609  27.405  0.00  0.00    +0.088 C 
BRANCH  26  42
ATOM     31  N2    G A   2       8.985  -4.194  26.770  0.00  0.00    -0.329 N 
ATOM     32  H21   G A   2       9.443  -4.908  27.320  0.00  0.00    +0.145 HD
ATOM     33  H22   G A   2       9.315  -3.262  26.984  0.00  0.00    +0.145 HD
ATOM     34  C2    G A   2       7.632  -4.256  26.689  0.00  0.00    +0.195 A 
ATOM     35  N1    G A   2       7.069  -5.512  26.664  0.00  0.00    -0.293 N 
ATOM     36  H1    G A   2       7.658  -6.329  26.674  0.00  0.00    +0.172 HD
ATOM     37  C6    G A   2       5.709  -5.764  26.561  0.00  0.00    +0.280 A 
ATOM     38  O6    G A   2       5.255  -6.913  26.549  0.00  0.00    -0.265 OA
ATOM     39  C5    G A   2       4.924  -4.553  26.490  0.00  0.00    +0.172 A 
ATOM     40  N7    G A   2       3.568  -4.352  26.385  0.00  0.00    -0.229 NA
ATOM     41  C8    G A   2       3.429  -3.042  26.375  0.00  0.00    +0.203 A 
ATOM     42  N9    G A   2       4.635  -2.399  26.489  0.00  0.00    -0.288 N 
ATOM     43  C4    G A   2       5.606  -3.364  26.544  0.00  0.00    +0.171 A 
ATOM     44  N3    G A   2       6.937  -3.148  26.643  0.00  0.00    -0.196 NA
ENDBRANCH  26  42
BRANCH  29  45
ATOM     45  O3*   G A   2       7.442   1.332  27.491  0.00  0.00    -0.389 OA
ATOM     46  H3*   G A   2       8.195   1.050  26.934  0.00  0.00    +0.210 HD
ENDBRANCH  29  45
ENDBRANCH  25  28
ENDBRANCH   1  25
TORSDOF 11
ENDMDL
MODEL 6
REMARK VINA RESULT:      -7.4      3.277      8.352
REMARK  Name = 
REMARK  11 active torsions:
REMARK  status: ('A' for Active; 'I' for Inactive)
REMARK    1  A    between atoms: N9_8  and  C1*_9
REMARK    2  A    between atoms: C3*_12  and  O3*_14
REMARK    3  A    between atoms: C4*_15  and  C5*_17
REMARK    4  A    between atoms: C5*_17  and  O5*_18
REMARK    5  A    between atoms: O5*_18  and  P_19
REMARK    6  A    between atoms: P_19  and  O1P_20
REMARK    7  A    between atoms: P_19  and  O3*_22
REMARK    8  A    between atoms: O3*_22  and  C3*_23
REMARK    9  A    between atoms: C1*_26  and  N1_33
REMARK   10  A    between atoms: C4*_29  and  C5*_31
REMARK   11  A    between atoms: C5*_31  and  O5*_32
REMARK                            x       y       z     vdW  Elec       q    Type
REMARK                         _______ _______ _______ _____ _____    ______ ____
ROOT
ATOM      1  O5*   G A   2       9.821  -3.279  24.341  0.00  0.00    -0.284 OA
ENDROOT
BRANCH   1   2
ATOM      2  P     G A   2       8.671  -4.454  24.882  0.00  0.00    +0.475 P 
ATOM      3  O2P   G A   2       8.694  -3.696  26.197  0.00  0.00    -0.227 OA
BRANCH   2   4
ATOM      4  O1P   G A   2       9.844  -5.578  25.040  0.00  0.00    -0.302 OA
ATOM      5  H1P   G A   2      10.354  -5.522  25.861  0.00  0.00    +0.222 HD
ENDBRANCH   2   4
BRANCH   2   6
ATOM      6  O3*   C A   1       7.522  -5.629  25.422  0.00  0.00    -0.281 OA
BRANCH   6   7
ATOM      7  C3*   C A   1       6.293  -5.616  24.625  0.00  0.00    +0.165 C 
ATOM      8  C4*   C A   1       5.029  -5.571  25.515  0.00  0.00    +0.175 C 
ATOM      9  O4*   C A   1       4.544  -4.223  25.539  0.00  0.00    -0.348 OA
ATOM     10  C1*   C A   1       5.098  -3.530  24.419  0.00  0.00    +0.226 C 
ATOM     11  C2*   C A   1       6.083  -4.440  23.702  0.00  0.00    +0.089 C 
BRANCH  10  12
ATOM     12  N1    C A   1       5.624  -2.250  24.840  0.00  0.00    -0.273 N 
ATOM     13  C2    C A   1       6.062  -1.402  23.821  0.00  0.00    +0.352 A 
ATOM     14  O2    C A   1       6.231  -1.822  22.677  0.00  0.00    -0.244 OA
ATOM     15  N3    C A   1       6.240  -0.074  24.118  0.00  0.00    -0.178 NA
ATOM     16  C4    C A   1       6.146   0.320  25.348  0.00  0.00    +0.123 A 
ATOM     17  N4    C A   1       6.209   1.669  25.563  0.00  0.00    -0.343 N 
ATOM     18  H41   C A   1       6.100   2.175  24.686  0.00  0.00    +0.144 HD
ATOM     19  H42   C A   1       5.583   2.028  26.275  0.00  0.00    +0.144 HD
ATOM     20  C5    C A   1       5.949  -0.600  26.486  0.00  0.00    +0.061 A 
ATOM     21  C6    C A   1       5.658  -1.860  26.160  0.00  0.00    +0.096 A 
ENDBRANCH  10  12
BRANCH   8  22
ATOM     22  C5*   C A   1       3.933  -6.518  24.989  0.00  0.00    +0.190 C 
BRANCH  22  23
ATOM     23  O5*   C A   1       4.522  -7.479  24.108  0.00  0.00    -0.392 OA
ATOM     24  H5*   C A   1       4.048  -7.403  23.263  0.00  0.00    +0.210 HD
ENDBRANCH  22  23
ENDBRANCH   8  22
ENDBRANCH   6   7
ENDBRANCH   2   6
ENDBRANCH   1   2
BRANCH   1  25
ATOM     25  C5*   G A   2       9.468  -1.938  24.668  0.00  0.00    +0.206 C 
BRANCH  25  28
ATOM     26  C1*   G A   2       9.090   1.196  23.171  0.00  0.00    +0.225 C 
ATOM     27  O4*   G A   2       9.621   0.452  24.290  0.00  0.00    -0.348 OA
ATOM     28  C4*   G A   2      10.053  -0.835  23.766  0.00  0.00    +0.175 C 
ATOM     29  C3*   G A   2       9.608  -0.853  22.290  0.00  0.00    +0.150 C 
ATOM     30  C2*   G A   2       9.740   0.610  21.945  0.00  0.00    +0.088 C 
BRANCH  26  42
ATOM     31  N2    G A   2       4.992   4.297  22.432  0.00  0.00    -0.329 N 
ATOM     32  H21   G A   2       4.356   4.944  22.878  0.00  0.00    +0.145 HD
ATOM     33  H22   G A   2       4.655   3.343  22.447  0.00  0.00    +0.145 HD
ATOM     34  C2    G A   2       6.300   4.388  22.777  0.00  0.00    +0.195 A 
ATOM     35  N1    G A   2       6.786   5.649  23.041  0.00  0.00    -0.293 N 
ATOM     36  H1    G A   2       6.185   6.451  22.945  0.00  0.00    +0.172 HD
ATOM     37  C6    G A   2       8.100   5.931  23.385  0.00  0.00    +0.280 A 
ATOM     38  O6    G A   2       8.483   7.081  23.619  0.00  0.00    -0.265 OA
ATOM     39  C5    G A   2       8.924   4.745  23.447  0.00  0.00    +0.172 A 
ATOM     40  N7    G A   2      10.255   4.577  23.746  0.00  0.00    -0.229 NA
ATOM     41  C8    G A   2      10.451   3.277  23.658  0.00  0.00    +0.203 A 
ATOM     42  N9    G A   2       9.298   2.608  23.336  0.00  0.00    -0.288 N 
ATOM     43  C4    G A   2       8.313   3.547  23.179  0.00  0.00    +0.171 A 
ATOM     44  N3    G A   2       7.026   3.301  22.844  0.00  0.00    -0.196 NA
ENDBRANCH  26  42
BRANCH  29  45
ATOM     45  O3*   G A   2      10.337  -1.612  21.356  0.00  0.00    -0.389 OA
ATOM     46  H3*   G A   2      11.218  -1.203  21.232  0.00  0.00    +0.210 HD
ENDBRANCH  29  45
ENDBRANCH  25  28
ENDBRANCH   1  25
TORSDOF 11
ENDMDL
MODEL 7
REMARK VINA RESULT:      -7.3      3.124      8.356
REMARK  Name = 
REMARK  11 active torsions:
REMARK  status: ('A' for Active; 'I' for Inactive)
REMARK    1  A    between atoms: N9_8  and  C1*_9
REMARK    2  A    between atoms: C3*_12  and  O3*_14
REMARK    3  A    between atoms: C4*_15  and  C5*_17
REMARK    4  A    between atoms: C5*_17  and  O5*_18
REMARK    5  A    between atoms: O5*_18  and  P_19
REMARK    6  A    between atoms: P_19  and  O1P_20
REMARK    7  A    between atoms: P_19  and  O3*_22
REMARK    8  A    between atoms: O3*_22  and  C3*_23
REMARK    9  A    between atoms: C1*_26  and  N1_33
REMARK   10  A    between atoms: C4*_29  and  C5*_31
REMARK   11  A    between atoms: C5*_31  and  O5*_32
REMARK                            x       y       z     vdW  Elec       q    Type
REMARK                         _______ _______ _______ _____ _____    ______ ____
ROOT
ATOM      1  O5*   G A   2       6.489  -1.154  24.374  0.00  0.00    -0.284 OA
ENDROOT
BRANCH   1   2
ATOM      2  P     G A   2       5.865  -2.026  25.731  0.00  0.00    +0.475 P 
ATOM      3  O2P   G A   2       4.559  -2.063  24.955  0.00  0.00    -0.227 OA
BRANCH   2   4
ATOM      4  O1P   G A   2       5.775  -0.656  26.613  0.00  0.00    -0.302 OA
ATOM      5  H1P   G A   2       6.616  -0.187  26.725  0.00  0.00    +0.222 HD
ENDBRANCH   2   4
BRANCH   2   6
ATOM      6  O3*   C A   1       5.240  -2.898  27.089  0.00  0.00    -0.281 OA
BRANCH   6   7
ATOM      7  C3*   C A   1       6.100  -4.020  27.476  0.00  0.00    +0.165 C 
ATOM      8  C4*   C A   1       5.304  -5.340  27.595  0.00  0.00    +0.175 C 
ATOM      9  O4*   C A   1       5.527  -6.109  26.408  0.00  0.00    -0.348 OA
ATOM     10  C1*   C A   1       6.711  -5.619  25.774  0.00  0.00    +0.226 C 
ATOM     11  C2*   C A   1       7.211  -4.394  26.526  0.00  0.00    +0.089 C 
BRANCH  10  12
ATOM     12  N1    C A   1       6.473  -5.428  24.361  0.00  0.00    -0.273 N 
ATOM     13  C2    C A   1       7.605  -5.418  23.544  0.00  0.00    +0.352 A 
ATOM     14  O2    C A   1       8.732  -5.315  24.027  0.00  0.00    -0.244 OA
ATOM     15  N3    C A   1       7.429  -5.589  22.194  0.00  0.00    -0.178 NA
ATOM     16  C4    C A   1       6.229  -5.602  21.707  0.00  0.00    +0.123 A 
ATOM     17  N4    C A   1       6.115  -5.901  20.377  0.00  0.00    -0.343 N 
ATOM     18  H41   C A   1       6.987  -6.287  20.022  0.00  0.00    +0.144 HD
ATOM     19  H42   C A   1       5.324  -6.484  20.127  0.00  0.00    +0.144 HD
ATOM     20  C5    C A   1       5.019  -5.343  22.512  0.00  0.00    +0.061 A 
ATOM     21  C6    C A   1       5.207  -5.304  23.832  0.00  0.00    +0.096 A 
ENDBRANCH  10  12
BRANCH   8  22
ATOM     22  C5*   C A   1       5.733  -6.148  28.836  0.00  0.00    +0.190 C 
BRANCH  22  23
ATOM     23  O5*   C A   1       5.768  -7.540  28.505  0.00  0.00    -0.392 OA
ATOM     24  H5*   C A   1       6.608  -7.884  28.852  0.00  0.00    +0.210 HD
ENDBRANCH  22  23
ENDBRANCH   8  22
ENDBRANCH   6   7
ENDBRANCH   2   6
ENDBRANCH   1   2
BRANCH   1  25
ATOM     25  C5*   G A   2       7.622  -1.770  23.767  0.00  0.00    +0.206 C 
BRANCH  25  28
ATOM     26  C1*   G A   2       8.749   1.340  22.641  0.00  0.00    +0.225 C 
ATOM     27  O4*   G A   2       8.431   0.515  23.785  0.00  0.00    -0.348 OA
ATOM     28  C4*   G A   2       8.808  -0.846  23.432  0.00  0.00    +0.175 C 
ATOM     29  C3*   G A   2       9.234  -0.789  21.952  0.00  0.00    +0.150 C 
ATOM     30  C2*   G A   2       9.822   0.598  21.888  0.00  0.00    +0.088 C 
BRANCH  26  42
ATOM     31  N2    G A   2       5.088   5.006  22.300  0.00  0.00    -0.329 N 
ATOM     32  H21   G A   2       4.512   5.648  22.827  0.00  0.00    +0.145 HD
ATOM     33  H22   G A   2       4.640   4.111  22.149  0.00  0.00    +0.145 HD
ATOM     34  C2    G A   2       6.379   4.876  22.693  0.00  0.00    +0.195 A 
ATOM     35  N1    G A   2       6.998   6.009  23.174  0.00  0.00    -0.293 N 
ATOM     36  H1    G A   2       6.501   6.884  23.194  0.00  0.00    +0.172 HD
ATOM     37  C6    G A   2       8.318   6.066  23.597  0.00  0.00    +0.280 A 
ATOM     38  O6    G A   2       8.822   7.108  24.028  0.00  0.00    -0.265 OA
ATOM     39  C5    G A   2       8.991   4.792  23.489  0.00  0.00    +0.172 A 
ATOM     40  N7    G A   2      10.277   4.414  23.795  0.00  0.00    -0.229 NA
ATOM     41  C8    G A   2      10.321   3.130  23.501  0.00  0.00    +0.203 A 
ATOM     42  N9    G A   2       9.113   2.670  23.041  0.00  0.00    -0.288 N 
ATOM     43  C4    G A   2       8.256   3.737  23.011  0.00  0.00    +0.171 A 
ATOM     44  N3    G A   2       6.967   3.711  22.603  0.00  0.00    -0.196 NA
ENDBRANCH  26  42
BRANCH  29  45
ATOM     45  O3*   G A   2      10.180  -1.711  21.468  0.00  0.00    -0.389 OA
ATOM     46  H3*   G A   2      11.074  -1.320  21.544  0.00  0.00    +0.210 HD
ENDBRANCH  29  45
ENDBRANCH  25  28
ENDBRANCH   1  25
TORSDOF 11
ENDMDL
MODEL 8
REMARK VINA RESULT:      -7.3      3.119      7.961
REMARK  Name = 
REMARK  11 active torsions:
REMARK  status: ('A' for Active; 'I' for Inactive)
REMARK    1  A    between atoms: N9_8  and  C1*_9
REMARK    2  A    between atoms: C3*_12  and  O3*_14
REMARK    3  A    between atoms: C4*_15  and  C5*_17
REMARK    4  A    between atoms: C5*_17  and  O5*_18
REMARK    5  A    between atoms: O5*_18  and  P_19
REMARK    6  A    between atoms: P_19  and  O1P_20
REMARK    7  A    between atoms: P_19  and  O3*_22
REMARK    8  A    between atoms: O3*_22  and  C3*_23
REMARK    9  A    between atoms: C1*_26  and  N1_33
REMARK   10  A    between atoms: C4*_29  and  C5*_31
REMARK   11  A    between atoms: C5*_31  and  O5*_32
REMARK                            x       y       z     vdW  Elec       q    Type
REMARK                         _______ _______ _______ _____ _____    ______ ____
ROOT
ATOM      1  O5*   G A   2       4.498  -0.476  26.167  0.00  0.00    -0.284 OA
ENDROOT
BRANCH   1   2
ATOM      2  P     G A   2       4.369  -2.105  26.735  0.00  0.00    +0.475 P 
ATOM      3  O2P   G A   2       3.850  -2.423  25.344  0.00  0.00    -0.227 OA
BRANCH   2   4
ATOM      4  O1P   G A   2       3.032  -1.737  27.595  0.00  0.00    -0.302 OA
ATOM      5  H1P   G A   2       2.972  -0.813  27.880  0.00  0.00    +0.222 HD
ENDBRANCH   2   4
BRANCH   2   6
ATOM      6  O3*   C A   1       4.241  -3.735  27.303  0.00  0.00    -0.281 OA
BRANCH   6   7
ATOM      7  C3*   C A   1       5.540  -4.299  27.680  0.00  0.00    +0.165 C 
ATOM      8  C4*   C A   1       5.503  -5.844  27.730  0.00  0.00    +0.175 C 
ATOM      9  O4*   C A   1       6.093  -6.347  26.525  0.00  0.00    -0.348 OA
ATOM     10  C1*   C A   1       6.884  -5.306  25.947  0.00  0.00    +0.226 C 
ATOM     11  C2*   C A   1       6.702  -4.030  26.755  0.00  0.00    +0.089 C 
BRANCH  10  12
ATOM     12  N1    C A   1       6.599  -5.195  24.534  0.00  0.00    -0.273 N 
ATOM     13  C2    C A   1       7.708  -5.164  23.686  0.00  0.00    +0.352 A 
ATOM     14  O2    C A   1       8.840  -4.978  24.131  0.00  0.00    -0.244 OA
ATOM     15  N3    C A   1       7.506  -5.408  22.351  0.00  0.00    -0.178 NA
ATOM     16  C4    C A   1       6.297  -5.506  21.898  0.00  0.00    +0.123 A 
ATOM     17  N4    C A   1       6.164  -5.874  20.587  0.00  0.00    -0.343 N 
ATOM     18  H41   C A   1       7.047  -6.229  20.226  0.00  0.00    +0.144 HD
ATOM     19  H42   C A   1       5.401  -6.509  20.387  0.00  0.00    +0.144 HD
ATOM     20  C5    C A   1       5.096  -5.275  22.726  0.00  0.00    +0.061 A 
ATOM     21  C6    C A   1       5.316  -5.163  24.036  0.00  0.00    +0.096 A 
ENDBRANCH  10  12
BRANCH   8  22
ATOM     22  C5*   C A   1       6.262  -6.388  28.956  0.00  0.00    +0.190 C 
BRANCH  22  23
ATOM     23  O5*   C A   1       6.070  -5.501  30.063  0.00  0.00    -0.392 OA
ATOM     24  H5*   C A   1       6.866  -5.573  30.615  0.00  0.00    +0.210 HD
ENDBRANCH  22  23
ENDBRANCH   8  22
ENDBRANCH   6   7
ENDBRANCH   2   6
ENDBRANCH   1   2
BRANCH   1  25
ATOM     25  C5*   G A   2       5.761   0.128  26.433  0.00  0.00    +0.206 C 
BRANCH  25  28
ATOM     26  C1*   G A   2       7.973   1.482  24.092  0.00  0.00    +0.225 C 
ATOM     27  O4*   G A   2       7.789   1.021  25.449  0.00  0.00    -0.348 OA
ATOM     28  C4*   G A   2       6.865  -0.103  25.384  0.00  0.00    +0.175 C 
ATOM     29  C3*   G A   2       6.406  -0.178  23.914  0.00  0.00    +0.150 C 
ATOM     30  C2*   G A   2       7.652   0.302  23.212  0.00  0.00    +0.088 C 
BRANCH  26  42
ATOM     31  N2    G A   2       8.324   6.603  23.309  0.00  0.00    -0.329 N 
ATOM     32  H21   G A   2       8.669   7.473  23.689  0.00  0.00    +0.145 HD
ATOM     33  H22   G A   2       7.374   6.401  23.592  0.00  0.00    +0.145 HD
ATOM     34  C2    G A   2       9.136   5.521  23.419  0.00  0.00    +0.195 A 
ATOM     35  N1    G A   2      10.490   5.749  23.313  0.00  0.00    -0.293 N 
ATOM     36  H1    G A   2      10.832   6.678  23.131  0.00  0.00    +0.172 HD
ATOM     37  C6    G A   2      11.462   4.761  23.377  0.00  0.00    +0.280 A 
ATOM     38  O6    G A   2      12.666   5.021  23.283  0.00  0.00    -0.265 OA
ATOM     39  C5    G A   2      10.903   3.444  23.579  0.00  0.00    +0.172 A 
ATOM     40  N7    G A   2      11.499   2.212  23.700  0.00  0.00    -0.229 NA
ATOM     41  C8    G A   2      10.495   1.377  23.880  0.00  0.00    +0.203 A 
ATOM     42  N9    G A   2       9.288   2.027  23.899  0.00  0.00    -0.288 N 
ATOM     43  C4    G A   2       9.538   3.356  23.687  0.00  0.00    +0.171 A 
ATOM     44  N3    G A   2       8.612   4.339  23.618  0.00  0.00    -0.196 NA
ENDBRANCH  26  42
BRANCH  29  45
ATOM     45  O3*   G A   2       6.024  -1.419  23.372  0.00  0.00    -0.389 OA
ATOM     46  H3*   G A   2       5.603  -1.957  24.073  0.00  0.00    +0.210 HD
ENDBRANCH  29  45
ENDBRANCH  25  28
ENDBRANCH   1  25
TORSDOF 11
ENDMDL
MODEL 9
REMARK VINA RESULT:      -7.3      3.242      8.494
REMARK  Name = 
REMARK  11 active torsions:
REMARK  status: ('A' for Active; 'I' for Inactive)
REMARK    1  A    between atoms: N9_8  and  C1*_9
REMARK    2  A    between atoms: C3*_12  and  O3*_14
REMARK    3  A    between atoms: C4*_15  and  C5*_17
REMARK    4  A    between atoms: C5*_17  and  O5*_18
REMARK    5  A    between atoms: O5*_18  and  P_19
REMARK    6  A    between atoms: P_19  and  O1P_20
REMARK    7  A    between atoms: P_19  and  O3*_22
REMARK    8  A    between atoms: O3*_22  and  C3*_23
REMARK    9  A    between atoms: C1*_26  and  N1_33
REMARK   10  A    between atoms: C4*_29  and  C5*_31
REMARK   11  A    between atoms: C5*_31  and  O5*_32
REMARK                            x       y       z     vdW  Elec       q    Type
REMARK                         _______ _______ _______ _____ _____    ______ ____
ROOT
ATOM      1  O5*   G A   2       7.178  -3.046  21.862  0.00  0.00    -0.284 OA
ENDROOT
BRANCH   1   2
ATOM      2  P     G A   2       6.535  -4.497  22.551  0.00  0.00    +0.475 P 
ATOM      3  O2P   G A   2       7.975  -4.977  22.587  0.00  0.00    -0.227 OA
BRANCH   2   4
ATOM      4  O1P   G A   2       5.980  -4.983  21.095  0.00  0.00    -0.302 OA
ATOM      5  H1P   G A   2       5.093  -5.371  21.106  0.00  0.00    +0.222 HD
ENDBRANCH   2   4
BRANCH   2   6
ATOM      6  O3*   C A   1       5.891  -5.948  23.240  0.00  0.00    -0.281 OA
BRANCH   6   7
ATOM      7  C3*   C A   1       4.734  -5.692  24.102  0.00  0.00    +0.165 C 
ATOM      8  C4*   C A   1       4.909  -6.325  25.502  0.00  0.00    +0.175 C 
ATOM      9  O4*   C A   1       5.304  -5.294  26.416  0.00  0.00    -0.348 OA
ATOM     10  C1*   C A   1       4.962  -4.032  25.839  0.00  0.00    +0.226 C 
ATOM     11  C2*   C A   1       4.428  -4.251  24.432  0.00  0.00    +0.089 C 
BRANCH  10  12
ATOM     12  N1    C A   1       6.080  -3.120  25.947  0.00  0.00    -0.273 N 
ATOM     13  C2    C A   1       5.758  -1.763  26.020  0.00  0.00    +0.352 A 
ATOM     14  O2    C A   1       4.627  -1.365  25.746  0.00  0.00    -0.244 OA
ATOM     15  N3    C A   1       6.723  -0.895  26.464  0.00  0.00    -0.178 NA
ATOM     16  C4    C A   1       7.928  -1.327  26.655  0.00  0.00    +0.123 A 
ATOM     17  N4    C A   1       8.811  -0.446  27.217  0.00  0.00    -0.343 N 
ATOM     18  H41   C A   1       8.317   0.355  27.604  0.00  0.00    +0.144 HD
ATOM     19  H42   C A   1       9.455  -0.844  27.891  0.00  0.00    +0.144 HD
ATOM     20  C5    C A   1       8.363  -2.700  26.328  0.00  0.00    +0.061 A 
ATOM     21  C6    C A   1       7.385  -3.552  26.017  0.00  0.00    +0.096 A 
ENDBRANCH  10  12
BRANCH   8  22
ATOM     22  C5*   C A   1       3.607  -6.990  25.988  0.00  0.00    +0.190 C 
BRANCH  22  23
ATOM     23  O5*   C A   1       3.375  -8.183  25.232  0.00  0.00    -0.392 OA
ATOM     24  H5*   C A   1       2.877  -7.916  24.442  0.00  0.00    +0.210 HD
ENDBRANCH  22  23
ENDBRANCH   8  22
ENDBRANCH   6   7
ENDBRANCH   2   6
ENDBRANCH   1   2
BRANCH   1  25
ATOM     25  C5*   G A   2       6.992  -1.891  22.677  0.00  0.00    +0.206 C 
BRANCH  25  28
ATOM     26  C1*   G A   2       8.469   1.249  22.273  0.00  0.00    +0.225 C 
ATOM     27  O4*   G A   2       7.747   0.362  23.156  0.00  0.00    -0.348 OA
ATOM     28  C4*   G A   2       8.222  -0.985  22.871  0.00  0.00    +0.175 C 
ATOM     29  C3*   G A   2       9.166  -0.844  21.660  0.00  0.00    +0.150 C 
ATOM     30  C2*   G A   2       9.742   0.526  21.918  0.00  0.00    +0.088 C 
BRANCH  26  42
ATOM     31  N2    G A   2       4.440   4.524  22.229  0.00  0.00    -0.329 N 
ATOM     32  H21   G A   2       3.774   5.019  22.806  0.00  0.00    +0.145 HD
ATOM     33  H22   G A   2       4.101   3.618  21.930  0.00  0.00    +0.145 HD
ATOM     34  C2    G A   2       5.719   4.474  22.675  0.00  0.00    +0.195 A 
ATOM     35  N1    G A   2       6.186   5.584  23.344  0.00  0.00    -0.293 N 
ATOM     36  H1    G A   2       5.595   6.391  23.455  0.00  0.00    +0.172 HD
ATOM     37  C6    G A   2       7.472   5.717  23.848  0.00  0.00    +0.280 A 
ATOM     38  O6    G A   2       7.838   6.733  24.447  0.00  0.00    -0.265 OA
ATOM     39  C5    G A   2       8.288   4.550  23.604  0.00  0.00    +0.172 A 
ATOM     40  N7    G A   2       9.593   4.268  23.929  0.00  0.00    -0.229 NA
ATOM     41  C8    G A   2       9.793   3.051  23.464  0.00  0.00    +0.203 A 
ATOM     42  N9    G A   2       8.666   2.539  22.874  0.00  0.00    -0.288 N 
ATOM     43  C4    G A   2       7.696   3.504  22.942  0.00  0.00    +0.171 A 
ATOM     44  N3    G A   2       6.437   3.402  22.459  0.00  0.00    -0.196 NA
ENDBRANCH  26  42
BRANCH  29  45
ATOM     45  O3*   G A   2      10.220  -1.761  21.495  0.00  0.00    -0.389 OA
ATOM     46  H3*   G A   2      10.880  -1.619  22.205  0.00  0.00    +0.210 HD
ENDBRANCH  29  45
ENDBRANCH  25  28
ENDBRANCH   1  25
TORSDOF 11
ENDMDL
