MODEL 1
REMARK VINA RESULT:      -7.0      0.000      0.000
REMARK  Name = 
REMARK  7 active torsions:
REMARK  status: ('A' for Active; 'I' for Inactive)
REMARK    1  A    between atoms: N_1  and  S_2
REMARK    2  A    between atoms: S_2  and  C_5
REMARK    3  A    between atoms: C_9  and  N_10
REMARK    4  A    between atoms: N_10  and  C_11
REMARK    5  A    between atoms: C_11  and  C_12
REMARK    6  A    between atoms: C_17  and  C_19
REMARK    7  A    between atoms: C_19  and  O_20
REMARK                            x       y       z     vdW  Elec       q    Type
REMARK                         _______ _______ _______ _____ _____    ______ ____
ROOT
ATOM      1  C   UNL     1       6.348  -4.678  23.408  0.00  0.00    +0.124 A 
ATOM      2  C   UNL     1       7.219  -5.034  24.447  0.00  0.00    +0.046 A 
ATOM      3  C   UNL     1       8.425  -4.334  24.648  0.00  0.00    +0.082 A 
ATOM      4  C   UNL     1       8.773  -3.273  23.782  0.00  0.00    +0.043 A 
ATOM      5  C   UNL     1       7.837  -2.874  22.812  0.00  0.00    +0.045 A 
ATOM      6  C   UNL     1       6.645  -3.582  22.602  0.00  0.00    +0.069 A 
ATOM      7 CL   UNL     1       5.635  -3.015  21.320  0.00  0.00    -0.081 Cl
ENDROOT
BRANCH   1   8
ATOM      8  S   UNL     1       4.946  -5.700  23.086  0.00  0.00    +0.057 S 
ATOM      9  O   UNL     1       4.963  -6.809  24.010  0.00  0.00    -0.153 OA
ATOM     10  O   UNL     1       3.782  -4.865  22.918  0.00  0.00    -0.153 OA
BRANCH   8  11
ATOM     11  N   UNL     1       5.252  -6.326  21.559  0.00  0.00    -0.203 NA
ATOM     12  H   UNL     1       6.260  -6.390  21.406  0.00  0.00    +0.144 HD
ATOM     13  H   UNL     1       4.765  -7.216  21.453  0.00  0.00    +0.144 HD
ENDBRANCH   8  11
ENDBRANCH   1   8
BRANCH   3  14
ATOM     14  C   UNL     1       9.296  -4.818  25.766  0.00  0.00    +0.339 C 
ATOM     15  O   UNL     1       9.004  -4.649  26.940  0.00  0.00    -0.245 OA
BRANCH  14  16
ATOM     16  O   UNL     1      10.420  -5.460  25.386  0.00  0.00    -0.477 OA
ATOM     17  H   UNL     1      10.431  -6.399  25.692  0.00  0.00    +0.295 HD
ENDBRANCH  14  16
ENDBRANCH   3  14
BRANCH   4  18
ATOM     18  N   UNL     1       9.990  -2.571  23.960  0.00  0.00    -0.336 N 
ATOM     19  H   UNL     1       9.919  -1.970  24.791  0.00  0.00    +0.147 HD
BRANCH  18  20
ATOM     20  C   UNL     1      10.425  -1.717  22.830  0.00  0.00    +0.176 C 
BRANCH  20  21
ATOM     21  C   UNL     1      10.409  -0.265  23.152  0.00  0.00    +0.122 A 
ATOM     22  O   UNL     1      10.077   0.588  22.141  0.00  0.00    -0.466 OA
ATOM     23  C   UNL     1      10.111   1.843  22.659  0.00  0.00    +0.195 A 
ATOM     24  C   UNL     1      10.470   1.810  23.985  0.00  0.00    +0.041 A 
ATOM     25  C   UNL     1      10.663   0.445  24.306  0.00  0.00    +0.046 A 
ENDBRANCH  20  21
ENDBRANCH  18  20
ENDBRANCH   4  18
TORSDOF 7
ENDMDL
MODEL 2
REMARK VINA RESULT:      -6.7      2.008      2.433
REMARK  Name = 
REMARK  7 active torsions:
REMARK  status: ('A' for Active; 'I' for Inactive)
REMARK    1  A    between atoms: N_1  and  S_2
REMARK    2  A    between atoms: S_2  and  C_5
REMARK    3  A    between atoms: C_9  and  N_10
REMARK    4  A    between atoms: N_10  and  C_11
REMARK    5  A    between atoms: C_11  and  C_12
REMARK    6  A    between atoms: C_17  and  C_19
REMARK    7  A    between atoms: C_19  and  O_20
REMARK                            x       y       z     vdW  Elec       q    Type
REMARK                         _______ _______ _______ _____ _____    ______ ____
ROOT
ATOM      1  C   UNL     1       5.636  -5.371  25.138  0.00  0.00    +0.124 A 
ATOM      2  C   UNL     1       6.932  -5.430  25.669  0.00  0.00    +0.046 A 
ATOM      3  C   UNL     1       7.977  -4.674  25.102  0.00  0.00    +0.082 A 
ATOM      4  C   UNL     1       7.723  -3.860  23.975  0.00  0.00    +0.043 A 
ATOM      5  C   UNL     1       6.397  -3.744  23.526  0.00  0.00    +0.045 A 
ATOM      6  C   UNL     1       5.361  -4.510  24.079  0.00  0.00    +0.069 A 
ATOM      7 CL   UNL     1       3.799  -4.313  23.366  0.00  0.00    -0.081 Cl
ENDROOT
BRANCH   1   8
ATOM      8  S   UNL     1       4.410  -6.474  25.766  0.00  0.00    +0.057 S 
ATOM      9  O   UNL     1       3.303  -5.695  26.267  0.00  0.00    -0.153 OA
ATOM     10  O   UNL     1       4.221  -7.553  24.828  0.00  0.00    -0.153 OA
BRANCH   8  11
ATOM     11  N   UNL     1       5.155  -7.183  27.092  0.00  0.00    -0.203 NA
ATOM     12  H   UNL     1       5.070  -6.571  27.906  0.00  0.00    +0.144 HD
ATOM     13  H   UNL     1       4.770  -8.116  27.240  0.00  0.00    +0.144 HD
ENDBRANCH   8  11
ENDBRANCH   1   8
BRANCH   3  14
ATOM     14  C   UNL     1       9.328  -4.835  25.727  0.00  0.00    +0.339 C 
ATOM     15  O   UNL     1      10.339  -5.003  25.062  0.00  0.00    -0.245 OA
BRANCH  14  16
ATOM     16  O   UNL     1       9.353  -4.775  27.074  0.00  0.00    -0.477 OA
ATOM     17  H   UNL     1       9.242  -5.665  27.487  0.00  0.00    +0.295 HD
ENDBRANCH  14  16
ENDBRANCH   3  14
BRANCH   4  18
ATOM     18  N   UNL     1       8.767  -3.107  23.383  0.00  0.00    -0.336 N 
ATOM     19  H   UNL     1       9.225  -2.533  24.104  0.00  0.00    +0.147 HD
BRANCH  18  20
ATOM     20  C   UNL     1       8.377  -2.203  22.277  0.00  0.00    +0.176 C 
BRANCH  20  21
ATOM     21  C   UNL     1       9.055  -0.881  22.332  0.00  0.00    +0.122 A 
ATOM     22  O   UNL     1       9.613  -0.522  23.523  0.00  0.00    -0.466 OA
ATOM     23  C   UNL     1      10.182   0.698  23.339  0.00  0.00    +0.195 A 
ATOM     24  C   UNL     1       9.988   1.132  22.049  0.00  0.00    +0.041 A 
ATOM     25  C   UNL     1       9.257   0.111  21.396  0.00  0.00    +0.046 A 
ENDBRANCH  20  21
ENDBRANCH  18  20
ENDBRANCH   4  18
TORSDOF 7
ENDMDL
MODEL 3
REMARK VINA RESULT:      -6.5      3.128      4.055
REMARK  Name = 
REMARK  7 active torsions:
REMARK  status: ('A' for Active; 'I' for Inactive)
REMARK    1  A    between atoms: N_1  and  S_2
REMARK    2  A    between atoms: S_2  and  C_5
REMARK    3  A    between atoms: C_9  and  N_10
REMARK    4  A    between atoms: N_10  and  C_11
REMARK    5  A    between atoms: C_11  and  C_12
REMARK    6  A    between atoms: C_17  and  C_19
REMARK    7  A    between atoms: C_19  and  O_20
REMARK                            x       y       z     vdW  Elec       q    Type
REMARK                         _______ _______ _______ _____ _____    ______ ____
ROOT
ATOM      1  C   UNL     1       6.084  -5.546  26.789  0.00  0.00    +0.124 A 
ATOM      2  C   UNL     1       7.437  -5.253  26.568  0.00  0.00    +0.046 A 
ATOM      3  C   UNL     1       7.932  -5.078  25.261  0.00  0.00    +0.082 A 
ATOM      4  C   UNL     1       7.061  -5.217  24.156  0.00  0.00    +0.043 A 
ATOM      5  C   UNL     1       5.693  -5.413  24.411  0.00  0.00    +0.045 A 
ATOM      6  C   UNL     1       5.205  -5.604  25.711  0.00  0.00    +0.069 A 
ATOM      7 CL   UNL     1       3.510  -5.912  25.854  0.00  0.00    -0.081 Cl
ENDROOT
BRANCH   1   8
ATOM      8  S   UNL     1       5.556  -5.937  28.426  0.00  0.00    +0.057 S 
ATOM      9  O   UNL     1       6.698  -5.870  29.307  0.00  0.00    -0.153 OA
ATOM     10  O   UNL     1       4.332  -5.228  28.709  0.00  0.00    -0.153 OA
BRANCH   8  11
ATOM     11  N   UNL     1       5.106  -7.551  28.325  0.00  0.00    -0.203 NA
ATOM     12  H   UNL     1       5.002  -7.942  29.262  0.00  0.00    +0.144 HD
ATOM     13  H   UNL     1       4.266  -7.634  27.751  0.00  0.00    +0.144 HD
ENDBRANCH   8  11
ENDBRANCH   1   8
BRANCH   3  14
ATOM     14  C   UNL     1       9.398  -4.800  25.137  0.00  0.00    +0.339 C 
ATOM     15  O   UNL     1       9.833  -3.883  24.458  0.00  0.00    -0.245 OA
BRANCH  14  16
ATOM     16  O   UNL     1      10.204  -5.628  25.833  0.00  0.00    -0.477 OA
ATOM     17  H   UNL     1       9.767  -6.492  26.028  0.00  0.00    +0.295 HD
ENDBRANCH  14  16
ENDBRANCH   3  14
BRANCH   4  18
ATOM     18  N   UNL     1       7.547  -5.061  22.835  0.00  0.00    -0.336 N 
ATOM     19  H   UNL     1       8.548  -4.830  22.864  0.00  0.00    +0.147 HD
BRANCH  18  20
ATOM     20  C   UNL     1       6.877  -4.031  22.008  0.00  0.00    +0.176 C 
BRANCH  20  21
ATOM     21  C   UNL     1       7.218  -2.641  22.412  0.00  0.00    +0.122 A 
ATOM     22  O   UNL     1       8.431  -2.162  22.015  0.00  0.00    -0.466 OA
ATOM     23  C   UNL     1       8.521  -0.887  22.476  0.00  0.00    +0.195 A 
ATOM     24  C   UNL     1       7.386  -0.544  23.173  0.00  0.00    +0.041 A 
ATOM     25  C   UNL     1       6.541  -1.679  23.132  0.00  0.00    +0.046 A 
ENDBRANCH  20  21
ENDBRANCH  18  20
ENDBRANCH   4  18
TORSDOF 7
ENDMDL
MODEL 4
REMARK VINA RESULT:      -6.4      3.306      6.582
REMARK  Name = 
REMARK  7 active torsions:
REMARK  status: ('A' for Active; 'I' for Inactive)
REMARK    1  A    between atoms: N_1  and  S_2
REMARK    2  A    between atoms: S_2  and  C_5
REMARK    3  A    between atoms: C_9  and  N_10
REMARK    4  A    between atoms: N_10  and  C_11
REMARK    5  A    between atoms: C_11  and  C_12
REMARK    6  A    between atoms: C_17  and  C_19
REMARK    7  A    between atoms: C_19  and  O_20
REMARK                            x       y       z     vdW  Elec       q    Type
REMARK                         _______ _______ _______ _____ _____    ______ ____
ROOT
ATOM      1  C   UNL     1       8.667   0.189  23.116  0.00  0.00    +0.124 A 
ATOM      2  C   UNL     1       7.715  -0.746  22.688  0.00  0.00    +0.046 A 
ATOM      3  C   UNL     1       7.816  -2.100  23.063  0.00  0.00    +0.082 A 
ATOM      4  C   UNL     1       8.898  -2.527  23.866  0.00  0.00    +0.043 A 
ATOM      5  C   UNL     1       9.781  -1.552  24.361  0.00  0.00    +0.045 A 
ATOM      6  C   UNL     1       9.689  -0.208  23.973  0.00  0.00    +0.069 A 
ATOM      7 CL   UNL     1      10.895   0.855  24.607  0.00  0.00    -0.081 Cl
ENDROOT
BRANCH   1   8
ATOM      8  S   UNL     1       8.597   1.829  22.469  0.00  0.00    +0.057 S 
ATOM      9  O   UNL     1       7.535   1.895  21.492  0.00  0.00    -0.153 OA
ATOM     10  O   UNL     1       8.691   2.771  23.557  0.00  0.00    -0.153 OA
BRANCH   8  11
ATOM     11  N   UNL     1      10.044   1.989  21.634  0.00  0.00    -0.203 NA
ATOM     12  H   UNL     1      10.552   1.103  21.646  0.00  0.00    +0.144 HD
ATOM     13  H   UNL     1       9.858   2.341  20.695  0.00  0.00    +0.144 HD
ENDBRANCH   8  11
ENDBRANCH   1   8
BRANCH   3  14
ATOM     14  C   UNL     1       6.765  -3.020  22.524  0.00  0.00    +0.339 C 
ATOM     15  O   UNL     1       5.579  -2.730  22.530  0.00  0.00    -0.245 OA
BRANCH  14  16
ATOM     16  O   UNL     1       7.220  -4.187  22.024  0.00  0.00    -0.477 OA
ATOM     17  H   UNL     1       7.660  -4.739  22.715  0.00  0.00    +0.295 HD
ENDBRANCH  14  16
ENDBRANCH   3  14
BRANCH   4  18
ATOM     18  N   UNL     1       9.024  -3.888  24.237  0.00  0.00    -0.336 N 
ATOM     19  H   UNL     1       8.261  -4.430  23.811  0.00  0.00    +0.147 HD
BRANCH  18  20
ATOM     20  C   UNL     1       9.014  -4.174  25.690  0.00  0.00    +0.176 C 
BRANCH  20  21
ATOM     21  C   UNL     1       7.765  -4.839  26.149  0.00  0.00    +0.122 A 
ATOM     22  O   UNL     1       7.646  -5.073  27.487  0.00  0.00    -0.466 OA
ATOM     23  C   UNL     1       6.438  -5.665  27.676  0.00  0.00    +0.195 A 
ATOM     24  C   UNL     1       5.784  -5.824  26.477  0.00  0.00    +0.041 A 
ATOM     25  C   UNL     1       6.642  -5.289  25.487  0.00  0.00    +0.046 A 
ENDBRANCH  20  21
ENDBRANCH  18  20
ENDBRANCH   4  18
TORSDOF 7
ENDMDL
MODEL 5
REMARK VINA RESULT:      -6.3      2.365      3.107
REMARK  Name = 
REMARK  7 active torsions:
REMARK  status: ('A' for Active; 'I' for Inactive)
REMARK    1  A    between atoms: N_1  and  S_2
REMARK    2  A    between atoms: S_2  and  C_5
REMARK    3  A    between atoms: C_9  and  N_10
REMARK    4  A    between atoms: N_10  and  C_11
REMARK    5  A    between atoms: C_11  and  C_12
REMARK    6  A    between atoms: C_17  and  C_19
REMARK    7  A    between atoms: C_19  and  O_20
REMARK                            x       y       z     vdW  Elec       q    Type
REMARK                         _______ _______ _______ _____ _____    ______ ____
ROOT
ATOM      1  C   UNL     1       7.010  -4.006  23.094  0.00  0.00    +0.124 A 
ATOM      2  C   UNL     1       7.689  -3.070  22.302  0.00  0.00    +0.046 A 
ATOM      3  C   UNL     1       8.644  -2.203  22.869  0.00  0.00    +0.082 A 
ATOM      4  C   UNL     1       8.910  -2.263  24.256  0.00  0.00    +0.043 A 
ATOM      5  C   UNL     1       8.288  -3.275  25.007  0.00  0.00    +0.045 A 
ATOM      6  C   UNL     1       7.326  -4.126  24.445  0.00  0.00    +0.069 A 
ATOM      7 CL   UNL     1       6.595  -5.268  25.517  0.00  0.00    -0.081 Cl
ENDROOT
BRANCH   1   8
ATOM      8  S   UNL     1       5.697  -4.937  22.372  0.00  0.00    +0.057 S 
ATOM      9  O   UNL     1       5.973  -6.342  22.555  0.00  0.00    -0.153 OA
ATOM     10  O   UNL     1       4.437  -4.352  22.756  0.00  0.00    -0.153 OA
BRANCH   8  11
ATOM     11  N   UNL     1       5.839  -4.617  20.731  0.00  0.00    -0.203 NA
ATOM     12  H   UNL     1       4.956  -4.251  20.371  0.00  0.00    +0.144 HD
ATOM     13  H   UNL     1       6.633  -3.997  20.572  0.00  0.00    +0.144 HD
ENDBRANCH   8  11
ENDBRANCH   1   8
BRANCH   3  14
ATOM     14  C   UNL     1       9.286  -1.221  21.939  0.00  0.00    +0.339 C 
ATOM     15  O   UNL     1       8.723  -0.200  21.578  0.00  0.00    -0.245 OA
BRANCH  14  16
ATOM     16  O   UNL     1      10.533  -1.540  21.535  0.00  0.00    -0.477 OA
ATOM     17  H   UNL     1      10.667  -1.362  20.572  0.00  0.00    +0.295 HD
ENDBRANCH  14  16
ENDBRANCH   3  14
BRANCH   4  18
ATOM     18  N   UNL     1       9.854  -1.387  24.845  0.00  0.00    -0.336 N 
ATOM     19  H   UNL     1      10.430  -1.908  25.518  0.00  0.00    +0.147 HD
BRANCH  18  20
ATOM     20  C   UNL     1       9.301  -0.208  25.552  0.00  0.00    +0.176 C 
BRANCH  20  21
ATOM     21  C   UNL     1       9.468   1.061  24.796  0.00  0.00    +0.122 A 
ATOM     22  O   UNL     1      10.683   1.280  24.217  0.00  0.00    -0.466 OA
ATOM     23  C   UNL     1      10.604   2.476  23.576  0.00  0.00    +0.195 A 
ATOM     24  C   UNL     1       9.357   3.032  23.744  0.00  0.00    +0.041 A 
ATOM     25  C   UNL     1       8.621   2.117  24.533  0.00  0.00    +0.046 A 
ENDBRANCH  20  21
ENDBRANCH  18  20
ENDBRANCH   4  18
TORSDOF 7
ENDMDL
MODEL 6
REMARK VINA RESULT:      -6.3      2.801      3.686
REMARK  Name = 
REMARK  7 active torsions:
REMARK  status: ('A' for Active; 'I' for Inactive)
REMARK    1  A    between atoms: N_1  and  S_2
REMARK    2  A    between atoms: S_2  and  C_5
REMARK    3  A    between atoms: C_9  and  N_10
REMARK    4  A    between atoms: N_10  and  C_11
REMARK    5  A    between atoms: C_11  and  C_12
REMARK    6  A    between atoms: C_17  and  C_19
REMARK    7  A    between atoms: C_19  and  O_20
REMARK                            x       y       z     vdW  Elec       q    Type
REMARK                         _______ _______ _______ _____ _____    ______ ____
ROOT
ATOM      1  C   UNL     1       4.598  -6.463  24.572  0.00  0.00    +0.124 A 
ATOM      2  C   UNL     1       5.242  -6.061  23.394  0.00  0.00    +0.046 A 
ATOM      3  C   UNL     1       6.476  -5.382  23.444  0.00  0.00    +0.082 A 
ATOM      4  C   UNL     1       7.065  -5.088  24.694  0.00  0.00    +0.043 A 
ATOM      5  C   UNL     1       6.448  -5.589  25.853  0.00  0.00    +0.045 A 
ATOM      6  C   UNL     1       5.211  -6.249  25.803  0.00  0.00    +0.069 A 
ATOM      7 CL   UNL     1       4.544  -6.737  27.321  0.00  0.00    -0.081 Cl
ENDROOT
BRANCH   1   8
ATOM      8  S   UNL     1       2.973  -7.142  24.463  0.00  0.00    +0.057 S 
ATOM      9  O   UNL     1       3.030  -8.537  24.829  0.00  0.00    -0.153 OA
ATOM     10  O   UNL     1       2.038  -6.231  25.076  0.00  0.00    -0.153 OA
BRANCH   8  11
ATOM     11  N   UNL     1       2.624  -7.077  22.822  0.00  0.00    -0.203 NA
ATOM     12  H   UNL     1       3.131  -7.815  22.330  0.00  0.00    +0.144 HD
ATOM     13  H   UNL     1       1.614  -7.114  22.687  0.00  0.00    +0.144 HD
ENDBRANCH   8  11
ENDBRANCH   1   8
BRANCH   3  14
ATOM     14  C   UNL     1       7.060  -4.969  22.128  0.00  0.00    +0.339 C 
ATOM     15  O   UNL     1       7.317  -5.774  21.247  0.00  0.00    -0.245 OA
BRANCH  14  16
ATOM     16  O   UNL     1       7.275  -3.645  21.982  0.00  0.00    -0.477 OA
ATOM     17  H   UNL     1       8.236  -3.433  21.901  0.00  0.00    +0.295 HD
ENDBRANCH  14  16
ENDBRANCH   3  14
BRANCH   4  18
ATOM     18  N   UNL     1       8.296  -4.391  24.761  0.00  0.00    -0.336 N 
ATOM     19  H   UNL     1       8.955  -4.918  25.348  0.00  0.00    +0.147 HD
BRANCH  18  20
ATOM     20  C   UNL     1       8.238  -3.008  25.289  0.00  0.00    +0.176 C 
BRANCH  20  21
ATOM     21  C   UNL     1       9.087  -2.053  24.527  0.00  0.00    +0.122 A 
ATOM     22  O   UNL     1       9.534  -2.462  23.306  0.00  0.00    -0.466 OA
ATOM     23  C   UNL     1      10.265  -1.439  22.792  0.00  0.00    +0.195 A 
ATOM     24  C   UNL     1      10.303  -0.382  23.671  0.00  0.00    +0.041 A 
ATOM     25  C   UNL     1       9.540  -0.779  24.796  0.00  0.00    +0.046 A 
ENDBRANCH  20  21
ENDBRANCH  18  20
ENDBRANCH   4  18
TORSDOF 7
ENDMDL
MODEL 7
REMARK VINA RESULT:      -6.2      2.698      3.947
REMARK  Name = 
REMARK  7 active torsions:
REMARK  status: ('A' for Active; 'I' for Inactive)
REMARK    1  A    between atoms: N_1  and  S_2
REMARK    2  A    between atoms: S_2  and  C_5
REMARK    3  A    between atoms: C_9  and  N_10
REMARK    4  A    between atoms: N_10  and  C_11
REMARK    5  A    between atoms: C_11  and  C_12
REMARK    6  A    between atoms: C_17  and  C_19
REMARK    7  A    between atoms: C_19  and  O_20
REMARK                            x       y       z     vdW  Elec       q    Type
REMARK                         _______ _______ _______ _____ _____    ______ ____
ROOT
ATOM      1  C   UNL     1       8.493  -3.465  24.268  0.00  0.00    +0.124 A 
ATOM      2  C   UNL     1       9.106  -2.384  24.917  0.00  0.00    +0.046 A 
ATOM      3  C   UNL     1       9.267  -1.148  24.261  0.00  0.00    +0.082 A 
ATOM      4  C   UNL     1       8.823  -0.998  22.928  0.00  0.00    +0.043 A 
ATOM      5  C   UNL     1       8.125  -2.065  22.337  0.00  0.00    +0.045 A 
ATOM      6  C   UNL     1       7.980  -3.300  22.984  0.00  0.00    +0.069 A 
ATOM      7 CL   UNL     1       7.165  -4.538  22.096  0.00  0.00    -0.081 Cl
ENDROOT
BRANCH   1   8
ATOM      8  S   UNL     1       8.483  -5.039  25.065  0.00  0.00    +0.057 S 
ATOM      9  O   UNL     1       7.121  -5.374  25.406  0.00  0.00    -0.153 OA
ATOM     10  O   UNL     1       9.330  -5.946  24.330  0.00  0.00    -0.153 OA
BRANCH   8  11
ATOM     11  N   UNL     1       9.297  -4.760  26.506  0.00  0.00    -0.203 NA
ATOM     12  H   UNL     1       9.002  -3.868  26.904  0.00  0.00    +0.144 HD
ATOM     13  H   UNL     1       9.160  -5.553  27.133  0.00  0.00    +0.144 HD
ENDBRANCH   8  11
ENDBRANCH   1   8
BRANCH   3  14
ATOM     14  C   UNL     1       9.964  -0.071  25.034  0.00  0.00    +0.339 C 
ATOM     15  O   UNL     1      11.004   0.439  24.649  0.00  0.00    -0.245 OA
BRANCH  14  16
ATOM     16  O   UNL     1       9.358   0.301  26.180  0.00  0.00    -0.477 OA
ATOM     17  H   UNL     1       9.682  -0.217  26.956  0.00  0.00    +0.295 HD
ENDBRANCH  14  16
ENDBRANCH   3  14
BRANCH   4  18
ATOM     18  N   UNL     1       8.993   0.234  22.248  0.00  0.00    -0.336 N 
ATOM     19  H   UNL     1       9.849   0.694  22.585  0.00  0.00    +0.147 HD
BRANCH  18  20
ATOM     20  C   UNL     1       7.886   1.209  22.374  0.00  0.00    +0.176 C 
BRANCH  20  21
ATOM     21  C   UNL     1       8.156   2.280  23.370  0.00  0.00    +0.122 A 
ATOM     22  O   UNL     1       7.422   2.254  24.519  0.00  0.00    -0.466 OA
ATOM     23  C   UNL     1       7.842   3.300  25.278  0.00  0.00    +0.195 A 
ATOM     24  C   UNL     1       8.829   4.002  24.628  0.00  0.00    +0.041 A 
ATOM     25  C   UNL     1       9.034   3.343  23.392  0.00  0.00    +0.046 A 
ENDBRANCH  20  21
ENDBRANCH  18  20
ENDBRANCH   4  18
TORSDOF 7
ENDMDL
MODEL 8
REMARK VINA RESULT:      -6.2      3.511      6.458
REMARK  Name = 
REMARK  7 active torsions:
REMARK  status: ('A' for Active; 'I' for Inactive)
REMARK    1  A    between atoms: N_1  and  S_2
REMARK    2  A    between atoms: S_2  and  C_5
REMARK    3  A    between atoms: C_9  and  N_10
REMARK    4  A    between atoms: N_10  and  C_11
REMARK    5  A    between atoms: C_11  and  C_12
REMARK    6  A    between atoms: C_17  and  C_19
REMARK    7  A    between atoms: C_19  and  O_20
REMARK                            x       y       z     vdW  Elec       q    Type
REMARK                         _______ _______ _______ _____ _____    ______ ____
ROOT
ATOM      1  C   UNL     1       7.721   0.968  23.268  0.00  0.00    +0.124 A 
ATOM      2  C   UNL     1       8.738   0.048  22.979  0.00  0.00    +0.046 A 
ATOM      3  C   UNL     1       8.698  -1.259  23.505  0.00  0.00    +0.082 A 
ATOM      4  C   UNL     1       7.632  -1.644  24.348  0.00  0.00    +0.043 A 
ATOM      5  C   UNL     1       6.578  -0.735  24.542  0.00  0.00    +0.045 A 
ATOM      6  C   UNL     1       6.627   0.571  24.032  0.00  0.00    +0.069 A 
ATOM      7 CL   UNL     1       5.290   1.594  24.421  0.00  0.00    -0.081 Cl
ENDROOT
BRANCH   1   8
ATOM      8  S   UNL     1       7.912   2.640  22.738  0.00  0.00    +0.057 S 
ATOM      9  O   UNL     1       6.842   2.958  21.823  0.00  0.00    -0.153 OA
ATOM     10  O   UNL     1       8.208   3.467  23.882  0.00  0.00    -0.153 OA
BRANCH   8  11
ATOM     11  N   UNL     1       9.333   2.614  21.846  0.00  0.00    -0.203 NA
ATOM     12  H   UNL     1      10.127   2.437  22.463  0.00  0.00    +0.144 HD
ATOM     13  H   UNL     1       9.246   1.938  21.087  0.00  0.00    +0.144 HD
ENDBRANCH   8  11
ENDBRANCH   1   8
BRANCH   3  14
ATOM     14  C   UNL     1       9.851  -2.150  23.159  0.00  0.00    +0.339 C 
ATOM     15  O   UNL     1      10.188  -3.086  23.867  0.00  0.00    -0.245 OA
BRANCH  14  16
ATOM     16  O   UNL     1      10.486  -1.851  22.007  0.00  0.00    -0.477 OA
ATOM     17  H   UNL     1       9.980  -2.155  21.215  0.00  0.00    +0.295 HD
ENDBRANCH  14  16
ENDBRANCH   3  14
BRANCH   4  18
ATOM     18  N   UNL     1       7.587  -2.948  24.899  0.00  0.00    -0.336 N 
ATOM     19  H   UNL     1       8.347  -3.513  24.500  0.00  0.00    +0.147 HD
BRANCH  18  20
ATOM     20  C   UNL     1       6.325  -3.698  24.703  0.00  0.00    +0.176 C 
BRANCH  20  21
ATOM     21  C   UNL     1       6.342  -4.569  23.498  0.00  0.00    +0.122 A 
ATOM     22  O   UNL     1       7.558  -5.016  23.075  0.00  0.00    -0.466 OA
ATOM     23  C   UNL     1       7.334  -5.795  21.985  0.00  0.00    +0.195 A 
ATOM     24  C   UNL     1       5.991  -5.847  21.696  0.00  0.00    +0.041 A 
ATOM     25  C   UNL     1       5.347  -5.054  22.675  0.00  0.00    +0.046 A 
ENDBRANCH  20  21
ENDBRANCH  18  20
ENDBRANCH   4  18
TORSDOF 7
ENDMDL
MODEL 9
REMARK VINA RESULT:      -6.1      3.208      6.248
REMARK  Name = 
REMARK  7 active torsions:
REMARK  status: ('A' for Active; 'I' for Inactive)
REMARK    1  A    between atoms: N_1  and  S_2
REMARK    2  A    between atoms: S_2  and  C_5
REMARK    3  A    between atoms: C_9  and  N_10
REMARK    4  A    between atoms: N_10  and  C_11
REMARK    5  A    between atoms: C_11  and  C_12
REMARK    6  A    between atoms: C_17  and  C_19
REMARK    7  A    between atoms: C_19  and  O_20
REMARK                            x       y       z     vdW  Elec       q    Type
REMARK                         _______ _______ _______ _____ _____    ______ ____
ROOT
ATOM      1  C   UNL     1       8.788   0.108  24.009  0.00  0.00    +0.124 A 
ATOM      2  C   UNL     1       9.205  -1.123  24.532  0.00  0.00    +0.046 A 
ATOM      3  C   UNL     1       8.275  -2.154  24.776  0.00  0.00    +0.082 A 
ATOM      4  C   UNL     1       6.904  -1.941  24.508  0.00  0.00    +0.043 A 
ATOM      5  C   UNL     1       6.529  -0.734  23.893  0.00  0.00    +0.045 A 
ATOM      6  C   UNL     1       7.452   0.297  23.667  0.00  0.00    +0.069 A 
ATOM      7 CL   UNL     1       6.821   1.749  22.974  0.00  0.00    -0.081 Cl
ENDROOT
BRANCH   1   8
ATOM      8  S   UNL     1       9.959   1.423  23.897  0.00  0.00    +0.057 S 
ATOM      9  O   UNL     1       9.362   2.619  24.442  0.00  0.00    -0.153 OA
ATOM     10  O   UNL     1      11.248   0.947  24.334  0.00  0.00    -0.153 OA
BRANCH   8  11
ATOM     11  N   UNL     1      10.127   1.666  22.245  0.00  0.00    -0.203 NA
ATOM     12  H   UNL     1       9.726   0.876  21.735  0.00  0.00    +0.144 HD
ATOM     13  H   UNL     1       9.720   2.566  21.990  0.00  0.00    +0.144 HD
ENDBRANCH   8  11
ENDBRANCH   1   8
BRANCH   3  14
ATOM     14  C   UNL     1       8.823  -3.417  25.366  0.00  0.00    +0.339 C 
ATOM     15  O   UNL     1       8.470  -3.833  26.458  0.00  0.00    -0.245 OA
BRANCH  14  16
ATOM     16  O   UNL     1       9.726  -4.066  24.603  0.00  0.00    -0.477 OA
ATOM     17  H   UNL     1      10.493  -4.392  25.133  0.00  0.00    +0.295 HD
ENDBRANCH  14  16
ENDBRANCH   3  14
BRANCH   4  18
ATOM     18  N   UNL     1       5.955  -2.961  24.764  0.00  0.00    -0.336 N 
ATOM     19  H   UNL     1       6.436  -3.786  25.144  0.00  0.00    +0.147 HD
BRANCH  18  20
ATOM     20  C   UNL     1       5.148  -3.410  23.606  0.00  0.00    +0.176 C 
BRANCH  20  21
ATOM     21  C   UNL     1       5.815  -4.469  22.802  0.00  0.00    +0.122 A 
ATOM     22  O   UNL     1       5.512  -4.518  21.473  0.00  0.00    -0.466 OA
ATOM     23  C   UNL     1       6.237  -5.537  20.942  0.00  0.00    +0.195 A 
ATOM     24  C   UNL     1       6.993  -6.149  21.913  0.00  0.00    +0.041 A 
ATOM     25  C   UNL     1       6.721  -5.459  23.118  0.00  0.00    +0.046 A 
ENDBRANCH  20  21
ENDBRANCH  18  20
ENDBRANCH   4  18
TORSDOF 7
ENDMDL
