MODEL 1
REMARK VINA RESULT:      -6.7      0.000      0.000
REMARK  Name = 
REMARK  15 active torsions:
REMARK  status: ('A' for Active; 'I' for Inactive)
REMARK    1  A    between atoms: C_1  and  O_2
REMARK    2  A    between atoms: O_2  and  C_3
REMARK    3  A    between atoms: C_3  and  C_4
REMARK    4  A    between atoms: C_4  and  O_5
REMARK    5  A    between atoms: O_5  and  C_6
REMARK    6  A    between atoms: C_6  and  C_8
REMARK    7  A    between atoms: C_9  and  C_10
REMARK    8  A    between atoms: C_12  and  C_13
REMARK    9  A    between atoms: C_14  and  C_25
REMARK   10  A    between atoms: C_15  and  C_16
REMARK   11  A    between atoms: C_20  and  N_22
REMARK   12  A    between atoms: C_25  and  O_27
REMARK   13  A    between atoms: O_27  and  C_28
REMARK   14  A    between atoms: C_28  and  C_29
REMARK   15  A    between atoms: C_30  and  C_31
REMARK                            x       y       z     vdW  Elec       q    Type
REMARK                         _______ _______ _______ _____ _____    ______ ____
ROOT
ATOM      1  C   UNL     1       9.140  -0.751  23.889  0.00  0.00    +0.065 C 
ATOM      2  C   UNL     1       7.680  -1.203  24.163  0.00  0.00    +0.096 C 
ATOM      3  C   UNL     1       7.183  -0.814  25.574  0.00  0.00    +0.065 C 
ATOM      4  C   UNL     1       7.941  -0.021  26.375  0.00  0.00    +0.016 C 
ATOM      5  C   UNL     1       7.541   0.490  27.740  0.00  0.00    +0.061 C 
ATOM      6  N   UNL     1       9.178   0.408  25.948  0.00  0.00    -0.321 N 
ATOM      7  H   UNL     1       9.691   1.040  26.559  0.00  0.00    +0.152 HD
ATOM      8  C   UNL     1       9.798   0.038  24.771  0.00  0.00    +0.016 C 
ATOM      9  C   UNL     1      11.181   0.633  24.625  0.00  0.00    +0.061 C 
ENDROOT
BRANCH   2  10
ATOM     10  C   UNL     1       7.497  -2.697  23.845  0.00  0.00    -0.029 A 
ATOM     11  C   UNL     1       6.762  -3.110  22.711  0.00  0.00    +0.088 A 
ATOM     12  C   UNL     1       6.729  -4.468  22.345  0.00  0.00    +0.273 A 
ATOM     13  C   UNL     1       7.426  -5.418  23.101  0.00  0.00    +0.084 A 
ATOM     14  C   UNL     1       8.101  -5.018  24.253  0.00  0.00    +0.007 A 
ATOM     15  C   UNL     1       8.127  -3.673  24.631  0.00  0.00    +0.005 A 
BRANCH  12  16
ATOM     16  N   UNL     1       5.980  -4.904  21.161  0.00  0.00    +0.080 N 
ATOM     17  O   UNL     1       5.783  -4.079  20.256  0.00  0.00    +0.041 OA
ATOM     18  O   UNL     1       5.587  -6.086  21.122  0.00  0.00    -0.576 OA
ENDBRANCH  12  16
ENDBRANCH   2  10
BRANCH   1  19
ATOM     19  C   UNL     1       9.782  -1.142  22.601  0.00  0.00    +0.338 C 
ATOM     20  O   UNL     1      10.790  -1.816  22.471  0.00  0.00    -0.245 OA
BRANCH  19  21
ATOM     21  O   UNL     1       9.142  -0.513  21.584  0.00  0.00    -0.459 OA
BRANCH  21  22
ATOM     22  C   UNL     1       9.392   0.893  21.527  0.00  0.00    +0.260 C 
BRANCH  22  23
ATOM     23  C   UNL     1       8.151   1.772  21.575  0.00  0.00    +0.200 C 
BRANCH  23  25
ATOM     24  C   UNL     1       7.064   2.436  23.581  0.00  0.00    +0.194 C 
ATOM     25  O   UNL     1       8.237   2.526  22.790  0.00  0.00    -0.380 OA
ENDBRANCH  23  25
ENDBRANCH  22  23
ENDBRANCH  21  22
ENDBRANCH  19  21
ENDBRANCH   1  19
BRANCH   3  26
ATOM     26  C   UNL     1       5.822  -1.271  25.965  0.00  0.00    +0.338 C 
ATOM     27  O   UNL     1       4.793  -0.750  25.550  0.00  0.00    -0.245 OA
BRANCH  26  28
ATOM     28  O   UNL     1       5.897  -2.330  26.797  0.00  0.00    -0.457 OA
BRANCH  28  29
ATOM     29  C   UNL     1       4.734  -2.728  27.526  0.00  0.00    +0.260 C 
BRANCH  29  30
ATOM     30  C   UNL     1       4.009  -3.823  26.788  0.00  0.00    +0.014 C 
ATOM     31  C   UNL     1       4.562  -4.668  25.900  0.00  0.00    +0.007 C 
BRANCH  31  32
ATOM     32  C   UNL     1       3.828  -5.646  25.084  0.00  0.00    -0.025 A 
ATOM     33  C   UNL     1       3.610  -6.973  25.476  0.00  0.00    +0.008 A 
ATOM     34  C   UNL     1       2.880  -7.844  24.661  0.00  0.00    +0.001 A 
ATOM     35  C   UNL     1       2.372  -7.402  23.441  0.00  0.00    +0.000 A 
ATOM     36  C   UNL     1       2.604  -6.093  23.027  0.00  0.00    +0.001 A 
ATOM     37  C   UNL     1       3.333  -5.224  23.841  0.00  0.00    +0.008 A 
ENDBRANCH  31  32
ENDBRANCH  29  30
ENDBRANCH  28  29
ENDBRANCH  26  28
ENDBRANCH   3  26
TORSDOF 12
ENDMDL
MODEL 2
REMARK VINA RESULT:      -6.6      2.079      6.901
REMARK  Name = 
REMARK  15 active torsions:
REMARK  status: ('A' for Active; 'I' for Inactive)
REMARK    1  A    between atoms: C_1  and  O_2
REMARK    2  A    between atoms: O_2  and  C_3
REMARK    3  A    between atoms: C_3  and  C_4
REMARK    4  A    between atoms: C_4  and  O_5
REMARK    5  A    between atoms: O_5  and  C_6
REMARK    6  A    between atoms: C_6  and  C_8
REMARK    7  A    between atoms: C_9  and  C_10
REMARK    8  A    between atoms: C_12  and  C_13
REMARK    9  A    between atoms: C_14  and  C_25
REMARK   10  A    between atoms: C_15  and  C_16
REMARK   11  A    between atoms: C_20  and  N_22
REMARK   12  A    between atoms: C_25  and  O_27
REMARK   13  A    between atoms: O_27  and  C_28
REMARK   14  A    between atoms: C_28  and  C_29
REMARK   15  A    between atoms: C_30  and  C_31
REMARK                            x       y       z     vdW  Elec       q    Type
REMARK                         _______ _______ _______ _____ _____    ______ ____
ROOT
ATOM      1  C   UNL     1       7.971  -1.618  25.937  0.00  0.00    +0.065 C 
ATOM      2  C   UNL     1       8.713  -2.032  24.638  0.00  0.00    +0.096 C 
ATOM      3  C   UNL     1       9.645  -0.924  24.096  0.00  0.00    +0.065 C 
ATOM      4  C   UNL     1       9.864   0.204  24.819  0.00  0.00    +0.016 C 
ATOM      5  C   UNL     1      10.804   1.325  24.439  0.00  0.00    +0.061 C 
ATOM      6  N   UNL     1       9.223   0.385  26.025  0.00  0.00    -0.321 N 
ATOM      7  H   UNL     1       9.454   1.222  26.556  0.00  0.00    +0.152 HD
ATOM      8  C   UNL     1       8.275  -0.459  26.568  0.00  0.00    +0.016 C 
ATOM      9  C   UNL     1       7.714   0.056  27.876  0.00  0.00    +0.061 C 
ENDROOT
BRANCH   2  10
ATOM     10  C   UNL     1       7.725  -2.564  23.585  0.00  0.00    -0.029 A 
ATOM     11  C   UNL     1       7.858  -3.870  23.064  0.00  0.00    +0.088 A 
ATOM     12  C   UNL     1       6.865  -4.400  22.219  0.00  0.00    +0.273 A 
ATOM     13  C   UNL     1       5.738  -3.636  21.892  0.00  0.00    +0.084 A 
ATOM     14  C   UNL     1       5.638  -2.326  22.358  0.00  0.00    +0.007 A 
ATOM     15  C   UNL     1       6.626  -1.788  23.186  0.00  0.00    +0.005 A 
BRANCH  12  16
ATOM     16  N   UNL     1       6.988  -5.761  21.685  0.00  0.00    +0.080 N 
ATOM     17  O   UNL     1       7.743  -6.553  22.268  0.00  0.00    +0.041 OA
ATOM     18  O   UNL     1       6.319  -6.053  20.675  0.00  0.00    -0.576 OA
ENDBRANCH  12  16
ENDBRANCH   2  10
BRANCH   1  19
ATOM     19  C   UNL     1       6.967  -2.554  26.520  0.00  0.00    +0.338 C 
ATOM     20  O   UNL     1       5.783  -2.325  26.699  0.00  0.00    -0.245 OA
BRANCH  19  21
ATOM     21  O   UNL     1       7.608  -3.669  26.951  0.00  0.00    -0.459 OA
BRANCH  21  22
ATOM     22  C   UNL     1       6.732  -4.761  27.242  0.00  0.00    +0.260 C 
BRANCH  22  23
ATOM     23  C   UNL     1       6.406  -5.659  26.058  0.00  0.00    +0.200 C 
BRANCH  23  25
ATOM     24  C   UNL     1       5.293  -6.575  27.947  0.00  0.00    +0.194 C 
ATOM     25  O   UNL     1       5.558  -6.698  26.560  0.00  0.00    -0.380 OA
ENDBRANCH  23  25
ENDBRANCH  22  23
ENDBRANCH  21  22
ENDBRANCH  19  21
ENDBRANCH   1  19
BRANCH   3  26
ATOM     26  C   UNL     1      10.343  -1.193  22.809  0.00  0.00    +0.338 C 
ATOM     27  O   UNL     1      10.893  -2.257  22.552  0.00  0.00    -0.245 OA
BRANCH  26  28
ATOM     28  O   UNL     1      10.252  -0.126  21.988  0.00  0.00    -0.457 OA
BRANCH  28  29
ATOM     29  C   UNL     1       9.067   0.055  21.210  0.00  0.00    +0.260 C 
BRANCH  29  30
ATOM     30  C   UNL     1       8.475   1.415  21.478  0.00  0.00    +0.014 C 
ATOM     31  C   UNL     1       7.435   1.669  22.291  0.00  0.00    +0.007 C 
BRANCH  31  32
ATOM     32  C   UNL     1       6.776   2.973  22.448  0.00  0.00    -0.025 A 
ATOM     33  C   UNL     1       7.446   4.198  22.337  0.00  0.00    +0.008 A 
ATOM     34  C   UNL     1       6.750   5.404  22.473  0.00  0.00    +0.001 A 
ATOM     35  C   UNL     1       5.382   5.398  22.733  0.00  0.00    +0.000 A 
ATOM     36  C   UNL     1       4.708   4.188  22.872  0.00  0.00    +0.001 A 
ATOM     37  C   UNL     1       5.403   2.984  22.737  0.00  0.00    +0.008 A 
ENDBRANCH  31  32
ENDBRANCH  29  30
ENDBRANCH  28  29
ENDBRANCH  26  28
ENDBRANCH   3  26
TORSDOF 12
ENDMDL
MODEL 3
REMARK VINA RESULT:      -6.4      2.465      6.780
REMARK  Name = 
REMARK  15 active torsions:
REMARK  status: ('A' for Active; 'I' for Inactive)
REMARK    1  A    between atoms: C_1  and  O_2
REMARK    2  A    between atoms: O_2  and  C_3
REMARK    3  A    between atoms: C_3  and  C_4
REMARK    4  A    between atoms: C_4  and  O_5
REMARK    5  A    between atoms: O_5  and  C_6
REMARK    6  A    between atoms: C_6  and  C_8
REMARK    7  A    between atoms: C_9  and  C_10
REMARK    8  A    between atoms: C_12  and  C_13
REMARK    9  A    between atoms: C_14  and  C_25
REMARK   10  A    between atoms: C_15  and  C_16
REMARK   11  A    between atoms: C_20  and  N_22
REMARK   12  A    between atoms: C_25  and  O_27
REMARK   13  A    between atoms: O_27  and  C_28
REMARK   14  A    between atoms: C_28  and  C_29
REMARK   15  A    between atoms: C_30  and  C_31
REMARK                            x       y       z     vdW  Elec       q    Type
REMARK                         _______ _______ _______ _____ _____    ______ ____
ROOT
ATOM      1  C   UNL     1       6.306  -3.928  27.005  0.00  0.00    +0.065 C 
ATOM      2  C   UNL     1       6.350  -2.398  26.745  0.00  0.00    +0.096 C 
ATOM      3  C   UNL     1       5.040  -1.681  27.142  0.00  0.00    +0.065 C 
ATOM      4  C   UNL     1       4.057  -2.355  27.793  0.00  0.00    +0.016 C 
ATOM      5  C   UNL     1       2.765  -1.756  28.300  0.00  0.00    +0.061 C 
ATOM      6  N   UNL     1       4.207  -3.697  28.067  0.00  0.00    -0.321 N 
ATOM      7  H   UNL     1       3.468  -4.151  28.599  0.00  0.00    +0.152 HD
ATOM      8  C   UNL     1       5.264  -4.489  27.663  0.00  0.00    +0.016 C 
ATOM      9  C   UNL     1       5.099  -5.937  28.070  0.00  0.00    +0.061 C 
ENDROOT
BRANCH   2  10
ATOM     10  C   UNL     1       6.794  -2.097  25.303  0.00  0.00    -0.029 A 
ATOM     11  C   UNL     1       8.137  -1.765  25.015  0.00  0.00    +0.088 A 
ATOM     12  C   UNL     1       8.566  -1.642  23.680  0.00  0.00    +0.273 A 
ATOM     13  C   UNL     1       7.664  -1.850  22.629  0.00  0.00    +0.084 A 
ATOM     14  C   UNL     1       6.326  -2.119  22.916  0.00  0.00    +0.007 A 
ATOM     15  C   UNL     1       5.890  -2.229  24.239  0.00  0.00    +0.005 A 
BRANCH  12  16
ATOM     16  N   UNL     1       9.961  -1.311  23.372  0.00  0.00    +0.080 N 
ATOM     17  O   UNL     1      10.609  -0.666  24.210  0.00  0.00    +0.041 OA
ATOM     18  O   UNL     1      10.427  -1.702  22.284  0.00  0.00    -0.576 OA
ENDBRANCH  12  16
ENDBRANCH   2  10
BRANCH   1  19
ATOM     19  C   UNL     1       7.467  -4.762  26.582  0.00  0.00    +0.338 C 
ATOM     20  O   UNL     1       8.561  -4.804  27.118  0.00  0.00    -0.245 OA
BRANCH  19  21
ATOM     21  O   UNL     1       7.161  -5.379  25.413  0.00  0.00    -0.459 OA
BRANCH  21  22
ATOM     22  C   UNL     1       8.155  -5.220  24.399  0.00  0.00    +0.260 C 
BRANCH  22  23
ATOM     23  C   UNL     1       7.744  -5.693  23.012  0.00  0.00    +0.200 C 
BRANCH  23  25
ATOM     24  C   UNL     1       5.779  -5.602  21.679  0.00  0.00    +0.194 C 
ATOM     25  O   UNL     1       6.312  -5.683  22.990  0.00  0.00    -0.380 OA
ENDBRANCH  23  25
ENDBRANCH  22  23
ENDBRANCH  21  22
ENDBRANCH  19  21
ENDBRANCH   1  19
BRANCH   3  26
ATOM     26  C   UNL     1       4.951  -0.222  26.859  0.00  0.00    +0.338 C 
ATOM     27  O   UNL     1       4.197   0.255  26.020  0.00  0.00    -0.245 OA
BRANCH  26  28
ATOM     28  O   UNL     1       5.784   0.469  27.665  0.00  0.00    -0.457 OA
BRANCH  28  29
ATOM     29  C   UNL     1       6.117   1.818  27.331  0.00  0.00    +0.260 C 
BRANCH  29  30
ATOM     30  C   UNL     1       7.214   1.840  26.298  0.00  0.00    +0.014 C 
ATOM     31  C   UNL     1       7.112   2.351  25.058  0.00  0.00    +0.007 C 
BRANCH  31  32
ATOM     32  C   UNL     1       8.136   2.252  24.009  0.00  0.00    -0.025 A 
ATOM     33  C   UNL     1       9.475   2.620  24.197  0.00  0.00    +0.008 A 
ATOM     34  C   UNL     1      10.404   2.475  23.162  0.00  0.00    +0.001 A 
ATOM     35  C   UNL     1      10.003   1.974  21.925  0.00  0.00    +0.000 A 
ATOM     36  C   UNL     1       8.670   1.630  21.716  0.00  0.00    +0.001 A 
ATOM     37  C   UNL     1       7.743   1.775  22.750  0.00  0.00    +0.008 A 
ENDBRANCH  31  32
ENDBRANCH  29  30
ENDBRANCH  28  29
ENDBRANCH  26  28
ENDBRANCH   3  26
TORSDOF 12
ENDMDL
MODEL 4
REMARK VINA RESULT:      -6.3      2.636      6.977
REMARK  Name = 
REMARK  15 active torsions:
REMARK  status: ('A' for Active; 'I' for Inactive)
REMARK    1  A    between atoms: C_1  and  O_2
REMARK    2  A    between atoms: O_2  and  C_3
REMARK    3  A    between atoms: C_3  and  C_4
REMARK    4  A    between atoms: C_4  and  O_5
REMARK    5  A    between atoms: O_5  and  C_6
REMARK    6  A    between atoms: C_6  and  C_8
REMARK    7  A    between atoms: C_9  and  C_10
REMARK    8  A    between atoms: C_12  and  C_13
REMARK    9  A    between atoms: C_14  and  C_25
REMARK   10  A    between atoms: C_15  and  C_16
REMARK   11  A    between atoms: C_20  and  N_22
REMARK   12  A    between atoms: C_25  and  O_27
REMARK   13  A    between atoms: O_27  and  C_28
REMARK   14  A    between atoms: C_28  and  C_29
REMARK   15  A    between atoms: C_30  and  C_31
REMARK                            x       y       z     vdW  Elec       q    Type
REMARK                         _______ _______ _______ _____ _____    ______ ____
ROOT
ATOM      1  C   UNL     1       3.264  -2.774  25.979  0.00  0.00    +0.065 C 
ATOM      2  C   UNL     1       4.299  -3.486  25.067  0.00  0.00    +0.096 C 
ATOM      3  C   UNL     1       3.661  -4.555  24.151  0.00  0.00    +0.065 C 
ATOM      4  C   UNL     1       2.311  -4.691  24.090  0.00  0.00    +0.016 C 
ATOM      5  C   UNL     1       1.561  -5.642  23.185  0.00  0.00    +0.061 C 
ATOM      6  N   UNL     1       1.503  -3.899  24.876  0.00  0.00    -0.321 N 
ATOM      7  H   UNL     1       0.496  -4.000  24.763  0.00  0.00    +0.152 HD
ATOM      8  C   UNL     1       1.937  -2.996  25.825  0.00  0.00    +0.016 C 
ATOM      9  C   UNL     1       0.797  -2.330  26.566  0.00  0.00    +0.061 C 
ENDROOT
BRANCH   2  10
ATOM     10  C   UNL     1       5.483  -4.020  25.890  0.00  0.00    -0.029 A 
ATOM     11  C   UNL     1       5.269  -4.879  26.991  0.00  0.00    +0.088 A 
ATOM     12  C   UNL     1       6.362  -5.482  27.642  0.00  0.00    +0.273 A 
ATOM     13  C   UNL     1       7.668  -5.237  27.200  0.00  0.00    +0.084 A 
ATOM     14  C   UNL     1       7.881  -4.343  26.152  0.00  0.00    +0.007 A 
ATOM     15  C   UNL     1       6.802  -3.729  25.510  0.00  0.00    +0.005 A 
BRANCH  12  16
ATOM     16  N   UNL     1       6.148  -6.386  28.778  0.00  0.00    +0.080 N 
ATOM     17  O   UNL     1       5.693  -7.517  28.549  0.00  0.00    +0.041 OA
ATOM     18  O   UNL     1       6.442  -5.972  29.915  0.00  0.00    -0.576 OA
ENDBRANCH  12  16
ENDBRANCH   2  10
BRANCH   1  19
ATOM     19  C   UNL     1       3.752  -1.784  26.982  0.00  0.00    +0.338 C 
ATOM     20  O   UNL     1       3.847  -1.959  28.185  0.00  0.00    -0.245 OA
BRANCH  19  21
ATOM     21  O   UNL     1       3.954  -0.595  26.361  0.00  0.00    -0.459 OA
BRANCH  21  22
ATOM     22  C   UNL     1       5.329  -0.215  26.274  0.00  0.00    +0.260 C 
BRANCH  22  23
ATOM     23  C   UNL     1       5.900  -0.179  24.864  0.00  0.00    +0.200 C 
BRANCH  23  25
ATOM     24  C   UNL     1       6.661   1.536  23.406  0.00  0.00    +0.194 C 
ATOM     25  O   UNL     1       6.596   1.066  24.742  0.00  0.00    -0.380 OA
ENDBRANCH  23  25
ENDBRANCH  22  23
ENDBRANCH  21  22
ENDBRANCH  19  21
ENDBRANCH   1  19
BRANCH   3  26
ATOM     26  C   UNL     1       4.580  -5.351  23.293  0.00  0.00    +0.338 C 
ATOM     27  O   UNL     1       4.880  -6.516  23.528  0.00  0.00    -0.245 OA
BRANCH  26  28
ATOM     28  O   UNL     1       4.993  -4.621  22.236  0.00  0.00    -0.457 OA
BRANCH  28  29
ATOM     29  C   UNL     1       6.355  -4.718  21.812  0.00  0.00    +0.260 C 
BRANCH  29  30
ATOM     30  C   UNL     1       7.052  -3.396  22.006  0.00  0.00    +0.014 C 
ATOM     31  C   UNL     1       8.318  -3.234  22.429  0.00  0.00    +0.007 C 
BRANCH  31  32
ATOM     32  C   UNL     1       8.952  -1.946  22.744  0.00  0.00    -0.025 A 
ATOM     33  C   UNL     1       9.315  -1.558  24.040  0.00  0.00    +0.008 A 
ATOM     34  C   UNL     1       9.940  -0.327  24.265  0.00  0.00    +0.001 A 
ATOM     35  C   UNL     1      10.196   0.534  23.201  0.00  0.00    +0.000 A 
ATOM     36  C   UNL     1       9.815   0.173  21.911  0.00  0.00    +0.001 A 
ATOM     37  C   UNL     1       9.192  -1.056  21.687  0.00  0.00    +0.008 A 
ENDBRANCH  31  32
ENDBRANCH  29  30
ENDBRANCH  28  29
ENDBRANCH  26  28
ENDBRANCH   3  26
TORSDOF 12
ENDMDL
MODEL 5
REMARK VINA RESULT:      -6.2      1.846      2.337
REMARK  Name = 
REMARK  15 active torsions:
REMARK  status: ('A' for Active; 'I' for Inactive)
REMARK    1  A    between atoms: C_1  and  O_2
REMARK    2  A    between atoms: O_2  and  C_3
REMARK    3  A    between atoms: C_3  and  C_4
REMARK    4  A    between atoms: C_4  and  O_5
REMARK    5  A    between atoms: O_5  and  C_6
REMARK    6  A    between atoms: C_6  and  C_8
REMARK    7  A    between atoms: C_9  and  C_10
REMARK    8  A    between atoms: C_12  and  C_13
REMARK    9  A    between atoms: C_14  and  C_25
REMARK   10  A    between atoms: C_15  and  C_16
REMARK   11  A    between atoms: C_20  and  N_22
REMARK   12  A    between atoms: C_25  and  O_27
REMARK   13  A    between atoms: O_27  and  C_28
REMARK   14  A    between atoms: C_28  and  C_29
REMARK   15  A    between atoms: C_30  and  C_31
REMARK                            x       y       z     vdW  Elec       q    Type
REMARK                         _______ _______ _______ _____ _____    ______ ____
ROOT
ATOM      1  C   UNL     1       8.490  -0.658  24.262  0.00  0.00    +0.065 C 
ATOM      2  C   UNL     1       6.980  -0.881  24.545  0.00  0.00    +0.096 C 
ATOM      3  C   UNL     1       6.541  -0.350  25.928  0.00  0.00    +0.065 C 
ATOM      4  C   UNL     1       7.402   0.368  26.694  0.00  0.00    +0.016 C 
ATOM      5  C   UNL     1       7.076   1.004  28.026  0.00  0.00    +0.061 C 
ATOM      6  N   UNL     1       8.689   0.594  26.256  0.00  0.00    -0.321 N 
ATOM      7  H   UNL     1       9.285   1.178  26.838  0.00  0.00    +0.152 HD
ATOM      8  C   UNL     1       9.252   0.076  25.106  0.00  0.00    +0.016 C 
ATOM      9  C   UNL     1      10.707   0.460  24.943  0.00  0.00    +0.061 C 
ENDROOT
BRANCH   2  10
ATOM     10  C   UNL     1       6.586  -2.349  24.305  0.00  0.00    -0.029 A 
ATOM     11  C   UNL     1       6.947  -3.354  25.229  0.00  0.00    +0.088 A 
ATOM     12  C   UNL     1       6.453  -4.664  25.080  0.00  0.00    +0.273 A 
ATOM     13  C   UNL     1       5.600  -4.978  24.015  0.00  0.00    +0.084 A 
ATOM     14  C   UNL     1       5.294  -4.000  23.070  0.00  0.00    +0.007 A 
ATOM     15  C   UNL     1       5.791  -2.701  23.204  0.00  0.00    +0.005 A 
BRANCH  12  16
ATOM     16  N   UNL     1       6.811  -5.711  26.044  0.00  0.00    +0.080 N 
ATOM     17  O   UNL     1       5.902  -6.417  26.507  0.00  0.00    +0.041 OA
ATOM     18  O   UNL     1       8.014  -5.843  26.342  0.00  0.00    -0.576 OA
ENDBRANCH  12  16
ENDBRANCH   2  10
BRANCH   1  19
ATOM     19  C   UNL     1       9.073  -1.205  23.002  0.00  0.00    +0.338 C 
ATOM     20  O   UNL     1       9.987  -2.007  22.918  0.00  0.00    -0.245 OA
BRANCH  19  21
ATOM     21  O   UNL     1       8.513  -0.564  21.946  0.00  0.00    -0.459 OA
BRANCH  21  22
ATOM     22  C   UNL     1       9.284   0.539  21.465  0.00  0.00    +0.260 C 
BRANCH  22  23
ATOM     23  C   UNL     1       8.732   1.913  21.813  0.00  0.00    +0.200 C 
BRANCH  23  25
ATOM     24  C   UNL     1       6.643   2.988  22.173  0.00  0.00    +0.194 C 
ATOM     25  O   UNL     1       7.310   1.768  21.897  0.00  0.00    -0.380 OA
ENDBRANCH  23  25
ENDBRANCH  22  23
ENDBRANCH  21  22
ENDBRANCH  19  21
ENDBRANCH   1  19
BRANCH   3  26
ATOM     26  C   UNL     1       5.127  -0.587  26.329  0.00  0.00    +0.338 C 
ATOM     27  O   UNL     1       4.182   0.033  25.857  0.00  0.00    -0.245 OA
BRANCH  26  28
ATOM     28  O   UNL     1       5.052  -1.578  27.242  0.00  0.00    -0.457 OA
BRANCH  28  29
ATOM     29  C   UNL     1       3.775  -2.132  27.566  0.00  0.00    +0.260 C 
BRANCH  29  30
ATOM     30  C   UNL     1       3.525  -3.371  26.745  0.00  0.00    +0.014 C 
ATOM     31  C   UNL     1       2.609  -3.492  25.769  0.00  0.00    +0.007 C 
BRANCH  31  32
ATOM     32  C   UNL     1       2.277  -4.737  25.062  0.00  0.00    -0.025 A 
ATOM     33  C   UNL     1       1.759  -4.775  23.761  0.00  0.00    +0.008 A 
ATOM     34  C   UNL     1       1.490  -5.998  23.138  0.00  0.00    +0.001 A 
ATOM     35  C   UNL     1       1.723  -7.195  23.813  0.00  0.00    +0.000 A 
ATOM     36  C   UNL     1       2.212  -7.171  25.116  0.00  0.00    +0.001 A 
ATOM     37  C   UNL     1       2.481  -5.950  25.738  0.00  0.00    +0.008 A 
ENDBRANCH  31  32
ENDBRANCH  29  30
ENDBRANCH  28  29
ENDBRANCH  26  28
ENDBRANCH   3  26
TORSDOF 12
ENDMDL
MODEL 6
REMARK VINA RESULT:      -6.2      2.188      7.941
REMARK  Name = 
REMARK  15 active torsions:
REMARK  status: ('A' for Active; 'I' for Inactive)
REMARK    1  A    between atoms: C_1  and  O_2
REMARK    2  A    between atoms: O_2  and  C_3
REMARK    3  A    between atoms: C_3  and  C_4
REMARK    4  A    between atoms: C_4  and  O_5
REMARK    5  A    between atoms: O_5  and  C_6
REMARK    6  A    between atoms: C_6  and  C_8
REMARK    7  A    between atoms: C_9  and  C_10
REMARK    8  A    between atoms: C_12  and  C_13
REMARK    9  A    between atoms: C_14  and  C_25
REMARK   10  A    between atoms: C_15  and  C_16
REMARK   11  A    between atoms: C_20  and  N_22
REMARK   12  A    between atoms: C_25  and  O_27
REMARK   13  A    between atoms: O_27  and  C_28
REMARK   14  A    between atoms: C_28  and  C_29
REMARK   15  A    between atoms: C_30  and  C_31
REMARK                            x       y       z     vdW  Elec       q    Type
REMARK                         _______ _______ _______ _____ _____    ______ ____
ROOT
ATOM      1  C   UNL     1       5.678  -3.476  25.648  0.00  0.00    +0.065 C 
ATOM      2  C   UNL     1       6.612  -2.601  24.769  0.00  0.00    +0.096 C 
ATOM      3  C   UNL     1       8.078  -3.090  24.774  0.00  0.00    +0.065 C 
ATOM      4  C   UNL     1       8.409  -4.262  25.375  0.00  0.00    +0.016 C 
ATOM      5  C   UNL     1       9.786  -4.886  25.388  0.00  0.00    +0.061 C 
ATOM      6  N   UNL     1       7.444  -5.002  26.021  0.00  0.00    -0.321 N 
ATOM      7  H   UNL     1       7.726  -5.897  26.415  0.00  0.00    +0.152 HD
ATOM      8  C   UNL     1       6.127  -4.627  26.202  0.00  0.00    +0.016 C 
ATOM      9  C   UNL     1       5.338  -5.634  27.010  0.00  0.00    +0.061 C 
ENDROOT
BRANCH   2  10
ATOM     10  C   UNL     1       6.467  -1.112  25.127  0.00  0.00    -0.029 A 
ATOM     11  C   UNL     1       6.850  -0.634  26.401  0.00  0.00    +0.088 A 
ATOM     12  C   UNL     1       6.858   0.748  26.666  0.00  0.00    +0.273 A 
ATOM     13  C   UNL     1       6.488   1.659  25.668  0.00  0.00    +0.084 A 
ATOM     14  C   UNL     1       6.053   1.183  24.432  0.00  0.00    +0.007 A 
ATOM     15  C   UNL     1       6.029  -0.188  24.166  0.00  0.00    +0.005 A 
BRANCH  12  16
ATOM     16  N   UNL     1       7.267   1.254  27.981  0.00  0.00    +0.080 N 
ATOM     17  O   UNL     1       7.124   2.463  28.214  0.00  0.00    +0.041 OA
ATOM     18  O   UNL     1       7.731   0.438  28.801  0.00  0.00    -0.576 OA
ENDBRANCH  12  16
ENDBRANCH   2  10
BRANCH   1  19
ATOM     19  C   UNL     1       4.253  -3.066  25.812  0.00  0.00    +0.338 C 
ATOM     20  O   UNL     1       3.707  -2.751  26.855  0.00  0.00    -0.245 OA
BRANCH  19  21
ATOM     21  O   UNL     1       3.613  -3.227  24.627  0.00  0.00    -0.459 OA
BRANCH  21  22
ATOM     22  C   UNL     1       2.836  -4.425  24.549  0.00  0.00    +0.260 C 
BRANCH  22  23
ATOM     23  C   UNL     1       3.061  -5.259  23.296  0.00  0.00    +0.200 C 
BRANCH  23  25
ATOM     24  C   UNL     1       5.317  -5.600  22.632  0.00  0.00    +0.194 C 
ATOM     25  O   UNL     1       4.213  -4.710  22.647  0.00  0.00    -0.380 OA
ENDBRANCH  23  25
ENDBRANCH  22  23
ENDBRANCH  21  22
ENDBRANCH  19  21
ENDBRANCH   1  19
BRANCH   3  26
ATOM     26  C   UNL     1       9.070  -2.271  24.025  0.00  0.00    +0.338 C 
ATOM     27  O   UNL     1       9.954  -1.621  24.570  0.00  0.00    -0.245 OA
BRANCH  26  28
ATOM     28  O   UNL     1       8.865  -2.378  22.695  0.00  0.00    -0.457 OA
BRANCH  28  29
ATOM     29  C   UNL     1       9.506  -1.452  21.815  0.00  0.00    +0.260 C 
BRANCH  29  30
ATOM     30  C   UNL     1       8.882  -0.088  21.955  0.00  0.00    +0.014 C 
ATOM     31  C   UNL     1       9.535   1.043  22.277  0.00  0.00    +0.007 C 
BRANCH  31  32
ATOM     32  C   UNL     1       8.905   2.344  22.543  0.00  0.00    -0.025 A 
ATOM     33  C   UNL     1       7.777   2.812  21.858  0.00  0.00    +0.008 A 
ATOM     34  C   UNL     1       7.213   4.050  22.181  0.00  0.00    +0.001 A 
ATOM     35  C   UNL     1       7.778   4.839  23.181  0.00  0.00    +0.000 A 
ATOM     36  C   UNL     1       8.915   4.398  23.852  0.00  0.00    +0.001 A 
ATOM     37  C   UNL     1       9.478   3.161  23.529  0.00  0.00    +0.008 A 
ENDBRANCH  31  32
ENDBRANCH  29  30
ENDBRANCH  28  29
ENDBRANCH  26  28
ENDBRANCH   3  26
TORSDOF 12
ENDMDL
MODEL 7
REMARK VINA RESULT:      -6.2      2.416      7.738
REMARK  Name = 
REMARK  15 active torsions:
REMARK  status: ('A' for Active; 'I' for Inactive)
REMARK    1  A    between atoms: C_1  and  O_2
REMARK    2  A    between atoms: O_2  and  C_3
REMARK    3  A    between atoms: C_3  and  C_4
REMARK    4  A    between atoms: C_4  and  O_5
REMARK    5  A    between atoms: O_5  and  C_6
REMARK    6  A    between atoms: C_6  and  C_8
REMARK    7  A    between atoms: C_9  and  C_10
REMARK    8  A    between atoms: C_12  and  C_13
REMARK    9  A    between atoms: C_14  and  C_25
REMARK   10  A    between atoms: C_15  and  C_16
REMARK   11  A    between atoms: C_20  and  N_22
REMARK   12  A    between atoms: C_25  and  O_27
REMARK   13  A    between atoms: O_27  and  C_28
REMARK   14  A    between atoms: C_28  and  C_29
REMARK   15  A    between atoms: C_30  and  C_31
REMARK                            x       y       z     vdW  Elec       q    Type
REMARK                         _______ _______ _______ _____ _____    ______ ____
ROOT
ATOM      1  C   UNL     1       6.417  -0.406  25.098  0.00  0.00    +0.065 C 
ATOM      2  C   UNL     1       7.643  -0.954  24.321  0.00  0.00    +0.096 C 
ATOM      3  C   UNL     1       7.921  -0.184  23.010  0.00  0.00    +0.065 C 
ATOM      4  C   UNL     1       7.224   0.944  22.715  0.00  0.00    +0.016 C 
ATOM      5  C   UNL     1       7.447   1.827  21.509  0.00  0.00    +0.061 C 
ATOM      6  N   UNL     1       6.235   1.385  23.566  0.00  0.00    -0.321 N 
ATOM      7  H   UNL     1       5.771   2.260  23.331  0.00  0.00    +0.152 HD
ATOM      8  C   UNL     1       5.798   0.732  24.701  0.00  0.00    +0.016 C 
ATOM      9  C   UNL     1       4.651   1.446  25.383  0.00  0.00    +0.061 C 
ENDROOT
BRANCH   2  10
ATOM     10  C   UNL     1       7.532  -2.475  24.119  0.00  0.00    -0.029 A 
ATOM     11  C   UNL     1       6.540  -3.021  23.274  0.00  0.00    +0.088 A 
ATOM     12  C   UNL     1       6.542  -4.397  22.976  0.00  0.00    +0.273 A 
ATOM     13  C   UNL     1       7.528  -5.232  23.515  0.00  0.00    +0.084 A 
ATOM     14  C   UNL     1       8.470  -4.703  24.396  0.00  0.00    +0.007 A 
ATOM     15  C   UNL     1       8.466  -3.341  24.707  0.00  0.00    +0.005 A 
BRANCH  12  16
ATOM     16  N   UNL     1       5.524  -4.970  22.088  0.00  0.00    +0.080 N 
ATOM     17  O   UNL     1       4.348  -4.990  22.482  0.00  0.00    +0.041 OA
ATOM     18  O   UNL     1       5.894  -5.401  20.979  0.00  0.00    -0.576 OA
ENDBRANCH  12  16
ENDBRANCH   2  10
BRANCH   1  19
ATOM     19  C   UNL     1       5.975  -1.112  26.335  0.00  0.00    +0.338 C 
ATOM     20  O   UNL     1       6.532  -1.087  27.420  0.00  0.00    -0.245 OA
BRANCH  19  21
ATOM     21  O   UNL     1       4.918  -1.906  26.032  0.00  0.00    -0.459 OA
BRANCH  21  22
ATOM     22  C   UNL     1       4.834  -3.086  26.834  0.00  0.00    +0.260 C 
BRANCH  22  23
ATOM     23  C   UNL     1       4.569  -4.372  26.065  0.00  0.00    +0.200 C 
BRANCH  23  25
ATOM     24  C   UNL     1       6.418  -4.804  27.493  0.00  0.00    +0.194 C 
ATOM     25  O   UNL     1       5.470  -5.351  26.593  0.00  0.00    -0.380 OA
ENDBRANCH  23  25
ENDBRANCH  22  23
ENDBRANCH  21  22
ENDBRANCH  19  21
ENDBRANCH   1  19
BRANCH   3  26
ATOM     26  C   UNL     1       9.029  -0.682  22.151  0.00  0.00    +0.338 C 
ATOM     27  O   UNL     1       8.896  -1.595  21.345  0.00  0.00    -0.245 OA
BRANCH  26  28
ATOM     28  O   UNL     1      10.156   0.026  22.372  0.00  0.00    -0.457 OA
BRANCH  28  29
ATOM     29  C   UNL     1      10.680   0.105  23.700  0.00  0.00    +0.260 C 
BRANCH  29  30
ATOM     30  C   UNL     1      10.813   1.546  24.119  0.00  0.00    +0.014 C 
ATOM     31  C   UNL     1      10.477   2.613  23.373  0.00  0.00    +0.007 C 
BRANCH  31  32
ATOM     32  C   UNL     1      10.731   4.016  23.730  0.00  0.00    -0.025 A 
ATOM     33  C   UNL     1       9.757   4.866  24.269  0.00  0.00    +0.008 A 
ATOM     34  C   UNL     1      10.075   6.185  24.611  0.00  0.00    +0.001 A 
ATOM     35  C   UNL     1      11.364   6.671  24.406  0.00  0.00    +0.000 A 
ATOM     36  C   UNL     1      12.335   5.845  23.846  0.00  0.00    +0.001 A 
ATOM     37  C   UNL     1      12.018   4.528  23.505  0.00  0.00    +0.008 A 
ENDBRANCH  31  32
ENDBRANCH  29  30
ENDBRANCH  28  29
ENDBRANCH  26  28
ENDBRANCH   3  26
TORSDOF 12
ENDMDL
MODEL 8
REMARK VINA RESULT:      -6.0      2.543      7.683
REMARK  Name = 
REMARK  15 active torsions:
REMARK  status: ('A' for Active; 'I' for Inactive)
REMARK    1  A    between atoms: C_1  and  O_2
REMARK    2  A    between atoms: O_2  and  C_3
REMARK    3  A    between atoms: C_3  and  C_4
REMARK    4  A    between atoms: C_4  and  O_5
REMARK    5  A    between atoms: O_5  and  C_6
REMARK    6  A    between atoms: C_6  and  C_8
REMARK    7  A    between atoms: C_9  and  C_10
REMARK    8  A    between atoms: C_12  and  C_13
REMARK    9  A    between atoms: C_14  and  C_25
REMARK   10  A    between atoms: C_15  and  C_16
REMARK   11  A    between atoms: C_20  and  N_22
REMARK   12  A    between atoms: C_25  and  O_27
REMARK   13  A    between atoms: O_27  and  C_28
REMARK   14  A    between atoms: C_28  and  C_29
REMARK   15  A    between atoms: C_30  and  C_31
REMARK                            x       y       z     vdW  Elec       q    Type
REMARK                         _______ _______ _______ _____ _____    ______ ____
ROOT
ATOM      1  C   UNL     1       6.616  -2.641  24.172  0.00  0.00    +0.065 C 
ATOM      2  C   UNL     1       6.885  -1.452  25.133  0.00  0.00    +0.096 C 
ATOM      3  C   UNL     1       5.662  -1.097  26.009  0.00  0.00    +0.065 C 
ATOM      4  C   UNL     1       4.557  -1.887  26.000  0.00  0.00    +0.016 C 
ATOM      5  C   UNL     1       3.329  -1.694  26.861  0.00  0.00    +0.061 C 
ATOM      6  N   UNL     1       4.506  -2.990  25.177  0.00  0.00    -0.321 N 
ATOM      7  H   UNL     1       3.680  -3.582  25.238  0.00  0.00    +0.152 HD
ATOM      8  C   UNL     1       5.468  -3.354  24.256  0.00  0.00    +0.016 C 
ATOM      9  C   UNL     1       5.083  -4.583  23.461  0.00  0.00    +0.061 C 
ENDROOT
BRANCH   2  10
ATOM     10  C   UNL     1       7.455  -0.245  24.369  0.00  0.00    -0.029 A 
ATOM     11  C   UNL     1       8.777   0.198  24.600  0.00  0.00    +0.088 A 
ATOM     12  C   UNL     1       9.340   1.202  23.790  0.00  0.00    +0.273 A 
ATOM     13  C   UNL     1       8.593   1.767  22.749  0.00  0.00    +0.084 A 
ATOM     14  C   UNL     1       7.270   1.372  22.560  0.00  0.00    +0.007 A 
ATOM     15  C   UNL     1       6.700   0.385  23.368  0.00  0.00    +0.005 A 
BRANCH  12  16
ATOM     16  N   UNL     1      10.716   1.658  24.015  0.00  0.00    +0.080 N 
ATOM     17  O   UNL     1      11.499   0.894  24.599  0.00  0.00    +0.041 OA
ATOM     18  O   UNL     1      11.030   2.790  23.599  0.00  0.00    -0.576 OA
ENDBRANCH  12  16
ENDBRANCH   2  10
BRANCH   1  19
ATOM     19  C   UNL     1       7.678  -3.033  23.200  0.00  0.00    +0.338 C 
ATOM     20  O   UNL     1       7.557  -3.111  21.989  0.00  0.00    -0.245 OA
BRANCH  19  21
ATOM     21  O   UNL     1       8.779  -3.424  23.889  0.00  0.00    -0.459 OA
BRANCH  21  22
ATOM     22  C   UNL     1       8.643  -4.700  24.518  0.00  0.00    +0.260 C 
BRANCH  22  23
ATOM     23  C   UNL     1       9.563  -4.935  25.707  0.00  0.00    +0.200 C 
BRANCH  23  25
ATOM     24  C   UNL     1       7.531  -5.079  26.930  0.00  0.00    +0.194 C 
ATOM     25  O   UNL     1       8.834  -4.525  26.869  0.00  0.00    -0.380 OA
ENDBRANCH  23  25
ENDBRANCH  22  23
ENDBRANCH  21  22
ENDBRANCH  19  21
ENDBRANCH   1  19
BRANCH   3  26
ATOM     26  C   UNL     1       5.791   0.081  26.909  0.00  0.00    +0.338 C 
ATOM     27  O   UNL     1       6.536   0.107  27.881  0.00  0.00    -0.245 OA
BRANCH  26  28
ATOM     28  O   UNL     1       5.004   1.092  26.483  0.00  0.00    -0.457 OA
BRANCH  28  29
ATOM     29  C   UNL     1       5.214   2.406  27.008  0.00  0.00    +0.260 C 
BRANCH  29  30
ATOM     30  C   UNL     1       5.825   3.292  25.954  0.00  0.00    +0.014 C 
ATOM     31  C   UNL     1       7.134   3.571  25.828  0.00  0.00    +0.007 C 
BRANCH  31  32
ATOM     32  C   UNL     1       7.713   4.538  24.885  0.00  0.00    -0.025 A 
ATOM     33  C   UNL     1       8.950   5.164  25.080  0.00  0.00    +0.008 A 
ATOM     34  C   UNL     1       9.454   6.056  24.126  0.00  0.00    +0.001 A 
ATOM     35  C   UNL     1       8.720   6.341  22.977  0.00  0.00    +0.000 A 
ATOM     36  C   UNL     1       7.476   5.746  22.783  0.00  0.00    +0.001 A 
ATOM     37  C   UNL     1       6.974   4.856  23.735  0.00  0.00    +0.008 A 
ENDBRANCH  31  32
ENDBRANCH  29  30
ENDBRANCH  28  29
ENDBRANCH  26  28
ENDBRANCH   3  26
TORSDOF 12
ENDMDL
MODEL 9
REMARK VINA RESULT:      -6.0      2.269      4.896
REMARK  Name = 
REMARK  15 active torsions:
REMARK  status: ('A' for Active; 'I' for Inactive)
REMARK    1  A    between atoms: C_1  and  O_2
REMARK    2  A    between atoms: O_2  and  C_3
REMARK    3  A    between atoms: C_3  and  C_4
REMARK    4  A    between atoms: C_4  and  O_5
REMARK    5  A    between atoms: O_5  and  C_6
REMARK    6  A    between atoms: C_6  and  C_8
REMARK    7  A    between atoms: C_9  and  C_10
REMARK    8  A    between atoms: C_12  and  C_13
REMARK    9  A    between atoms: C_14  and  C_25
REMARK   10  A    between atoms: C_15  and  C_16
REMARK   11  A    between atoms: C_20  and  N_22
REMARK   12  A    between atoms: C_25  and  O_27
REMARK   13  A    between atoms: O_27  and  C_28
REMARK   14  A    between atoms: C_28  and  C_29
REMARK   15  A    between atoms: C_30  and  C_31
REMARK                            x       y       z     vdW  Elec       q    Type
REMARK                         _______ _______ _______ _____ _____    ______ ____
ROOT
ATOM      1  C   UNL     1       7.859   0.488  25.822  0.00  0.00    +0.065 C 
ATOM      2  C   UNL     1       8.250  -0.942  25.358  0.00  0.00    +0.096 C 
ATOM      3  C   UNL     1       8.753  -0.985  23.898  0.00  0.00    +0.065 C 
ATOM      4  C   UNL     1       8.958   0.165  23.206  0.00  0.00    +0.016 C 
ATOM      5  C   UNL     1       9.515   0.263  21.804  0.00  0.00    +0.061 C 
ATOM      6  N   UNL     1       8.679   1.380  23.793  0.00  0.00    -0.321 N 
ATOM      7  H   UNL     1       8.894   2.218  23.257  0.00  0.00    +0.152 HD
ATOM      8  C   UNL     1       8.111   1.563  25.038  0.00  0.00    +0.016 C 
ATOM      9  C   UNL     1       7.874   3.021  25.365  0.00  0.00    +0.061 C 
ENDROOT
BRANCH   2  10
ATOM     10  C   UNL     1       7.114  -1.941  25.640  0.00  0.00    -0.029 A 
ATOM     11  C   UNL     1       7.334  -3.073  26.456  0.00  0.00    +0.088 A 
ATOM     12  C   UNL     1       6.255  -3.895  26.832  0.00  0.00    +0.273 A 
ATOM     13  C   UNL     1       4.957  -3.595  26.400  0.00  0.00    +0.084 A 
ATOM     14  C   UNL     1       4.751  -2.513  25.547  0.00  0.00    +0.007 A 
ATOM     15  C   UNL     1       5.819  -1.700  25.159  0.00  0.00    +0.005 A 
BRANCH  12  16
ATOM     16  N   UNL     1       6.472  -5.066  27.690  0.00  0.00    +0.080 N 
ATOM     17  O   UNL     1       6.062  -5.018  28.860  0.00  0.00    +0.041 OA
ATOM     18  O   UNL     1       7.052  -6.052  27.196  0.00  0.00    -0.576 OA
ENDBRANCH  12  16
ENDBRANCH   2  10
BRANCH   1  19
ATOM     19  C   UNL     1       7.268   0.666  27.179  0.00  0.00    +0.338 C 
ATOM     20  O   UNL     1       7.794   0.376  28.241  0.00  0.00    -0.245 OA
BRANCH  19  21
ATOM     21  O   UNL     1       5.985   1.084  27.047  0.00  0.00    -0.459 OA
BRANCH  21  22
ATOM     22  C   UNL     1       5.227   1.012  28.256  0.00  0.00    +0.260 C 
BRANCH  22  23
ATOM     23  C   UNL     1       4.284  -0.178  28.357  0.00  0.00    +0.200 C 
BRANCH  23  25
ATOM     24  C   UNL     1       2.066  -0.676  27.665  0.00  0.00    +0.194 C 
ATOM     25  O   UNL     1       3.259   0.035  27.381  0.00  0.00    -0.380 OA
ENDBRANCH  23  25
ENDBRANCH  22  23
ENDBRANCH  21  22
ENDBRANCH  19  21
ENDBRANCH   1  19
BRANCH   3  26
ATOM     26  C   UNL     1       9.078  -2.323  23.331  0.00  0.00    +0.338 C 
ATOM     27  O   UNL     1      10.116  -2.924  23.580  0.00  0.00    -0.245 OA
BRANCH  26  28
ATOM     28  O   UNL     1       8.070  -2.766  22.551  0.00  0.00    -0.457 OA
BRANCH  28  29
ATOM     29  C   UNL     1       7.824  -4.171  22.460  0.00  0.00    +0.260 C 
BRANCH  29  30
ATOM     30  C   UNL     1       6.400  -4.473  22.847  0.00  0.00    +0.014 C 
ATOM     31  C   UNL     1       5.984  -5.565  23.513  0.00  0.00    +0.007 C 
BRANCH  31  32
ATOM     32  C   UNL     1       4.582  -5.922  23.772  0.00  0.00    -0.025 A 
ATOM     33  C   UNL     1       3.494  -5.186  23.288  0.00  0.00    +0.008 A 
ATOM     34  C   UNL     1       2.183  -5.598  23.551  0.00  0.00    +0.001 A 
ATOM     35  C   UNL     1       1.947  -6.742  24.311  0.00  0.00    +0.000 A 
ATOM     36  C   UNL     1       3.020  -7.469  24.820  0.00  0.00    +0.001 A 
ATOM     37  C   UNL     1       4.328  -7.057  24.557  0.00  0.00    +0.008 A 
ENDBRANCH  31  32
ENDBRANCH  29  30
ENDBRANCH  28  29
ENDBRANCH  26  28
ENDBRANCH   3  26
TORSDOF 12
ENDMDL
