MODEL 1
REMARK VINA RESULT:      -4.0      0.000      0.000
REMARK  Name = 
REMARK  7 active torsions:
REMARK  status: ('A' for Active; 'I' for Inactive)
REMARK    1  A    between atoms: C_1  and  C_2
REMARK    2  A    between atoms: C_2  and  C_3
REMARK    3  A    between atoms: C_3  and  N_5
REMARK    4  A    between atoms: C_3  and  C_6
REMARK    5  A    between atoms: C_6  and  C_7
REMARK    6  A    between atoms: C_7  and  C_8
REMARK    7  A    between atoms: C_8  and  O_9
REMARK                            x       y       z     vdW  Elec       q    Type
REMARK                         _______ _______ _______ _____ _____    ______ ____
ROOT
ATOM      1  C   UNL     1      10.077   2.744  23.123  0.00  0.00    +0.051 C 
ENDROOT
BRANCH   1   2
ATOM      2  N   UNL     1      10.054   2.209  21.760  0.00  0.00    -0.327 NA
ATOM      3  H   UNL     1       9.284   2.637  21.242  0.00  0.00    +0.118 HD
ATOM      4  H   UNL     1      10.897   2.486  21.260  0.00  0.00    +0.118 HD
ENDBRANCH   1   2
BRANCH   1   6
ATOM      5  C   UNL     1      10.957   0.747  24.530  0.00  0.00    +0.005 C 
ATOM      6  C   UNL     1       9.776   1.630  24.146  0.00  0.00    +0.015 C 
ENDBRANCH   1   6
BRANCH   1   7
ATOM      7  C   UNL     1      11.412   3.458  23.396  0.00  0.00    +0.029 C 
BRANCH   7   8
ATOM      8  C   UNL     1      11.262   4.981  23.423  0.00  0.00    +0.122 C 
BRANCH   8   9
ATOM      9  C   UNL     1      12.500   5.671  23.935  0.00  0.00    +0.305 C 
ATOM     10  O   UNL     1      12.482   6.625  24.695  0.00  0.00    -0.251 OA
BRANCH   9  11
ATOM     11  O   UNL     1      13.648   5.160  23.438  0.00  0.00    -0.481 OA
ATOM     12  H   UNL     1      13.572   4.230  23.148  0.00  0.00    +0.295 HD
ENDBRANCH   9  11
ENDBRANCH   8   9
ENDBRANCH   7   8
ENDBRANCH   1   7
TORSDOF 6
ENDMDL
MODEL 2
REMARK VINA RESULT:      -3.9      4.423      5.513
REMARK  Name = 
REMARK  7 active torsions:
REMARK  status: ('A' for Active; 'I' for Inactive)
REMARK    1  A    between atoms: C_1  and  C_2
REMARK    2  A    between atoms: C_2  and  C_3
REMARK    3  A    between atoms: C_3  and  N_5
REMARK    4  A    between atoms: C_3  and  C_6
REMARK    5  A    between atoms: C_6  and  C_7
REMARK    6  A    between atoms: C_7  and  C_8
REMARK    7  A    between atoms: C_8  and  O_9
REMARK                            x       y       z     vdW  Elec       q    Type
REMARK                         _______ _______ _______ _____ _____    ______ ____
ROOT
ATOM      1  C   UNL     1      10.197   2.028  22.983  0.00  0.00    +0.051 C 
ENDROOT
BRANCH   1   2
ATOM      2  N   UNL     1       9.905   1.779  21.569  0.00  0.00    -0.327 NA
ATOM      3  H   UNL     1       9.755   0.779  21.425  0.00  0.00    +0.118 HD
ATOM      4  H   UNL     1       9.025   2.221  21.310  0.00  0.00    +0.118 HD
ENDBRANCH   1   2
BRANCH   1   6
ATOM      5  C   UNL     1       7.914   3.234  22.715  0.00  0.00    +0.005 C 
ATOM      6  C   UNL     1       9.039   2.799  23.646  0.00  0.00    +0.015 C 
ENDBRANCH   1   6
BRANCH   1   7
ATOM      7  C   UNL     1      10.524   0.708  23.702  0.00  0.00    +0.029 C 
BRANCH   7   8
ATOM      8  C   UNL     1       9.456  -0.363  23.467  0.00  0.00    +0.122 C 
BRANCH   8   9
ATOM      9  C   UNL     1      10.022  -1.610  22.838  0.00  0.00    +0.305 C 
ATOM     10  O   UNL     1      10.273  -2.631  23.458  0.00  0.00    -0.251 OA
BRANCH   9  11
ATOM     11  O   UNL     1      10.274  -1.482  21.516  0.00  0.00    -0.481 OA
ATOM     12  H   UNL     1      10.278  -2.331  21.032  0.00  0.00    +0.295 HD
ENDBRANCH   9  11
ENDBRANCH   8   9
ENDBRANCH   7   8
ENDBRANCH   1   7
TORSDOF 6
ENDMDL
MODEL 3
REMARK VINA RESULT:      -3.9      2.942      3.849
REMARK  Name = 
REMARK  7 active torsions:
REMARK  status: ('A' for Active; 'I' for Inactive)
REMARK    1  A    between atoms: C_1  and  C_2
REMARK    2  A    between atoms: C_2  and  C_3
REMARK    3  A    between atoms: C_3  and  N_5
REMARK    4  A    between atoms: C_3  and  C_6
REMARK    5  A    between atoms: C_6  and  C_7
REMARK    6  A    between atoms: C_7  and  C_8
REMARK    7  A    between atoms: C_8  and  O_9
REMARK                            x       y       z     vdW  Elec       q    Type
REMARK                         _______ _______ _______ _____ _____    ______ ____
ROOT
ATOM      1  C   UNL     1       9.731  -0.920  23.023  0.00  0.00    +0.051 C 
ENDROOT
BRANCH   1   2
ATOM      2  N   UNL     1       9.953  -0.878  21.576  0.00  0.00    -0.327 NA
ATOM      3  H   UNL     1       9.750   0.061  21.229  0.00  0.00    +0.118 HD
ATOM      4  H   UNL     1      10.939  -1.030  21.368  0.00  0.00    +0.118 HD
ENDBRANCH   1   2
BRANCH   1   6
ATOM      5  C   UNL     1       9.027  -2.760  24.713  0.00  0.00    +0.005 C 
ATOM      6  C   UNL     1       9.934  -2.351  23.560  0.00  0.00    +0.015 C 
ENDBRANCH   1   6
BRANCH   1   7
ATOM      7  C   UNL     1      10.620   0.115  23.733  0.00  0.00    +0.029 C 
BRANCH   7   8
ATOM      8  C   UNL     1       9.917   1.465  23.906  0.00  0.00    +0.122 C 
BRANCH   8   9
ATOM      9  C   UNL     1      10.466   2.520  22.981  0.00  0.00    +0.305 C 
ATOM     10  O   UNL     1      11.046   3.523  23.362  0.00  0.00    -0.251 OA
BRANCH   9  11
ATOM     11  O   UNL     1      10.216   2.276  21.675  0.00  0.00    -0.481 OA
ATOM     12  H   UNL     1      10.333   1.340  21.420  0.00  0.00    +0.295 HD
ENDBRANCH   9  11
ENDBRANCH   8   9
ENDBRANCH   7   8
ENDBRANCH   1   7
TORSDOF 6
ENDMDL
MODEL 4
REMARK VINA RESULT:      -3.8      4.992      6.033
REMARK  Name = 
REMARK  7 active torsions:
REMARK  status: ('A' for Active; 'I' for Inactive)
REMARK    1  A    between atoms: C_1  and  C_2
REMARK    2  A    between atoms: C_2  and  C_3
REMARK    3  A    between atoms: C_3  and  N_5
REMARK    4  A    between atoms: C_3  and  C_6
REMARK    5  A    between atoms: C_6  and  C_7
REMARK    6  A    between atoms: C_7  and  C_8
REMARK    7  A    between atoms: C_8  and  O_9
REMARK                            x       y       z     vdW  Elec       q    Type
REMARK                         _______ _______ _______ _____ _____    ______ ____
ROOT
ATOM      1  C   UNL     1      10.070   1.032  22.413  0.00  0.00    +0.051 C 
ENDROOT
BRANCH   1   2
ATOM      2  N   UNL     1       9.858   2.201  21.557  0.00  0.00    -0.327 NA
ATOM      3  H   UNL     1       9.967   1.928  20.578  0.00  0.00    +0.118 HD
ATOM      4  H   UNL     1       8.895   2.525  21.636  0.00  0.00    +0.118 HD
ENDBRANCH   1   2
BRANCH   1   6
ATOM      5  C   UNL     1      10.913   0.585  24.827  0.00  0.00    +0.005 C 
ATOM      6  C   UNL     1      10.061   1.443  23.899  0.00  0.00    +0.015 C 
ENDBRANCH   1   6
BRANCH   1   7
ATOM      7  C   UNL     1       9.037  -0.062  22.092  0.00  0.00    +0.029 C 
BRANCH   7   8
ATOM      8  C   UNL     1       9.668  -1.456  22.029  0.00  0.00    +0.122 C 
BRANCH   8   9
ATOM      9  C   UNL     1       9.347  -2.286  23.246  0.00  0.00    +0.305 C 
ATOM     10  O   UNL     1      10.152  -3.011  23.806  0.00  0.00    -0.251 OA
BRANCH   9  11
ATOM     11  O   UNL     1       8.058  -2.189  23.641  0.00  0.00    -0.481 OA
ATOM     12  H   UNL     1       7.801  -1.291  23.930  0.00  0.00    +0.295 HD
ENDBRANCH   9  11
ENDBRANCH   8   9
ENDBRANCH   7   8
ENDBRANCH   1   7
TORSDOF 6
ENDMDL
MODEL 5
REMARK VINA RESULT:      -3.7      4.181      5.151
REMARK  Name = 
REMARK  7 active torsions:
REMARK  status: ('A' for Active; 'I' for Inactive)
REMARK    1  A    between atoms: C_1  and  C_2
REMARK    2  A    between atoms: C_2  and  C_3
REMARK    3  A    between atoms: C_3  and  N_5
REMARK    4  A    between atoms: C_3  and  C_6
REMARK    5  A    between atoms: C_6  and  C_7
REMARK    6  A    between atoms: C_7  and  C_8
REMARK    7  A    between atoms: C_8  and  O_9
REMARK                            x       y       z     vdW  Elec       q    Type
REMARK                         _______ _______ _______ _____ _____    ______ ____
ROOT
ATOM      1  C   UNL     1       8.907  -1.936  22.575  0.00  0.00    +0.051 C 
ENDROOT
BRANCH   1   2
ATOM      2  N   UNL     1       9.785  -2.077  23.739  0.00  0.00    -0.327 NA
ATOM      3  H   UNL     1      10.513  -2.763  23.533  0.00  0.00    +0.118 HD
ATOM      4  H   UNL     1      10.283  -1.204  23.910  0.00  0.00    +0.118 HD
ENDBRANCH   1   2
BRANCH   1   6
ATOM      5  C   UNL     1       6.344  -2.320  22.727  0.00  0.00    +0.005 C 
ATOM      6  C   UNL     1       7.527  -1.398  23.001  0.00  0.00    +0.015 C 
ENDBRANCH   1   6
BRANCH   1   7
ATOM      7  C   UNL     1       9.579  -1.067  21.498  0.00  0.00    +0.029 C 
BRANCH   7   8
ATOM      8  C   UNL     1       9.088   0.383  21.532  0.00  0.00    +0.122 C 
BRANCH   8   9
ATOM      9  C   UNL     1      10.036   1.292  22.270  0.00  0.00    +0.305 C 
ATOM     10  O   UNL     1      10.460   1.065  23.391  0.00  0.00    -0.251 OA
BRANCH   9  11
ATOM     11  O   UNL     1      10.346   2.418  21.590  0.00  0.00    -0.481 OA
ATOM     12  H   UNL     1      10.430   2.285  20.625  0.00  0.00    +0.295 HD
ENDBRANCH   9  11
ENDBRANCH   8   9
ENDBRANCH   7   8
ENDBRANCH   1   7
TORSDOF 6
ENDMDL
MODEL 6
REMARK VINA RESULT:      -3.7      3.529      4.193
REMARK  Name = 
REMARK  7 active torsions:
REMARK  status: ('A' for Active; 'I' for Inactive)
REMARK    1  A    between atoms: C_1  and  C_2
REMARK    2  A    between atoms: C_2  and  C_3
REMARK    3  A    between atoms: C_3  and  N_5
REMARK    4  A    between atoms: C_3  and  C_6
REMARK    5  A    between atoms: C_6  and  C_7
REMARK    6  A    between atoms: C_7  and  C_8
REMARK    7  A    between atoms: C_8  and  O_9
REMARK                            x       y       z     vdW  Elec       q    Type
REMARK                         _______ _______ _______ _____ _____    ______ ____
ROOT
ATOM      1  C   UNL     1      10.160  -0.174  24.947  0.00  0.00    +0.051 C 
ENDROOT
BRANCH   1   2
ATOM      2  N   UNL     1       9.099   0.378  25.791  0.00  0.00    -0.327 NA
ATOM      3  H   UNL     1       8.196   0.013  25.482  0.00  0.00    +0.118 HD
ATOM      4  H   UNL     1       9.205   0.048  26.749  0.00  0.00    +0.118 HD
ENDBRANCH   1   2
BRANCH   1   6
ATOM      5  C   UNL     1      10.312  -1.416  22.673  0.00  0.00    +0.005 C 
ATOM      6  C   UNL     1       9.596  -1.258  24.008  0.00  0.00    +0.015 C 
ENDBRANCH   1   6
BRANCH   1   7
ATOM      7  C   UNL     1      10.883   0.954  24.189  0.00  0.00    +0.029 C 
BRANCH   7   8
ATOM      8  C   UNL     1       9.986   2.176  23.973  0.00  0.00    +0.122 C 
BRANCH   8   9
ATOM      9  C   UNL     1       9.343   2.183  22.610  0.00  0.00    +0.305 C 
ATOM     10  O   UNL     1       8.139   2.110  22.427  0.00  0.00    -0.251 OA
BRANCH   9  11
ATOM     11  O   UNL     1      10.232   2.232  21.594  0.00  0.00    -0.481 OA
ATOM     12  H   UNL     1      11.016   2.783  21.782  0.00  0.00    +0.295 HD
ENDBRANCH   9  11
ENDBRANCH   8   9
ENDBRANCH   7   8
ENDBRANCH   1   7
TORSDOF 6
ENDMDL
MODEL 7
REMARK VINA RESULT:      -3.7      3.519      4.312
REMARK  Name = 
REMARK  7 active torsions:
REMARK  status: ('A' for Active; 'I' for Inactive)
REMARK    1  A    between atoms: C_1  and  C_2
REMARK    2  A    between atoms: C_2  and  C_3
REMARK    3  A    between atoms: C_3  and  N_5
REMARK    4  A    between atoms: C_3  and  C_6
REMARK    5  A    between atoms: C_6  and  C_7
REMARK    6  A    between atoms: C_7  and  C_8
REMARK    7  A    between atoms: C_8  and  O_9
REMARK                            x       y       z     vdW  Elec       q    Type
REMARK                         _______ _______ _______ _____ _____    ______ ____
ROOT
ATOM      1  C   UNL     1       8.939   1.363  21.795  0.00  0.00    +0.051 C 
ENDROOT
BRANCH   1   2
ATOM      2  N   UNL     1      10.145   2.194  21.792  0.00  0.00    -0.327 NA
ATOM      3  H   UNL     1      10.283   2.595  22.722  0.00  0.00    +0.118 HD
ATOM      4  H   UNL     1      10.969   1.617  21.627  0.00  0.00    +0.118 HD
ENDBRANCH   1   2
BRANCH   1   6
ATOM      5  C   UNL     1       9.674  -1.120  21.979  0.00  0.00    +0.005 C 
ATOM      6  C   UNL     1       9.206   0.022  21.084  0.00  0.00    +0.015 C 
ENDBRANCH   1   6
BRANCH   1   7
ATOM      7  C   UNL     1       8.415   1.184  23.230  0.00  0.00    +0.029 C 
BRANCH   7   8
ATOM      8  C   UNL     1       9.321   1.852  24.268  0.00  0.00    +0.122 C 
BRANCH   8   9
ATOM      9  C   UNL     1      10.313   0.889  24.868  0.00  0.00    +0.305 C 
ATOM     10  O   UNL     1      11.450   0.738  24.452  0.00  0.00    -0.251 OA
BRANCH   9  11
ATOM     11  O   UNL     1       9.812   0.166  25.893  0.00  0.00    -0.481 OA
ATOM     12  H   UNL     1       9.403  -0.677  25.618  0.00  0.00    +0.295 HD
ENDBRANCH   9  11
ENDBRANCH   8   9
ENDBRANCH   7   8
ENDBRANCH   1   7
TORSDOF 6
ENDMDL
MODEL 8
REMARK VINA RESULT:      -3.7      6.248      7.633
REMARK  Name = 
REMARK  7 active torsions:
REMARK  status: ('A' for Active; 'I' for Inactive)
REMARK    1  A    between atoms: C_1  and  C_2
REMARK    2  A    between atoms: C_2  and  C_3
REMARK    3  A    between atoms: C_3  and  N_5
REMARK    4  A    between atoms: C_3  and  C_6
REMARK    5  A    between atoms: C_6  and  C_7
REMARK    6  A    between atoms: C_7  and  C_8
REMARK    7  A    between atoms: C_8  and  O_9
REMARK                            x       y       z     vdW  Elec       q    Type
REMARK                         _______ _______ _______ _____ _____    ______ ____
ROOT
ATOM      1  C   UNL     1       8.967  -4.738  24.654  0.00  0.00    +0.051 C 
ENDROOT
BRANCH   1   2
ATOM      2  N   UNL     1       9.928  -5.668  25.250  0.00  0.00    -0.327 NA
ATOM      3  H   UNL     1      10.277  -6.303  24.530  0.00  0.00    +0.118 HD
ATOM      4  H   UNL     1      10.748  -5.162  25.579  0.00  0.00    +0.118 HD
ENDBRANCH   1   2
BRANCH   1   6
ATOM      5  C   UNL     1       7.751  -5.240  26.892  0.00  0.00    +0.005 C 
ATOM      6  C   UNL     1       7.653  -4.726  25.460  0.00  0.00    +0.015 C 
ENDBRANCH   1   6
BRANCH   1   7
ATOM      7  C   UNL     1       9.592  -3.339  24.512  0.00  0.00    +0.029 C 
BRANCH   7   8
ATOM      8  C   UNL     1       8.995  -2.551  23.343  0.00  0.00    +0.122 C 
BRANCH   8   9
ATOM      9  C   UNL     1       9.947  -1.514  22.805  0.00  0.00    +0.305 C 
ATOM     10  O   UNL     1      10.445  -0.631  23.484  0.00  0.00    -0.251 OA
BRANCH   9  11
ATOM     11  O   UNL     1      10.170  -1.623  21.477  0.00  0.00    -0.481 OA
ATOM     12  H   UNL     1      10.169  -0.767  21.005  0.00  0.00    +0.295 HD
ENDBRANCH   9  11
ENDBRANCH   8   9
ENDBRANCH   7   8
ENDBRANCH   1   7
TORSDOF 6
ENDMDL
MODEL 9
REMARK VINA RESULT:      -3.7      4.226      4.923
REMARK  Name = 
REMARK  7 active torsions:
REMARK  status: ('A' for Active; 'I' for Inactive)
REMARK    1  A    between atoms: C_1  and  C_2
REMARK    2  A    between atoms: C_2  and  C_3
REMARK    3  A    between atoms: C_3  and  N_5
REMARK    4  A    between atoms: C_3  and  C_6
REMARK    5  A    between atoms: C_6  and  C_7
REMARK    6  A    between atoms: C_7  and  C_8
REMARK    7  A    between atoms: C_8  and  O_9
REMARK                            x       y       z     vdW  Elec       q    Type
REMARK                         _______ _______ _______ _____ _____    ______ ____
ROOT
ATOM      1  C   UNL     1       9.588  -0.439  22.494  0.00  0.00    +0.051 C 
ENDROOT
BRANCH   1   2
ATOM      2  N   UNL     1      10.135  -1.469  21.608  0.00  0.00    -0.327 NA
ATOM      3  H   UNL     1       9.661  -1.425  20.704  0.00  0.00    +0.118 HD
ATOM      4  H   UNL     1      11.114  -1.272  21.405  0.00  0.00    +0.118 HD
ENDBRANCH   1   2
BRANCH   1   6
ATOM      5  C   UNL     1      10.838   0.707  24.458  0.00  0.00    +0.005 C 
ATOM      6  C   UNL     1      10.198  -0.559  23.904  0.00  0.00    +0.015 C 
ENDBRANCH   1   6
BRANCH   1   7
ATOM      7  C   UNL     1       9.782   0.957  21.877  0.00  0.00    +0.029 C 
BRANCH   7   8
ATOM      8  C   UNL     1       8.453   1.612  21.491  0.00  0.00    +0.122 C 
BRANCH   8   9
ATOM      9  C   UNL     1       7.510   1.729  22.661  0.00  0.00    +0.305 C 
ATOM     10  O   UNL     1       7.754   2.371  23.669  0.00  0.00    -0.251 OA
BRANCH   9  11
ATOM     11  O   UNL     1       6.373   1.014  22.512  0.00  0.00    -0.481 OA
ATOM     12  H   UNL     1       6.092   0.909  21.582  0.00  0.00    +0.295 HD
ENDBRANCH   9  11
ENDBRANCH   8   9
ENDBRANCH   7   8
ENDBRANCH   1   7
TORSDOF 6
ENDMDL
