MODEL 1
REMARK VINA RESULT:      -8.3      0.000      0.000
REMARK  Name = 
REMARK  11 active torsions:
REMARK  status: ('A' for Active; 'I' for Inactive)
REMARK    1  A    between atoms: C_1  and  C_2
REMARK    2  A    between atoms: N_12  and  C_13
REMARK    3  A    between atoms: C_13  and  C_14
REMARK    4  A    between atoms: C_16  and  C_20
REMARK    5  A    between atoms: C_20  and  C_22
REMARK    6  A    between atoms: C_20  and  C_27
REMARK    7  A    between atoms: N_29  and  CA_30
REMARK    8  A    between atoms: CA_30  and  C_32
REMARK    9  A    between atoms: CA_30  and  C_34
REMARK   10  A    between atoms: C_32  and  O_33
REMARK   11  A    between atoms: C_40  and  C_41
REMARK                            x       y       z     vdW  Elec       q    Type
REMARK                         _______ _______ _______ _____ _____    ______ ____
ROOT
ATOM      1  C   UNL     1       9.044  -2.981  25.245  0.00  0.00    -0.027 A 
ATOM      2  C   UNL     1       9.692  -2.695  24.036  0.00  0.00    +0.005 A 
ATOM      3  C   UNL     1       9.493  -1.454  23.404  0.00  0.00    +0.001 A 
ATOM      4  C   UNL     1       8.588  -0.528  23.924  0.00  0.00    +0.004 A 
ATOM      5  C   UNL     1       7.920  -0.812  25.118  0.00  0.00    -0.035 A 
ATOM      6  C   UNL     1       8.249  -1.985  25.816  0.00  0.00    +0.009 A 
ENDROOT
BRANCH   1   7
ATOM      7  C   UNL     1       8.938  -4.370  25.836  0.00  0.00    +0.159 C 
BRANCH   7  16
ATOM      8  C   UNL     1       6.265  -6.391  29.996  0.00  0.00    +0.065 C 
ATOM      9  C   UNL     1       6.065  -6.212  28.515  0.00  0.00    +0.041 A 
ATOM     10  C   UNL     1       4.857  -6.627  27.965  0.00  0.00    +0.027 A 
ATOM     11  C   UNL     1       4.638  -6.559  26.582  0.00  0.00    -0.038 A 
ATOM     12  C   UNL     1       3.316  -7.064  26.076  0.00  0.00    +0.044 C 
ATOM     13  C   UNL     1       5.699  -6.039  25.799  0.00  0.00    +0.030 A 
ATOM     14  C   UNL     1       5.928  -5.810  24.399  0.00  0.00    +0.009 A 
ATOM     15  C   UNL     1       7.180  -5.204  24.263  0.00  0.00    +0.052 A 
ATOM     16  N   UNL     1       7.731  -5.118  25.529  0.00  0.00    -0.320 N 
ATOM     17  C   UNL     1       7.678  -4.785  23.014  0.00  0.00    +0.026 A 
ATOM     18  C   UNL     1       6.913  -5.032  21.875  0.00  0.00    +0.002 A 
ATOM     19  C   UNL     1       5.676  -5.652  21.976  0.00  0.00    +0.001 A 
ATOM     20  C   UNL     1       5.173  -6.030  23.222  0.00  0.00    +0.010 A 
ATOM     21  C   UNL     1       6.850  -5.613  26.469  0.00  0.00    +0.143 A 
ATOM     22  N   UNL     1       7.077  -5.658  27.803  0.00  0.00    -0.234 NA
ENDBRANCH   7  16
ENDBRANCH   1   7
BRANCH   5  23
ATOM     23  C   UNL     1       6.706  -0.047  25.620  0.00  0.00    +0.108 C 
BRANCH  23  24
ATOM     24  C   UNL     1       5.383  -0.860  25.606  0.00  0.00    +0.005 C 
ATOM     25  C   UNL     1       5.083  -1.472  26.990  0.00  0.00    +0.004 C 
ATOM     26  C   UNL     1       4.456  -2.842  26.741  0.00  0.00    +0.000 C 
ATOM     27  C   UNL     1       4.264  -2.949  25.238  0.00  0.00    +0.000 C 
ATOM     28  C   UNL     1       5.361  -2.069  24.663  0.00  0.00    +0.004 C 
ENDBRANCH  23  24
BRANCH  23  29
ATOM     29  C   UNL     1       6.566   1.351  25.023  0.00  0.00    +0.221 C 
ATOM     30  N   UNL     1       7.381   2.316  25.548  0.00  0.00    -0.306 N 
ATOM     31  H   UNL     1       7.842   2.155  26.433  0.00  0.00    +0.149 HD
ATOM     32  O   UNL     1       5.779   1.602  24.111  0.00  0.00    -0.275 OA
BRANCH  30  33
ATOM     33  CA  UNL     1       7.525   3.632  24.943  0.00  0.00    +0.128 C 
BRANCH  33  34
ATOM     34  C   UNL     1       8.949   3.750  24.434  0.00  0.00    -0.025 A 
ATOM     35  C   UNL     1       9.697   2.636  24.027  0.00  0.00    +0.005 A 
ATOM     36  C   UNL     1      10.981   2.794  23.500  0.00  0.00    +0.000 A 
ATOM     37  C   UNL     1      11.530   4.067  23.360  0.00  0.00    +0.000 A 
ATOM     38  C   UNL     1      10.795   5.185  23.742  0.00  0.00    +0.000 A 
ATOM     39  C   UNL     1       9.512   5.028  24.270  0.00  0.00    +0.005 A 
ENDBRANCH  33  34
BRANCH  33  40
ATOM     40  C   UNL     1       7.083   4.745  25.921  0.00  0.00    +0.182 C 
BRANCH  40  41
ATOM     41  O   UNL     1       7.567   4.549  27.252  0.00  0.00    -0.393 OA
ATOM     42  H   UNL     1       7.923   3.638  27.326  0.00  0.00    +0.209 HD
ENDBRANCH  40  41
ENDBRANCH  33  40
ENDBRANCH  30  33
ENDBRANCH  23  29
ENDBRANCH   5  23
TORSDOF 9
ENDMDL
MODEL 2
REMARK VINA RESULT:      -8.1      2.644      6.433
REMARK  Name = 
REMARK  11 active torsions:
REMARK  status: ('A' for Active; 'I' for Inactive)
REMARK    1  A    between atoms: C_1  and  C_2
REMARK    2  A    between atoms: N_12  and  C_13
REMARK    3  A    between atoms: C_13  and  C_14
REMARK    4  A    between atoms: C_16  and  C_20
REMARK    5  A    between atoms: C_20  and  C_22
REMARK    6  A    between atoms: C_20  and  C_27
REMARK    7  A    between atoms: N_29  and  CA_30
REMARK    8  A    between atoms: CA_30  and  C_32
REMARK    9  A    between atoms: CA_30  and  C_34
REMARK   10  A    between atoms: C_32  and  O_33
REMARK   11  A    between atoms: C_40  and  C_41
REMARK                            x       y       z     vdW  Elec       q    Type
REMARK                         _______ _______ _______ _____ _____    ______ ____
ROOT
ATOM      1  C   UNL     1       6.460  -0.109  26.052  0.00  0.00    -0.027 A 
ATOM      2  C   UNL     1       6.686   0.045  27.426  0.00  0.00    +0.005 A 
ATOM      3  C   UNL     1       7.991  -0.055  27.943  0.00  0.00    +0.001 A 
ATOM      4  C   UNL     1       9.061  -0.391  27.114  0.00  0.00    +0.004 A 
ATOM      5  C   UNL     1       8.844  -0.568  25.745  0.00  0.00    -0.035 A 
ATOM      6  C   UNL     1       7.566  -0.310  25.222  0.00  0.00    +0.009 A 
ENDROOT
BRANCH   1   7
ATOM      7  C   UNL     1       5.094  -0.331  25.443  0.00  0.00    +0.159 C 
BRANCH   7  16
ATOM      8  C   UNL     1       1.554  -2.123  29.021  0.00  0.00    +0.065 C 
ATOM      9  C   UNL     1       2.174  -2.584  27.729  0.00  0.00    +0.041 A 
ATOM     10  C   UNL     1       1.753  -3.800  27.202  0.00  0.00    +0.027 A 
ATOM     11  C   UNL     1       2.346  -4.323  26.043  0.00  0.00    -0.038 A 
ATOM     12  C   UNL     1       1.851  -5.660  25.569  0.00  0.00    +0.044 C 
ATOM     13  C   UNL     1       3.368  -3.542  25.449  0.00  0.00    +0.030 A 
ATOM     14  C   UNL     1       4.238  -3.677  24.313  0.00  0.00    +0.009 A 
ATOM     15  C   UNL     1       5.005  -2.512  24.218  0.00  0.00    +0.052 A 
ATOM     16  N   UNL     1       4.663  -1.712  25.294  0.00  0.00    -0.320 N 
ATOM     17  C   UNL     1       5.915  -2.297  23.166  0.00  0.00    +0.026 A 
ATOM     18  C   UNL     1       6.088  -3.306  22.219  0.00  0.00    +0.002 A 
ATOM     19  C   UNL     1       5.357  -4.483  22.299  0.00  0.00    +0.001 A 
ATOM     20  C   UNL     1       4.430  -4.672  23.324  0.00  0.00    +0.010 A 
ATOM     21  C   UNL     1       3.675  -2.314  26.045  0.00  0.00    +0.143 A 
ATOM     22  N   UNL     1       3.107  -1.786  27.155  0.00  0.00    -0.234 NA
ENDBRANCH   7  16
ENDBRANCH   1   7
BRANCH   5  23
ATOM     23  C   UNL     1       9.837  -1.225  24.800  0.00  0.00    +0.108 C 
BRANCH  23  24
ATOM     24  C   UNL     1      10.344  -0.304  23.657  0.00  0.00    +0.005 C 
ATOM     25  C   UNL     1      10.852   1.046  24.204  0.00  0.00    +0.004 C 
ATOM     26  C   UNL     1      10.457   2.113  23.186  0.00  0.00    +0.000 C 
ATOM     27  C   UNL     1       9.863   1.366  22.004  0.00  0.00    +0.000 C 
ATOM     28  C   UNL     1       9.290   0.100  22.618  0.00  0.00    +0.004 C 
ENDBRANCH  23  24
BRANCH  23  29
ATOM     29  C   UNL     1       9.410  -2.610  24.320  0.00  0.00    +0.221 C 
ATOM     30  N   UNL     1       8.891  -3.445  25.270  0.00  0.00    -0.306 N 
ATOM     31  H   UNL     1       9.030  -3.237  26.249  0.00  0.00    +0.149 HD
ATOM     32  O   UNL     1       9.510  -2.958  23.143  0.00  0.00    -0.275 OA
BRANCH  30  33
ATOM     33  CA  UNL     1       8.240  -4.703  24.934  0.00  0.00    +0.128 C 
BRANCH  33  34
ATOM     34  C   UNL     1       7.129  -4.929  25.943  0.00  0.00    -0.025 A 
ATOM     35  C   UNL     1       6.337  -6.086  25.942  0.00  0.00    +0.005 A 
ATOM     36  C   UNL     1       5.369  -6.287  26.929  0.00  0.00    +0.000 A 
ATOM     37  C   UNL     1       5.188  -5.343  27.937  0.00  0.00    +0.000 A 
ATOM     38  C   UNL     1       5.978  -4.197  27.963  0.00  0.00    +0.000 A 
ATOM     39  C   UNL     1       6.945  -3.994  26.977  0.00  0.00    +0.005 A 
ENDBRANCH  33  34
BRANCH  33  40
ATOM     40  C   UNL     1       9.270  -5.851  24.824  0.00  0.00    +0.182 C 
BRANCH  40  41
ATOM     41  O   UNL     1      10.503  -5.564  25.488  0.00  0.00    -0.393 OA
ATOM     42  H   UNL     1      11.239  -5.947  24.964  0.00  0.00    +0.209 HD
ENDBRANCH  40  41
ENDBRANCH  33  40
ENDBRANCH  30  33
ENDBRANCH  23  29
ENDBRANCH   5  23
TORSDOF 9
ENDMDL
MODEL 3
REMARK VINA RESULT:      -8.1      2.358      4.061
REMARK  Name = 
REMARK  11 active torsions:
REMARK  status: ('A' for Active; 'I' for Inactive)
REMARK    1  A    between atoms: C_1  and  C_2
REMARK    2  A    between atoms: N_12  and  C_13
REMARK    3  A    between atoms: C_13  and  C_14
REMARK    4  A    between atoms: C_16  and  C_20
REMARK    5  A    between atoms: C_20  and  C_22
REMARK    6  A    between atoms: C_20  and  C_27
REMARK    7  A    between atoms: N_29  and  CA_30
REMARK    8  A    between atoms: CA_30  and  C_32
REMARK    9  A    between atoms: CA_30  and  C_34
REMARK   10  A    between atoms: C_32  and  O_33
REMARK   11  A    between atoms: C_40  and  C_41
REMARK                            x       y       z     vdW  Elec       q    Type
REMARK                         _______ _______ _______ _____ _____    ______ ____
ROOT
ATOM      1  C   UNL     1       5.792  -6.010  23.405  0.00  0.00    -0.027 A 
ATOM      2  C   UNL     1       5.616  -5.785  22.034  0.00  0.00    +0.005 A 
ATOM      3  C   UNL     1       6.240  -4.688  21.412  0.00  0.00    +0.001 A 
ATOM      4  C   UNL     1       6.969  -3.765  22.162  0.00  0.00    +0.004 A 
ATOM      5  C   UNL     1       7.133  -3.968  23.535  0.00  0.00    -0.035 A 
ATOM      6  C   UNL     1       6.638  -5.150  24.109  0.00  0.00    +0.009 A 
ENDROOT
BRANCH   1   7
ATOM      7  C   UNL     1       4.934  -6.952  24.221  0.00  0.00    +0.159 C 
BRANCH   7  16
ATOM      8  C   UNL     1       6.371  -6.722  29.362  0.00  0.00    +0.065 C 
ATOM      9  C   UNL     1       5.280  -6.180  28.477  0.00  0.00    +0.041 A 
ATOM     10  C   UNL     1       4.336  -5.335  29.050  0.00  0.00    +0.027 A 
ATOM     11  C   UNL     1       3.252  -4.858  28.299  0.00  0.00    -0.038 A 
ATOM     12  C   UNL     1       2.263  -3.980  29.013  0.00  0.00    +0.044 C 
ATOM     13  C   UNL     1       3.190  -5.272  26.945  0.00  0.00    +0.030 A 
ATOM     14  C   UNL     1       2.290  -5.062  25.845  0.00  0.00    +0.009 A 
ATOM     15  C   UNL     1       2.824  -5.705  24.724  0.00  0.00    +0.052 A 
ATOM     16  N   UNL     1       3.982  -6.341  25.134  0.00  0.00    -0.320 N 
ATOM     17  C   UNL     1       2.213  -5.635  23.458  0.00  0.00    +0.026 A 
ATOM     18  C   UNL     1       1.010  -4.941  23.336  0.00  0.00    +0.002 A 
ATOM     19  C   UNL     1       0.444  -4.311  24.435  0.00  0.00    +0.001 A 
ATOM     20  C   UNL     1       1.075  -4.354  25.679  0.00  0.00    +0.010 A 
ATOM     21  C   UNL     1       4.222  -6.088  26.469  0.00  0.00    +0.143 A 
ATOM     22  N   UNL     1       5.283  -6.549  27.172  0.00  0.00    -0.234 NA
ENDBRANCH   7  16
ENDBRANCH   1   7
BRANCH   5  23
ATOM     23  C   UNL     1       7.627  -2.905  24.502  0.00  0.00    +0.108 C 
BRANCH  23  24
ATOM     24  C   UNL     1       6.504  -2.045  25.142  0.00  0.00    +0.005 C 
ATOM     25  C   UNL     1       6.664  -1.959  26.674  0.00  0.00    +0.004 C 
ATOM     26  C   UNL     1       5.257  -1.976  27.268  0.00  0.00    +0.000 C 
ATOM     27  C   UNL     1       4.302  -1.922  26.087  0.00  0.00    +0.000 C 
ATOM     28  C   UNL     1       5.077  -2.578  24.957  0.00  0.00    +0.004 C 
ENDBRANCH  23  24
BRANCH  23  29
ATOM     29  C   UNL     1       8.794  -2.078  23.967  0.00  0.00    +0.221 C 
ATOM     30  N   UNL     1       8.510  -0.785  23.622  0.00  0.00    -0.306 N 
ATOM     31  H   UNL     1       7.549  -0.501  23.494  0.00  0.00    +0.149 HD
ATOM     32  O   UNL     1       9.932  -2.535  23.863  0.00  0.00    -0.275 OA
BRANCH  30  33
ATOM     33  CA  UNL     1       9.548   0.186  23.310  0.00  0.00    +0.128 C 
BRANCH  33  34
ATOM     34  C   UNL     1       9.177   1.489  23.994  0.00  0.00    -0.025 A 
ATOM     35  C   UNL     1       9.682   2.729  23.574  0.00  0.00    +0.005 A 
ATOM     36  C   UNL     1       9.264   3.912  24.186  0.00  0.00    +0.000 A 
ATOM     37  C   UNL     1       8.326   3.876  25.216  0.00  0.00    +0.000 A 
ATOM     38  C   UNL     1       7.801   2.657  25.633  0.00  0.00    +0.000 A 
ATOM     39  C   UNL     1       8.219   1.473  25.023  0.00  0.00    +0.005 A 
ENDBRANCH  33  34
BRANCH  33  40
ATOM     40  C   UNL     1       9.774   0.287  21.784  0.00  0.00    +0.182 C 
BRANCH  40  41
ATOM     41  O   UNL     1       9.811  -0.987  21.136  0.00  0.00    -0.393 OA
ATOM     42  H   UNL     1       9.524  -0.875  20.205  0.00  0.00    +0.209 HD
ENDBRANCH  40  41
ENDBRANCH  33  40
ENDBRANCH  30  33
ENDBRANCH  23  29
ENDBRANCH   5  23
TORSDOF 9
ENDMDL
MODEL 4
REMARK VINA RESULT:      -7.8      2.526      9.137
REMARK  Name = 
REMARK  11 active torsions:
REMARK  status: ('A' for Active; 'I' for Inactive)
REMARK    1  A    between atoms: C_1  and  C_2
REMARK    2  A    between atoms: N_12  and  C_13
REMARK    3  A    between atoms: C_13  and  C_14
REMARK    4  A    between atoms: C_16  and  C_20
REMARK    5  A    between atoms: C_20  and  C_22
REMARK    6  A    between atoms: C_20  and  C_27
REMARK    7  A    between atoms: N_29  and  CA_30
REMARK    8  A    between atoms: CA_30  and  C_32
REMARK    9  A    between atoms: CA_30  and  C_34
REMARK   10  A    between atoms: C_32  and  O_33
REMARK   11  A    between atoms: C_40  and  C_41
REMARK                            x       y       z     vdW  Elec       q    Type
REMARK                         _______ _______ _______ _____ _____    ______ ____
ROOT
ATOM      1  C   UNL     1       7.939   1.683  21.920  0.00  0.00    -0.027 A 
ATOM      2  C   UNL     1       9.259   1.380  21.559  0.00  0.00    +0.005 A 
ATOM      3  C   UNL     1       9.796   0.112  21.845  0.00  0.00    +0.001 A 
ATOM      4  C   UNL     1       9.056  -0.829  22.562  0.00  0.00    +0.004 A 
ATOM      5  C   UNL     1       7.746  -0.530  22.945  0.00  0.00    -0.035 A 
ATOM      6  C   UNL     1       7.173   0.678  22.515  0.00  0.00    +0.009 A 
ENDROOT
BRANCH   1   7
ATOM      7  C   UNL     1       7.374   3.086  21.946  0.00  0.00    +0.159 C 
BRANCH   7  16
ATOM      8  C   UNL     1      11.470   5.847  23.978  0.00  0.00    +0.065 C 
ATOM      9  C   UNL     1      10.018   5.602  24.291  0.00  0.00    +0.041 A 
ATOM     10  C   UNL     1       9.467   6.260  25.385  0.00  0.00    +0.027 A 
ATOM     11  C   UNL     1       8.142   6.016  25.776  0.00  0.00    -0.038 A 
ATOM     12  C   UNL     1       7.646   6.745  26.991  0.00  0.00    +0.044 C 
ATOM     13  C   UNL     1       7.414   5.086  24.992  0.00  0.00    +0.030 A 
ATOM     14  C   UNL     1       6.090   4.529  25.024  0.00  0.00    +0.009 A 
ATOM     15  C   UNL     1       5.952   3.689  23.915  0.00  0.00    +0.052 A 
ATOM     16  N   UNL     1       7.168   3.681  23.256  0.00  0.00    -0.320 N 
ATOM     17  C   UNL     1       4.741   3.036  23.616  0.00  0.00    +0.026 A 
ATOM     18  C   UNL     1       3.664   3.197  24.487  0.00  0.00    +0.002 A 
ATOM     19  C   UNL     1       3.778   4.008  25.608  0.00  0.00    +0.001 A 
ATOM     20  C   UNL     1       4.971   4.681  25.876  0.00  0.00    +0.010 A 
ATOM     21  C   UNL     1       8.061   4.521  23.889  0.00  0.00    +0.143 A 
ATOM     22  N   UNL     1       9.333   4.752  23.487  0.00  0.00    -0.234 NA
ENDBRANCH   7  16
ENDBRANCH   1   7
BRANCH   5  23
ATOM     23  C   UNL     1       6.956  -1.321  23.974  0.00  0.00    +0.108 C 
BRANCH  23  24
ATOM     24  C   UNL     1       6.927  -0.687  25.391  0.00  0.00    +0.005 C 
ATOM     25  C   UNL     1       5.489  -0.330  25.821  0.00  0.00    +0.004 C 
ATOM     26  C   UNL     1       5.574   0.973  26.612  0.00  0.00    +0.000 C 
ATOM     27  C   UNL     1       7.054   1.279  26.761  0.00  0.00    +0.000 C 
ATOM     28  C   UNL     1       7.687   0.638  25.537  0.00  0.00    +0.004 C 
ENDBRANCH  23  24
BRANCH  23  29
ATOM     29  C   UNL     1       7.275  -2.814  23.984  0.00  0.00    +0.221 C 
ATOM     30  N   UNL     1       7.894  -3.292  25.107  0.00  0.00    -0.306 N 
ATOM     31  H   UNL     1       8.329  -2.646  25.751  0.00  0.00    +0.149 HD
ATOM     32  O   UNL     1       6.984  -3.556  23.046  0.00  0.00    -0.275 OA
BRANCH  30  33
ATOM     33  CA  UNL     1       8.063  -4.715  25.360  0.00  0.00    +0.128 C 
BRANCH  33  34
ATOM     34  C   UNL     1       6.883  -5.176  26.195  0.00  0.00    -0.025 A 
ATOM     35  C   UNL     1       6.655  -4.710  27.498  0.00  0.00    +0.005 A 
ATOM     36  C   UNL     1       5.520  -5.107  28.208  0.00  0.00    +0.000 A 
ATOM     37  C   UNL     1       4.590  -5.962  27.622  0.00  0.00    +0.000 A 
ATOM     38  C   UNL     1       4.791  -6.420  26.323  0.00  0.00    +0.000 A 
ATOM     39  C   UNL     1       5.926  -6.025  25.613  0.00  0.00    +0.005 A 
ENDBRANCH  33  34
BRANCH  33  40
ATOM     40  C   UNL     1       9.453  -5.010  25.970  0.00  0.00    +0.182 C 
BRANCH  40  41
ATOM     41  O   UNL     1      10.413  -5.435  25.000  0.00  0.00    -0.393 OA
ATOM     42  H   UNL     1      11.035  -6.063  25.425  0.00  0.00    +0.209 HD
ENDBRANCH  40  41
ENDBRANCH  33  40
ENDBRANCH  30  33
ENDBRANCH  23  29
ENDBRANCH   5  23
TORSDOF 9
ENDMDL
MODEL 5
REMARK VINA RESULT:      -7.7      2.512      6.250
REMARK  Name = 
REMARK  11 active torsions:
REMARK  status: ('A' for Active; 'I' for Inactive)
REMARK    1  A    between atoms: C_1  and  C_2
REMARK    2  A    between atoms: N_12  and  C_13
REMARK    3  A    between atoms: C_13  and  C_14
REMARK    4  A    between atoms: C_16  and  C_20
REMARK    5  A    between atoms: C_20  and  C_22
REMARK    6  A    between atoms: C_20  and  C_27
REMARK    7  A    between atoms: N_29  and  CA_30
REMARK    8  A    between atoms: CA_30  and  C_32
REMARK    9  A    between atoms: CA_30  and  C_34
REMARK   10  A    between atoms: C_32  and  O_33
REMARK   11  A    between atoms: C_40  and  C_41
REMARK                            x       y       z     vdW  Elec       q    Type
REMARK                         _______ _______ _______ _____ _____    ______ ____
ROOT
ATOM      1  C   UNL     1       4.918   0.485  26.979  0.00  0.00    -0.027 A 
ATOM      2  C   UNL     1       5.721   0.465  28.126  0.00  0.00    +0.005 A 
ATOM      3  C   UNL     1       6.991   1.070  28.110  0.00  0.00    +0.001 A 
ATOM      4  C   UNL     1       7.501   1.622  26.935  0.00  0.00    +0.004 A 
ATOM      5  C   UNL     1       6.717   1.629  25.779  0.00  0.00    -0.035 A 
ATOM      6  C   UNL     1       5.394   1.163  25.854  0.00  0.00    +0.009 A 
ENDROOT
BRANCH   1   7
ATOM      7  C   UNL     1       3.697  -0.387  26.789  0.00  0.00    +0.159 C 
BRANCH   7  16
ATOM      8  C   UNL     1       5.539  -2.999  22.509  0.00  0.00    +0.065 C 
ATOM      9  C   UNL     1       5.284  -3.275  23.966  0.00  0.00    +0.041 A 
ATOM     10  C   UNL     1       5.619  -4.531  24.460  0.00  0.00    +0.027 A 
ATOM     11  C   UNL     1       5.336  -4.877  25.790  0.00  0.00    -0.038 A 
ATOM     12  C   UNL     1       5.700  -6.269  26.223  0.00  0.00    +0.044 C 
ATOM     13  C   UNL     1       4.713  -3.882  26.583  0.00  0.00    +0.030 A 
ATOM     14  C   UNL     1       4.236  -3.793  27.936  0.00  0.00    +0.009 A 
ATOM     15  C   UNL     1       3.765  -2.493  28.140  0.00  0.00    +0.052 A 
ATOM     16  N   UNL     1       3.891  -1.821  26.938  0.00  0.00    -0.320 N 
ATOM     17  C   UNL     1       3.287  -2.057  29.391  0.00  0.00    +0.026 A 
ATOM     18  C   UNL     1       3.239  -2.973  30.442  0.00  0.00    +0.002 A 
ATOM     19  C   UNL     1       3.679  -4.277  30.263  0.00  0.00    +0.001 A 
ATOM     20  C   UNL     1       4.186  -4.690  29.030  0.00  0.00    +0.010 A 
ATOM     21  C   UNL     1       4.465  -2.641  25.988  0.00  0.00    +0.143 A 
ATOM     22  N   UNL     1       4.741  -2.282  24.712  0.00  0.00    -0.234 NA
ENDBRANCH   7  16
ENDBRANCH   1   7
BRANCH   5  23
ATOM     23  C   UNL     1       7.254   1.910  24.385  0.00  0.00    +0.108 C 
BRANCH  23  24
ATOM     24  C   UNL     1       6.486   3.015  23.610  0.00  0.00    +0.005 C 
ATOM     25  C   UNL     1       7.300   3.528  22.404  0.00  0.00    +0.004 C 
ATOM     26  C   UNL     1       7.034   5.028  22.296  0.00  0.00    +0.000 C 
ATOM     27  C   UNL     1       5.968   5.341  23.332  0.00  0.00    +0.000 C 
ATOM     28  C   UNL     1       6.180   4.289  24.408  0.00  0.00    +0.004 C 
ENDBRANCH  23  24
BRANCH  23  29
ATOM     29  C   UNL     1       7.508   0.653  23.556  0.00  0.00    +0.221 C 
ATOM     30  N   UNL     1       8.598  -0.093  23.910  0.00  0.00    -0.306 N 
ATOM     31  H   UNL     1       9.309   0.310  24.504  0.00  0.00    +0.149 HD
ATOM     32  O   UNL     1       6.772   0.315  22.629  0.00  0.00    -0.275 OA
BRANCH  30  33
ATOM     33  CA  UNL     1       8.846  -1.421  23.367  0.00  0.00    +0.128 C 
BRANCH  33  34
ATOM     34  C   UNL     1       8.869  -2.395  24.530  0.00  0.00    -0.025 A 
ATOM     35  C   UNL     1       8.298  -2.093  25.775  0.00  0.00    +0.005 A 
ATOM     36  C   UNL     1       8.280  -3.043  26.799  0.00  0.00    +0.000 A 
ATOM     37  C   UNL     1       8.817  -4.311  26.589  0.00  0.00    +0.000 A 
ATOM     38  C   UNL     1       9.371  -4.633  25.354  0.00  0.00    +0.000 A 
ATOM     39  C   UNL     1       9.392  -3.685  24.330  0.00  0.00    +0.005 A 
ENDBRANCH  33  34
BRANCH  33  40
ATOM     40  C   UNL     1      10.111  -1.431  22.478  0.00  0.00    +0.182 C 
BRANCH  40  41
ATOM     41  O   UNL     1       9.857  -1.007  21.136  0.00  0.00    -0.393 OA
ATOM     42  H   UNL     1      10.642  -1.216  20.586  0.00  0.00    +0.209 HD
ENDBRANCH  40  41
ENDBRANCH  33  40
ENDBRANCH  30  33
ENDBRANCH  23  29
ENDBRANCH   5  23
TORSDOF 9
ENDMDL
MODEL 6
REMARK VINA RESULT:      -7.6      1.990      3.238
REMARK  Name = 
REMARK  11 active torsions:
REMARK  status: ('A' for Active; 'I' for Inactive)
REMARK    1  A    between atoms: C_1  and  C_2
REMARK    2  A    between atoms: N_12  and  C_13
REMARK    3  A    between atoms: C_13  and  C_14
REMARK    4  A    between atoms: C_16  and  C_20
REMARK    5  A    between atoms: C_20  and  C_22
REMARK    6  A    between atoms: C_20  and  C_27
REMARK    7  A    between atoms: N_29  and  CA_30
REMARK    8  A    between atoms: CA_30  and  C_32
REMARK    9  A    between atoms: CA_30  and  C_34
REMARK   10  A    between atoms: C_32  and  O_33
REMARK   11  A    between atoms: C_40  and  C_41
REMARK                            x       y       z     vdW  Elec       q    Type
REMARK                         _______ _______ _______ _____ _____    ______ ____
ROOT
ATOM      1  C   UNL     1       9.105  -3.204  25.319  0.00  0.00    -0.027 A 
ATOM      2  C   UNL     1       9.798  -2.943  24.130  0.00  0.00    +0.005 A 
ATOM      3  C   UNL     1       9.658  -1.698  23.490  0.00  0.00    +0.001 A 
ATOM      4  C   UNL     1       8.768  -0.742  23.981  0.00  0.00    +0.004 A 
ATOM      5  C   UNL     1       8.056  -1.001  25.155  0.00  0.00    -0.035 A 
ATOM      6  C   UNL     1       8.326  -2.182  25.865  0.00  0.00    +0.009 A 
ENDROOT
BRANCH   1   7
ATOM      7  C   UNL     1       8.938  -4.587  25.910  0.00  0.00    +0.159 C 
BRANCH   7  16
ATOM      8  C   UNL     1       6.123  -6.313  30.110  0.00  0.00    +0.065 C 
ATOM      9  C   UNL     1       5.944  -6.171  28.622  0.00  0.00    +0.041 A 
ATOM     10  C   UNL     1       4.718  -6.533  28.076  0.00  0.00    +0.027 A 
ATOM     11  C   UNL     1       4.512  -6.497  26.688  0.00  0.00    -0.038 A 
ATOM     12  C   UNL     1       3.167  -6.941  26.188  0.00  0.00    +0.044 C 
ATOM     13  C   UNL     1       5.607  -6.066  25.898  0.00  0.00    +0.030 A 
ATOM     14  C   UNL     1       5.858  -5.896  24.494  0.00  0.00    +0.009 A 
ATOM     15  C   UNL     1       7.145  -5.369  24.349  0.00  0.00    +0.052 A 
ATOM     16  N   UNL     1       7.691  -5.274  25.617  0.00  0.00    -0.320 N 
ATOM     17  C   UNL     1       7.675  -5.021  23.092  0.00  0.00    +0.026 A 
ATOM     18  C   UNL     1       6.905  -5.260  21.955  0.00  0.00    +0.002 A 
ATOM     19  C   UNL     1       5.633  -5.803  22.065  0.00  0.00    +0.001 A 
ATOM     20  C   UNL     1       5.100  -6.111  23.318  0.00  0.00    +0.010 A 
ATOM     21  C   UNL     1       6.776  -5.686  26.565  0.00  0.00    +0.143 A 
ATOM     22  N   UNL     1       6.991  -5.700  27.901  0.00  0.00    -0.234 NA
ENDBRANCH   7  16
ENDBRANCH   1   7
BRANCH   5  23
ATOM     23  C   UNL     1       6.852  -0.197  25.618  0.00  0.00    +0.108 C 
BRANCH  23  24
ATOM     24  C   UNL     1       5.486  -0.905  25.409  0.00  0.00    +0.005 C 
ATOM     25  C   UNL     1       4.924  -1.450  26.738  0.00  0.00    +0.004 C 
ATOM     26  C   UNL     1       4.236  -2.775  26.418  0.00  0.00    +0.000 C 
ATOM     27  C   UNL     1       4.273  -2.913  24.906  0.00  0.00    +0.000 C 
ATOM     28  C   UNL     1       5.513  -2.137  24.496  0.00  0.00    +0.004 C 
ENDBRANCH  23  24
BRANCH  23  29
ATOM     29  C   UNL     1       6.861   1.255  25.147  0.00  0.00    +0.221 C 
ATOM     30  N   UNL     1       6.195   1.516  23.981  0.00  0.00    -0.306 N 
ATOM     31  H   UNL     1       5.949   0.754  23.364  0.00  0.00    +0.149 HD
ATOM     32  O   UNL     1       7.419   2.150  25.782  0.00  0.00    -0.275 OA
BRANCH  30  33
ATOM     33  CA  UNL     1       5.926   2.870  23.520  0.00  0.00    +0.128 C 
BRANCH  33  34
ATOM     34  C   UNL     1       4.422   3.069  23.533  0.00  0.00    -0.025 A 
ATOM     35  C   UNL     1       3.674   3.080  24.719  0.00  0.00    +0.005 A 
ATOM     36  C   UNL     1       2.301   3.333  24.694  0.00  0.00    +0.000 A 
ATOM     37  C   UNL     1       1.658   3.593  23.485  0.00  0.00    +0.000 A 
ATOM     38  C   UNL     1       2.388   3.604  22.300  0.00  0.00    +0.000 A 
ATOM     39  C   UNL     1       3.760   3.349  22.324  0.00  0.00    +0.005 A 
ENDBRANCH  33  34
BRANCH  33  40
ATOM     40  C   UNL     1       6.613   3.143  22.163  0.00  0.00    +0.182 C 
BRANCH  40  41
ATOM     41  O   UNL     1       7.402   2.044  21.701  0.00  0.00    -0.393 OA
ATOM     42  H   UNL     1       6.803   1.307  21.457  0.00  0.00    +0.209 HD
ENDBRANCH  40  41
ENDBRANCH  33  40
ENDBRANCH  30  33
ENDBRANCH  23  29
ENDBRANCH   5  23
TORSDOF 9
ENDMDL
MODEL 7
REMARK VINA RESULT:      -7.5      2.718      9.260
REMARK  Name = 
REMARK  11 active torsions:
REMARK  status: ('A' for Active; 'I' for Inactive)
REMARK    1  A    between atoms: C_1  and  C_2
REMARK    2  A    between atoms: N_12  and  C_13
REMARK    3  A    between atoms: C_13  and  C_14
REMARK    4  A    between atoms: C_16  and  C_20
REMARK    5  A    between atoms: C_20  and  C_22
REMARK    6  A    between atoms: C_20  and  C_27
REMARK    7  A    between atoms: N_29  and  CA_30
REMARK    8  A    between atoms: CA_30  and  C_32
REMARK    9  A    between atoms: CA_30  and  C_34
REMARK   10  A    between atoms: C_32  and  O_33
REMARK   11  A    between atoms: C_40  and  C_41
REMARK                            x       y       z     vdW  Elec       q    Type
REMARK                         _______ _______ _______ _____ _____    ______ ____
ROOT
ATOM      1  C   UNL     1       6.837   1.323  25.741  0.00  0.00    -0.027 A 
ATOM      2  C   UNL     1       5.705   0.730  25.167  0.00  0.00    +0.005 A 
ATOM      3  C   UNL     1       5.819  -0.493  24.481  0.00  0.00    +0.001 A 
ATOM      4  C   UNL     1       7.066  -1.088  24.291  0.00  0.00    +0.004 A 
ATOM      5  C   UNL     1       8.205  -0.494  24.841  0.00  0.00    -0.035 A 
ATOM      6  C   UNL     1       8.052   0.640  25.655  0.00  0.00    +0.009 A 
ENDROOT
BRANCH   1   7
ATOM      7  C   UNL     1       6.886   2.759  26.216  0.00  0.00    +0.159 C 
BRANCH   7  16
ATOM      8  C   UNL     1      10.756   5.985  24.440  0.00  0.00    +0.065 C 
ATOM      9  C   UNL     1       9.316   5.681  24.123  0.00  0.00    +0.041 A 
ATOM     10  C   UNL     1       8.729   6.351  23.056  0.00  0.00    +0.027 A 
ATOM     11  C   UNL     1       7.371   6.170  22.756  0.00  0.00    -0.038 A 
ATOM     12  C   UNL     1       6.815   6.964  21.607  0.00  0.00    +0.044 C 
ATOM     13  C   UNL     1       6.655   5.270  23.585  0.00  0.00    +0.030 A 
ATOM     14  C   UNL     1       5.298   4.805  23.668  0.00  0.00    +0.009 A 
ATOM     15  C   UNL     1       5.233   3.852  24.689  0.00  0.00    +0.052 A 
ATOM     16  N   UNL     1       6.492   3.777  25.256  0.00  0.00    -0.320 N 
ATOM     17  C   UNL     1       4.049   3.150  24.984  0.00  0.00    +0.026 A 
ATOM     18  C   UNL     1       2.895   3.457  24.263  0.00  0.00    +0.002 A 
ATOM     19  C   UNL     1       2.924   4.414  23.258  0.00  0.00    +0.001 A 
ATOM     20  C   UNL     1       4.111   5.079  22.947  0.00  0.00    +0.010 A 
ATOM     21  C   UNL     1       7.365   4.622  24.601  0.00  0.00    +0.143 A 
ATOM     22  N   UNL     1       8.677   4.772  24.898  0.00  0.00    -0.234 NA
ENDBRANCH   7  16
ENDBRANCH   1   7
BRANCH   5  23
ATOM     23  C   UNL     1       9.629  -0.859  24.456  0.00  0.00    +0.108 C 
BRANCH  23  24
ATOM     24  C   UNL     1      10.285   0.103  23.428  0.00  0.00    +0.005 C 
ATOM     25  C   UNL     1      10.812   1.382  24.110  0.00  0.00    +0.004 C 
ATOM     26  C   UNL     1      10.566   2.535  23.139  0.00  0.00    +0.000 C 
ATOM     27  C   UNL     1      10.043   1.903  21.861  0.00  0.00    +0.000 C 
ATOM     28  C   UNL     1       9.352   0.635  22.333  0.00  0.00    +0.004 C 
ENDBRANCH  23  24
BRANCH  23  29
ATOM     29  C   UNL     1       9.817  -2.335  24.111  0.00  0.00    +0.221 C 
ATOM     30  N   UNL     1       9.149  -3.229  24.901  0.00  0.00    -0.306 N 
ATOM     31  H   UNL     1       8.778  -2.930  25.792  0.00  0.00    +0.149 HD
ATOM     32  O   UNL     1      10.516  -2.707  23.169  0.00  0.00    -0.275 OA
BRANCH  30  33
ATOM     33  CA  UNL     1       9.048  -4.642  24.569  0.00  0.00    +0.128 C 
BRANCH  33  34
ATOM     34  C   UNL     1       7.655  -4.887  24.021  0.00  0.00    -0.025 A 
ATOM     35  C   UNL     1       6.498  -4.673  24.784  0.00  0.00    +0.005 A 
ATOM     36  C   UNL     1       5.231  -4.845  24.222  0.00  0.00    +0.000 A 
ATOM     37  C   UNL     1       5.102  -5.219  22.886  0.00  0.00    +0.000 A 
ATOM     38  C   UNL     1       6.239  -5.419  22.109  0.00  0.00    +0.000 A 
ATOM     39  C   UNL     1       7.506  -5.249  22.671  0.00  0.00    +0.005 A 
ENDBRANCH  33  34
BRANCH  33  40
ATOM     40  C   UNL     1       9.444  -5.527  25.774  0.00  0.00    +0.182 C 
BRANCH  40  41
ATOM     41  O   UNL     1       9.301  -4.860  27.031  0.00  0.00    -0.393 OA
ATOM     42  H   UNL     1       8.379  -4.973  27.345  0.00  0.00    +0.209 HD
ENDBRANCH  40  41
ENDBRANCH  33  40
ENDBRANCH  30  33
ENDBRANCH  23  29
ENDBRANCH   5  23
TORSDOF 9
ENDMDL
MODEL 8
REMARK VINA RESULT:      -7.5      2.984      9.144
REMARK  Name = 
REMARK  11 active torsions:
REMARK  status: ('A' for Active; 'I' for Inactive)
REMARK    1  A    between atoms: C_1  and  C_2
REMARK    2  A    between atoms: N_12  and  C_13
REMARK    3  A    between atoms: C_13  and  C_14
REMARK    4  A    between atoms: C_16  and  C_20
REMARK    5  A    between atoms: C_20  and  C_22
REMARK    6  A    between atoms: C_20  and  C_27
REMARK    7  A    between atoms: N_29  and  CA_30
REMARK    8  A    between atoms: CA_30  and  C_32
REMARK    9  A    between atoms: CA_30  and  C_34
REMARK   10  A    between atoms: C_32  and  O_33
REMARK   11  A    between atoms: C_40  and  C_41
REMARK                            x       y       z     vdW  Elec       q    Type
REMARK                         _______ _______ _______ _____ _____    ______ ____
ROOT
ATOM      1  C   UNL     1       7.265  -1.512  26.726  0.00  0.00    -0.027 A 
ATOM      2  C   UNL     1       6.096  -0.941  27.247  0.00  0.00    +0.005 A 
ATOM      3  C   UNL     1       4.916  -1.702  27.333  0.00  0.00    +0.001 A 
ATOM      4  C   UNL     1       4.869  -3.001  26.827  0.00  0.00    +0.004 A 
ATOM      5  C   UNL     1       6.024  -3.574  26.286  0.00  0.00    -0.035 A 
ATOM      6  C   UNL     1       7.230  -2.857  26.352  0.00  0.00    +0.009 A 
ENDROOT
BRANCH   1   7
ATOM      7  C   UNL     1       8.478  -0.712  26.303  0.00  0.00    +0.159 C 
BRANCH   7  16
ATOM      8  C   UNL     1       6.746   4.220  27.407  0.00  0.00    +0.065 C 
ATOM      9  C   UNL     1       7.292   3.461  26.227  0.00  0.00    +0.041 A 
ATOM     10  C   UNL     1       7.473   4.153  25.035  0.00  0.00    +0.027 A 
ATOM     11  C   UNL     1       7.906   3.487  23.878  0.00  0.00    -0.038 A 
ATOM     12  C   UNL     1       8.037   4.310  22.628  0.00  0.00    +0.044 C 
ATOM     13  C   UNL     1       8.154   2.098  24.004  0.00  0.00    +0.030 A 
ATOM     14  C   UNL     1       8.573   1.043  23.123  0.00  0.00    +0.009 A 
ATOM     15  C   UNL     1       8.694  -0.126  23.880  0.00  0.00    +0.052 A 
ATOM     16  N   UNL     1       8.304   0.183  25.171  0.00  0.00    -0.320 N 
ATOM     17  C   UNL     1       9.154  -1.335  23.323  0.00  0.00    +0.026 A 
ATOM     18  C   UNL     1       9.449  -1.371  21.961  0.00  0.00    +0.002 A 
ATOM     19  C   UNL     1       9.318  -0.232  21.179  0.00  0.00    +0.001 A 
ATOM     20  C   UNL     1       8.896   0.971  21.747  0.00  0.00    +0.010 A 
ATOM     21  C   UNL     1       7.980   1.521  25.266  0.00  0.00    +0.143 A 
ATOM     22  N   UNL     1       7.576   2.146  26.397  0.00  0.00    -0.234 NA
ENDBRANCH   7  16
ENDBRANCH   1   7
BRANCH   5  23
ATOM     23  C   UNL     1       6.035  -4.835  25.438  0.00  0.00    +0.108 C 
BRANCH  23  24
ATOM     24  C   UNL     1       5.767  -4.597  23.927  0.00  0.00    +0.005 C 
ATOM     25  C   UNL     1       6.892  -5.192  23.055  0.00  0.00    +0.004 C 
ATOM     26  C   UNL     1       7.096  -4.237  21.882  0.00  0.00    +0.000 C 
ATOM     27  C   UNL     1       6.004  -3.187  22.000  0.00  0.00    +0.000 C 
ATOM     28  C   UNL     1       5.711  -3.127  23.490  0.00  0.00    +0.004 C 
ENDBRANCH  23  24
BRANCH  23  29
ATOM     29  C   UNL     1       5.216  -5.982  26.025  0.00  0.00    +0.221 C 
ATOM     30  N   UNL     1       3.937  -6.112  25.558  0.00  0.00    -0.306 N 
ATOM     31  H   UNL     1       3.506  -5.346  25.061  0.00  0.00    +0.149 HD
ATOM     32  O   UNL     1       5.677  -6.759  26.862  0.00  0.00    -0.275 OA
BRANCH  30  33
ATOM     33  CA  UNL     1       3.113  -7.275  25.851  0.00  0.00    +0.128 C 
BRANCH  33  34
ATOM     34  C   UNL     1       2.258  -7.552  24.628  0.00  0.00    -0.025 A 
ATOM     35  C   UNL     1       2.256  -6.710  23.506  0.00  0.00    +0.005 A 
ATOM     36  C   UNL     1       1.507  -7.036  22.373  0.00  0.00    +0.000 A 
ATOM     37  C   UNL     1       0.761  -8.213  22.340  0.00  0.00    +0.000 A 
ATOM     38  C   UNL     1       0.766  -9.068  23.438  0.00  0.00    +0.000 A 
ATOM     39  C   UNL     1       1.513  -8.743  24.572  0.00  0.00    +0.005 A 
ENDBRANCH  33  34
BRANCH  33  40
ATOM     40  C   UNL     1       2.329  -7.083  27.170  0.00  0.00    +0.182 C 
BRANCH  40  41
ATOM     41  O   UNL     1       3.064  -7.494  28.325  0.00  0.00    -0.393 OA
ATOM     42  H   UNL     1       3.589  -8.291  28.098  0.00  0.00    +0.209 HD
ENDBRANCH  40  41
ENDBRANCH  33  40
ENDBRANCH  30  33
ENDBRANCH  23  29
ENDBRANCH   5  23
TORSDOF 9
ENDMDL
MODEL 9
REMARK VINA RESULT:      -7.5      2.707      9.179
REMARK  Name = 
REMARK  11 active torsions:
REMARK  status: ('A' for Active; 'I' for Inactive)
REMARK    1  A    between atoms: C_1  and  C_2
REMARK    2  A    between atoms: N_12  and  C_13
REMARK    3  A    between atoms: C_13  and  C_14
REMARK    4  A    between atoms: C_16  and  C_20
REMARK    5  A    between atoms: C_20  and  C_22
REMARK    6  A    between atoms: C_20  and  C_27
REMARK    7  A    between atoms: N_29  and  CA_30
REMARK    8  A    between atoms: CA_30  and  C_32
REMARK    9  A    between atoms: CA_30  and  C_34
REMARK   10  A    between atoms: C_32  and  O_33
REMARK   11  A    between atoms: C_40  and  C_41
REMARK                            x       y       z     vdW  Elec       q    Type
REMARK                         _______ _______ _______ _____ _____    ______ ____
ROOT
ATOM      1  C   UNL     1       6.726   1.245  25.803  0.00  0.00    -0.027 A 
ATOM      2  C   UNL     1       5.571   0.569  25.388  0.00  0.00    +0.005 A 
ATOM      3  C   UNL     1       5.674  -0.692  24.772  0.00  0.00    +0.001 A 
ATOM      4  C   UNL     1       6.923  -1.247  24.492  0.00  0.00    +0.004 A 
ATOM      5  C   UNL     1       8.082  -0.571  24.883  0.00  0.00    -0.035 A 
ATOM      6  C   UNL     1       7.958   0.608  25.635  0.00  0.00    +0.009 A 
ENDROOT
BRANCH   1   7
ATOM      7  C   UNL     1       6.755   2.710  26.180  0.00  0.00    +0.159 C 
BRANCH   7  16
ATOM      8  C   UNL     1       1.791   3.305  24.298  0.00  0.00    +0.065 C 
ATOM      9  C   UNL     1       3.133   3.971  24.151  0.00  0.00    +0.041 A 
ATOM     10  C   UNL     1       3.216   5.098  23.342  0.00  0.00    +0.027 A 
ATOM     11  C   UNL     1       4.450   5.719  23.102  0.00  0.00    -0.038 A 
ATOM     12  C   UNL     1       4.446   6.909  22.184  0.00  0.00    +0.044 C 
ATOM     13  C   UNL     1       5.580   5.145  23.735  0.00  0.00    +0.030 A 
ATOM     14  C   UNL     1       6.991   5.414  23.764  0.00  0.00    +0.009 A 
ATOM     15  C   UNL     1       7.584   4.505  24.645  0.00  0.00    +0.052 A 
ATOM     16  N   UNL     1       6.582   3.664  25.097  0.00  0.00    -0.320 N 
ATOM     17  C   UNL     1       8.957   4.544  24.951  0.00  0.00    +0.026 A 
ATOM     18  C   UNL     1       9.755   5.493  24.313  0.00  0.00    +0.002 A 
ATOM     19  C   UNL     1       9.199   6.395  23.416  0.00  0.00    +0.001 A 
ATOM     20  C   UNL     1       7.830   6.373  23.147  0.00  0.00    +0.010 A 
ATOM     21  C   UNL     1       5.366   4.038  24.562  0.00  0.00    +0.143 A 
ATOM     22  N   UNL     1       4.183   3.431  24.817  0.00  0.00    -0.234 NA
ENDBRANCH   7  16
ENDBRANCH   1   7
BRANCH   5  23
ATOM     23  C   UNL     1       9.476  -0.903  24.377  0.00  0.00    +0.108 C 
BRANCH  23  24
ATOM     24  C   UNL     1       9.984   0.022  23.238  0.00  0.00    +0.005 C 
ATOM     25  C   UNL     1      10.714   1.259  23.800  0.00  0.00    +0.004 C 
ATOM     26  C   UNL     1      10.363   2.432  22.888  0.00  0.00    +0.000 C 
ATOM     27  C   UNL     1       9.565   1.846  21.736  0.00  0.00    +0.000 C 
ATOM     28  C   UNL     1       8.895   0.622  22.339  0.00  0.00    +0.004 C 
ENDBRANCH  23  24
BRANCH  23  29
ATOM     29  C   UNL     1       9.694  -2.388  24.095  0.00  0.00    +0.221 C 
ATOM     30  N   UNL     1       9.011  -3.261  24.898  0.00  0.00    -0.306 N 
ATOM     31  H   UNL     1       8.608  -2.933  25.764  0.00  0.00    +0.149 HD
ATOM     32  O   UNL     1      10.428  -2.786  23.191  0.00  0.00    -0.275 OA
BRANCH  30  33
ATOM     33  CA  UNL     1       8.940  -4.687  24.617  0.00  0.00    +0.128 C 
BRANCH  33  34
ATOM     34  C   UNL     1       7.587  -4.964  23.987  0.00  0.00    -0.025 A 
ATOM     35  C   UNL     1       7.447  -5.346  22.645  0.00  0.00    +0.005 A 
ATOM     36  C   UNL     1       6.190  -5.657  22.121  0.00  0.00    +0.000 A 
ATOM     37  C   UNL     1       5.060  -5.606  22.933  0.00  0.00    +0.000 A 
ATOM     38  C   UNL     1       5.183  -5.247  24.272  0.00  0.00    +0.000 A 
ATOM     39  C   UNL     1       6.438  -4.934  24.797  0.00  0.00    +0.005 A 
ENDBRANCH  33  34
BRANCH  33  40
ATOM     40  C   UNL     1       9.258  -5.519  25.880  0.00  0.00    +0.182 C 
BRANCH  40  41
ATOM     41  O   UNL     1       9.240  -4.745  27.083  0.00  0.00    -0.393 OA
ATOM     42  H   UNL     1       8.307  -4.567  27.328  0.00  0.00    +0.209 HD
ENDBRANCH  40  41
ENDBRANCH  33  40
ENDBRANCH  30  33
ENDBRANCH  23  29
ENDBRANCH   5  23
TORSDOF 9
ENDMDL
