MODEL 1
REMARK VINA RESULT:      -7.9      0.000      0.000
REMARK  Name = 
REMARK  8 active torsions:
REMARK  status: ('A' for Active; 'I' for Inactive)
REMARK    1  A    between atoms: C_1  and  N_2
REMARK    2  A    between atoms: C_3  and  C_5
REMARK    3  A    between atoms: C_8  and  N_16
REMARK    4  A    between atoms: C_10  and  O_12
REMARK    5  A    between atoms: C_13  and  O_15
REMARK    6  A    between atoms: C_20  and  N_21
REMARK    7  A    between atoms: N_21  and  C_22
REMARK    8  A    between atoms: C_22  and  C_23
REMARK                            x       y       z     vdW  Elec       q    Type
REMARK                         _______ _______ _______ _____ _____    ______ ____
ROOT
ATOM      1  N   UNL     1       7.487  -1.967  23.841  0.00  0.00    -0.285 N 
ATOM      2  C   UNL     1       8.088  -1.081  22.984  0.00  0.00    +0.167 A 
ATOM      3  C   UNL     1       7.408   0.112  23.173  0.00  0.00    +0.147 A 
ATOM      4  C   UNL     1       7.850   1.237  22.446  0.00  0.00    +0.150 A 
ATOM      5  N   UNL     1       8.874   1.049  21.573  0.00  0.00    -0.219 NA
ATOM      6  C   UNL     1       9.440  -0.177  21.484  0.00  0.00    +0.225 A 
ATOM      7  N   UNL     1       6.392  -0.045  24.092  0.00  0.00    -0.231 NA
ATOM      8  N   UNL     1       9.132  -1.306  22.165  0.00  0.00    -0.216 NA
ATOM      9  C   UNL     1       6.459  -1.307  24.459  0.00  0.00    +0.203 A 
ENDROOT
BRANCH   1  13
ATOM     10  C   UNL     1       7.524  -5.128  25.460  0.00  0.00    +0.237 C 
ATOM     11  C   UNL     1       8.945  -4.673  25.779  0.00  0.00    +0.185 C 
ATOM     12  C   UNL     1       9.187  -3.467  24.874  0.00  0.00    +0.196 C 
ATOM     13  C   UNL     1       7.900  -3.344  24.051  0.00  0.00    +0.254 C 
ATOM     14  O   UNL     1       6.884  -4.047  24.777  0.00  0.00    -0.339 OA
BRANCH  10  18
ATOM     15  C   UNL     1       4.896  -6.849  27.615  0.00  0.00    +0.128 C 
ATOM     16  N   UNL     1       5.691  -6.349  26.524  0.00  0.00    -0.316 N 
ATOM     17  H   UNL     1       5.484  -6.659  25.578  0.00  0.00    +0.148 HD
ATOM     18  C   UNL     1       6.806  -5.562  26.747  0.00  0.00    +0.244 C 
ATOM     19  O   UNL     1       7.177  -5.231  27.869  0.00  0.00    -0.273 OA
ENDBRANCH  10  18
BRANCH  11  20
ATOM     20  O   UNL     1       9.880  -5.732  25.562  0.00  0.00    -0.386 OA
ATOM     21  H   UNL     1       9.375  -6.562  25.703  0.00  0.00    +0.210 HD
ENDBRANCH  11  20
BRANCH  12  22
ATOM     22  O   UNL     1      10.360  -3.659  24.075  0.00  0.00    -0.385 OA
ATOM     23  H   UNL     1      11.123  -3.668  24.694  0.00  0.00    +0.210 HD
ENDBRANCH  12  22
ENDBRANCH   1  13
BRANCH   4  24
ATOM     24  N   UNL     1       7.308   2.498  22.675  0.00  0.00    -0.323 N 
ATOM     25  H   UNL     1       7.538   3.141  21.921  0.00  0.00    +0.148 HD
BRANCH  24  26
ATOM     26  C   UNL     1       7.388   3.060  24.008  0.00  0.00    +0.138 C 
BRANCH  26  27
ATOM     27  C   UNL     1       8.265   4.295  23.981  0.00  0.00    -0.029 A 
ATOM     28  C   UNL     1       7.719   5.546  24.314  0.00  0.00    +0.005 A 
ATOM     29  C   UNL     1       8.516   6.692  24.345  0.00  0.00    +0.001 A 
ATOM     30  C   UNL     1       9.874   6.605  24.049  0.00  0.00    +0.014 A 
ATOM     31  C   UNL     1      10.427   5.370  23.712  0.00  0.00    +0.014 A 
ATOM     32  I   UNL     1      12.461   5.241  23.285  0.00  0.00    -0.044 I 
ATOM     33  C   UNL     1       9.633   4.218  23.672  0.00  0.00    +0.019 A 
ENDBRANCH  26  27
ENDBRANCH  24  26
ENDBRANCH   4  24
TORSDOF 7
ENDMDL
MODEL 2
REMARK VINA RESULT:      -7.9      2.086      3.157
REMARK  Name = 
REMARK  8 active torsions:
REMARK  status: ('A' for Active; 'I' for Inactive)
REMARK    1  A    between atoms: C_1  and  N_2
REMARK    2  A    between atoms: C_3  and  C_5
REMARK    3  A    between atoms: C_8  and  N_16
REMARK    4  A    between atoms: C_10  and  O_12
REMARK    5  A    between atoms: C_13  and  O_15
REMARK    6  A    between atoms: C_20  and  N_21
REMARK    7  A    between atoms: N_21  and  C_22
REMARK    8  A    between atoms: C_22  and  C_23
REMARK                            x       y       z     vdW  Elec       q    Type
REMARK                         _______ _______ _______ _____ _____    ______ ____
ROOT
ATOM      1  N   UNL     1       6.991  -3.983  24.427  0.00  0.00    -0.285 N 
ATOM      2  C   UNL     1       8.100  -3.301  23.998  0.00  0.00    +0.167 A 
ATOM      3  C   UNL     1       7.603  -2.262  23.227  0.00  0.00    +0.147 A 
ATOM      4  C   UNL     1       8.530  -1.349  22.686  0.00  0.00    +0.150 A 
ATOM      5  N   UNL     1       9.848  -1.591  22.917  0.00  0.00    -0.219 NA
ATOM      6  C   UNL     1      10.192  -2.652  23.683  0.00  0.00    +0.225 A 
ATOM      7  N   UNL     1       6.227  -2.326  23.151  0.00  0.00    -0.231 NA
ATOM      8  N   UNL     1       9.389  -3.557  24.290  0.00  0.00    -0.216 NA
ATOM      9  C   UNL     1       5.896  -3.379  23.868  0.00  0.00    +0.203 A 
ENDROOT
BRANCH   1  13
ATOM     10  C   UNL     1       5.600  -6.328  26.702  0.00  0.00    +0.237 C 
ATOM     11  C   UNL     1       6.540  -5.594  27.653  0.00  0.00    +0.185 C 
ATOM     12  C   UNL     1       7.449  -4.764  26.748  0.00  0.00    +0.196 C 
ATOM     13  C   UNL     1       7.002  -5.124  25.326  0.00  0.00    +0.254 C 
ATOM     14  O   UNL     1       5.678  -5.661  25.441  0.00  0.00    -0.339 OA
BRANCH  10  18
ATOM     15  C   UNL     1       2.836  -7.272  29.149  0.00  0.00    +0.128 C 
ATOM     16  N   UNL     1       4.089  -7.120  28.456  0.00  0.00    -0.316 N 
ATOM     17  H   UNL     1       4.938  -7.485  28.880  0.00  0.00    +0.148 HD
ATOM     18  C   UNL     1       4.183  -6.376  27.293  0.00  0.00    +0.244 C 
ATOM     19  O   UNL     1       3.219  -5.819  26.777  0.00  0.00    -0.273 OA
ENDBRANCH  10  18
BRANCH  11  20
ATOM     20  O   UNL     1       7.261  -6.518  28.472  0.00  0.00    -0.386 OA
ATOM     21  H   UNL     1       6.902  -6.400  29.378  0.00  0.00    +0.210 HD
ENDBRANCH  11  20
BRANCH  12  22
ATOM     22  O   UNL     1       8.827  -5.058  27.004  0.00  0.00    -0.385 OA
ATOM     23  H   UNL     1       8.997  -4.812  27.940  0.00  0.00    +0.210 HD
ENDBRANCH  12  22
ENDBRANCH   1  13
BRANCH   4  24
ATOM     24  N   UNL     1       8.105  -0.207  22.012  0.00  0.00    -0.323 N 
ATOM     25  H   UNL     1       7.319  -0.412  21.399  0.00  0.00    +0.148 HD
BRANCH  24  26
ATOM     26  C   UNL     1       9.100   0.687  21.459  0.00  0.00    +0.138 C 
BRANCH  26  27
ATOM     27  C   UNL     1       9.119   1.974  22.259  0.00  0.00    -0.029 A 
ATOM     28  C   UNL     1      10.285   2.353  22.945  0.00  0.00    +0.005 A 
ATOM     29  C   UNL     1      10.346   3.557  23.649  0.00  0.00    +0.001 A 
ATOM     30  C   UNL     1       9.242   4.406  23.673  0.00  0.00    +0.014 A 
ATOM     31  C   UNL     1       8.077   4.040  23.000  0.00  0.00    +0.014 A 
ATOM     32  I   UNL     1       6.434   5.319  23.026  0.00  0.00    -0.044 I 
ATOM     33  C   UNL     1       8.007   2.831  22.299  0.00  0.00    +0.019 A 
ENDBRANCH  26  27
ENDBRANCH  24  26
ENDBRANCH   4  24
TORSDOF 7
ENDMDL
MODEL 3
REMARK VINA RESULT:      -7.8      2.762      4.196
REMARK  Name = 
REMARK  8 active torsions:
REMARK  status: ('A' for Active; 'I' for Inactive)
REMARK    1  A    between atoms: C_1  and  N_2
REMARK    2  A    between atoms: C_3  and  C_5
REMARK    3  A    between atoms: C_8  and  N_16
REMARK    4  A    between atoms: C_10  and  O_12
REMARK    5  A    between atoms: C_13  and  O_15
REMARK    6  A    between atoms: C_20  and  N_21
REMARK    7  A    between atoms: N_21  and  C_22
REMARK    8  A    between atoms: C_22  and  C_23
REMARK                            x       y       z     vdW  Elec       q    Type
REMARK                         _______ _______ _______ _____ _____    ______ ____
ROOT
ATOM      1  N   UNL     1       6.028  -3.769  23.458  0.00  0.00    -0.285 N 
ATOM      2  C   UNL     1       7.322  -3.923  23.882  0.00  0.00    +0.167 A 
ATOM      3  C   UNL     1       8.001  -2.835  23.353  0.00  0.00    +0.147 A 
ATOM      4  C   UNL     1       9.367  -2.700  23.673  0.00  0.00    +0.150 A 
ATOM      5  N   UNL     1       9.928  -3.679  24.431  0.00  0.00    -0.219 NA
ATOM      6  C   UNL     1       9.146  -4.692  24.873  0.00  0.00    +0.225 A 
ATOM      7  N   UNL     1       7.155  -2.056  22.592  0.00  0.00    -0.231 NA
ATOM      8  N   UNL     1       7.822  -4.892  24.671  0.00  0.00    -0.216 NA
ATOM      9  C   UNL     1       5.985  -2.655  22.664  0.00  0.00    +0.203 A 
ENDROOT
BRANCH   1  13
ATOM     10  C   UNL     1       4.166  -5.950  25.554  0.00  0.00    +0.237 C 
ATOM     11  C   UNL     1       4.561  -6.938  24.462  0.00  0.00    +0.185 C 
ATOM     12  C   UNL     1       5.095  -6.075  23.320  0.00  0.00    +0.196 C 
ATOM     13  C   UNL     1       4.918  -4.636  23.817  0.00  0.00    +0.254 C 
ATOM     14  O   UNL     1       4.805  -4.709  25.244  0.00  0.00    -0.339 OA
BRANCH  10  18
ATOM     15  C   UNL     1       3.636  -7.076  29.155  0.00  0.00    +0.128 C 
ATOM     16  N   UNL     1       3.473  -6.573  27.816  0.00  0.00    -0.316 N 
ATOM     17  H   UNL     1       2.539  -6.349  27.481  0.00  0.00    +0.148 HD
ATOM     18  C   UNL     1       4.537  -6.511  26.935  0.00  0.00    +0.244 C 
ATOM     19  O   UNL     1       5.674  -6.861  27.236  0.00  0.00    -0.273 OA
ENDBRANCH  10  18
BRANCH  11  20
ATOM     20  O   UNL     1       3.444  -7.744  24.077  0.00  0.00    -0.386 OA
ATOM     21  H   UNL     1       3.477  -8.534  24.660  0.00  0.00    +0.210 HD
ENDBRANCH  11  20
BRANCH  12  22
ATOM     22  O   UNL     1       4.392  -6.349  22.103  0.00  0.00    -0.385 OA
ATOM     23  H   UNL     1       3.561  -5.826  22.136  0.00  0.00    +0.210 HD
ENDBRANCH  12  22
ENDBRANCH   1  13
BRANCH   4  24
ATOM     24  N   UNL     1      10.086  -1.571  23.292  0.00  0.00    -0.323 N 
ATOM     25  H   UNL     1      10.932  -1.825  22.787  0.00  0.00    +0.148 HD
BRANCH  24  26
ATOM     26  C   UNL     1      10.238  -0.488  24.241  0.00  0.00    +0.138 C 
BRANCH  26  27
ATOM     27  C   UNL     1       9.595   0.765  23.682  0.00  0.00    -0.029 A 
ATOM     28  C   UNL     1       9.321   0.856  22.307  0.00  0.00    +0.005 A 
ATOM     29  C   UNL     1       8.686   1.979  21.774  0.00  0.00    +0.001 A 
ATOM     30  C   UNL     1       8.308   3.028  22.609  0.00  0.00    +0.014 A 
ATOM     31  C   UNL     1       8.579   2.952  23.974  0.00  0.00    +0.014 A 
ATOM     32  I   UNL     1       7.999   4.516  25.221  0.00  0.00    -0.044 I 
ATOM     33  C   UNL     1       9.222   1.833  24.515  0.00  0.00    +0.019 A 
ENDBRANCH  26  27
ENDBRANCH  24  26
ENDBRANCH   4  24
TORSDOF 7
ENDMDL
MODEL 4
REMARK VINA RESULT:      -7.7      2.521      3.965
REMARK  Name = 
REMARK  8 active torsions:
REMARK  status: ('A' for Active; 'I' for Inactive)
REMARK    1  A    between atoms: C_1  and  N_2
REMARK    2  A    between atoms: C_3  and  C_5
REMARK    3  A    between atoms: C_8  and  N_16
REMARK    4  A    between atoms: C_10  and  O_12
REMARK    5  A    between atoms: C_13  and  O_15
REMARK    6  A    between atoms: C_20  and  N_21
REMARK    7  A    between atoms: N_21  and  C_22
REMARK    8  A    between atoms: C_22  and  C_23
REMARK                            x       y       z     vdW  Elec       q    Type
REMARK                         _______ _______ _______ _____ _____    ______ ____
ROOT
ATOM      1  N   UNL     1       6.531  -4.647  23.679  0.00  0.00    -0.285 N 
ATOM      2  C   UNL     1       7.712  -3.949  23.679  0.00  0.00    +0.167 A 
ATOM      3  C   UNL     1       7.498  -2.890  22.809  0.00  0.00    +0.147 A 
ATOM      4  C   UNL     1       8.543  -1.958  22.647  0.00  0.00    +0.150 A 
ATOM      5  N   UNL     1       9.702  -2.202  23.315  0.00  0.00    -0.219 NA
ATOM      6  C   UNL     1       9.774  -3.282  24.126  0.00  0.00    +0.225 A 
ATOM      7  N   UNL     1       6.235  -2.958  22.259  0.00  0.00    -0.231 NA
ATOM      8  N   UNL     1       8.822  -4.208  24.394  0.00  0.00    -0.216 NA
ATOM      9  C   UNL     1       5.690  -4.032  22.790  0.00  0.00    +0.203 A 
ENDROOT
BRANCH   1  13
ATOM     10  C   UNL     1       4.479  -7.118  25.193  0.00  0.00    +0.237 C 
ATOM     11  C   UNL     1       4.927  -6.372  26.446  0.00  0.00    +0.185 C 
ATOM     12  C   UNL     1       6.075  -5.477  25.983  0.00  0.00    +0.196 C 
ATOM     13  C   UNL     1       6.245  -5.812  24.497  0.00  0.00    +0.254 C 
ATOM     14  O   UNL     1       5.014  -6.411  24.072  0.00  0.00    -0.339 OA
BRANCH  10  18
ATOM     15  C   UNL     1       0.992  -7.879  26.527  0.00  0.00    +0.128 C 
ATOM     16  N   UNL     1       2.412  -7.701  26.364  0.00  0.00    -0.316 N 
ATOM     17  H   UNL     1       3.022  -7.821  27.169  0.00  0.00    +0.148 HD
ATOM     18  C   UNL     1       2.948  -7.245  25.174  0.00  0.00    +0.244 C 
ATOM     19  O   UNL     1       2.263  -6.981  24.190  0.00  0.00    -0.273 OA
ENDBRANCH  10  18
BRANCH  11  20
ATOM     20  O   UNL     1       5.312  -7.288  27.474  0.00  0.00    -0.386 OA
ATOM     21  H   UNL     1       5.973  -7.884  27.060  0.00  0.00    +0.210 HD
ENDBRANCH  11  20
BRANCH  12  22
ATOM     22  O   UNL     1       7.253  -5.718  26.762  0.00  0.00    -0.385 OA
ATOM     23  H   UNL     1       7.181  -5.151  27.561  0.00  0.00    +0.210 HD
ENDBRANCH  12  22
ENDBRANCH   1  13
BRANCH   4  24
ATOM     24  N   UNL     1       8.363  -0.800  21.897  0.00  0.00    -0.323 N 
ATOM     25  H   UNL     1       7.692  -0.948  21.146  0.00  0.00    +0.148 HD
BRANCH  24  26
ATOM     26  C   UNL     1       9.524  -0.014  21.537  0.00  0.00    +0.138 C 
BRANCH  26  27
ATOM     27  C   UNL     1       9.503   1.293  22.303  0.00  0.00    -0.029 A 
ATOM     28  C   UNL     1      10.596   1.647  23.112  0.00  0.00    +0.005 A 
ATOM     29  C   UNL     1      10.624   2.866  23.790  0.00  0.00    +0.001 A 
ATOM     30  C   UNL     1       9.561   3.758  23.665  0.00  0.00    +0.014 A 
ATOM     31  C   UNL     1       8.468   3.417  22.869  0.00  0.00    +0.014 A 
ATOM     32  I   UNL     1       6.887   4.758  22.672  0.00  0.00    -0.044 I 
ATOM     33  C   UNL     1       8.430   2.192  22.193  0.00  0.00    +0.019 A 
ENDBRANCH  26  27
ENDBRANCH  24  26
ENDBRANCH   4  24
TORSDOF 7
ENDMDL
MODEL 5
REMARK VINA RESULT:      -7.6      4.450      8.584
REMARK  Name = 
REMARK  8 active torsions:
REMARK  status: ('A' for Active; 'I' for Inactive)
REMARK    1  A    between atoms: C_1  and  N_2
REMARK    2  A    between atoms: C_3  and  C_5
REMARK    3  A    between atoms: C_8  and  N_16
REMARK    4  A    between atoms: C_10  and  O_12
REMARK    5  A    between atoms: C_13  and  O_15
REMARK    6  A    between atoms: C_20  and  N_21
REMARK    7  A    between atoms: N_21  and  C_22
REMARK    8  A    between atoms: C_22  and  C_23
REMARK                            x       y       z     vdW  Elec       q    Type
REMARK                         _______ _______ _______ _____ _____    ______ ____
ROOT
ATOM      1  N   UNL     1       9.610  -0.046  23.616  0.00  0.00    -0.285 N 
ATOM      2  C   UNL     1       8.895  -0.641  24.623  0.00  0.00    +0.167 A 
ATOM      3  C   UNL     1       9.202  -1.990  24.527  0.00  0.00    +0.147 A 
ATOM      4  C   UNL     1       8.639  -2.857  25.486  0.00  0.00    +0.150 A 
ATOM      5  N   UNL     1       7.794  -2.310  26.399  0.00  0.00    -0.219 NA
ATOM      6  C   UNL     1       7.578  -0.974  26.370  0.00  0.00    +0.225 A 
ATOM      7  N   UNL     1      10.050  -2.224  23.465  0.00  0.00    -0.231 NA
ATOM      8  N   UNL     1       8.101  -0.047  25.533  0.00  0.00    -0.216 NA
ATOM      9  C   UNL     1      10.260  -1.038  22.932  0.00  0.00    +0.203 A 
ENDROOT
BRANCH   1  13
ATOM     10  C   UNL     1       9.076   3.396  24.308  0.00  0.00    +0.237 C 
ATOM     11  C   UNL     1       8.129   3.235  23.123  0.00  0.00    +0.185 C 
ATOM     12  C   UNL     1       8.490   1.884  22.509  0.00  0.00    +0.196 C 
ATOM     13  C   UNL     1       9.664   1.382  23.356  0.00  0.00    +0.254 C 
ATOM     14  O   UNL     1       9.609   2.101  24.595  0.00  0.00    -0.339 OA
BRANCH  10  18
ATOM     15  C   UNL     1       6.908   3.557  27.437  0.00  0.00    +0.128 C 
ATOM     16  N   UNL     1       7.655   3.132  26.282  0.00  0.00    -0.316 N 
ATOM     17  H   UNL     1       7.762   2.137  26.099  0.00  0.00    +0.148 HD
ATOM     18  C   UNL     1       8.337   4.039  25.491  0.00  0.00    +0.244 C 
ATOM     19  O   UNL     1       8.339   5.247  25.710  0.00  0.00    -0.273 OA
ENDBRANCH  10  18
BRANCH  11  20
ATOM     20  O   UNL     1       8.273   4.322  22.205  0.00  0.00    -0.386 OA
ATOM     21  H   UNL     1       9.240   4.470  22.123  0.00  0.00    +0.210 HD
ENDBRANCH  11  20
BRANCH  12  22
ATOM     22  O   UNL     1       8.807   2.025  21.119  0.00  0.00    -0.385 OA
ATOM     23  H   UNL     1       8.360   1.285  20.653  0.00  0.00    +0.210 HD
ENDBRANCH  12  22
ENDBRANCH   1  13
BRANCH   4  24
ATOM     24  N   UNL     1       9.000  -4.200  25.539  0.00  0.00    -0.323 N 
ATOM     25  H   UNL     1       9.675  -4.430  24.813  0.00  0.00    +0.148 HD
BRANCH  24  26
ATOM     26  C   UNL     1       7.967  -5.192  25.754  0.00  0.00    +0.138 C 
BRANCH  26  27
ATOM     27  C   UNL     1       7.137  -5.336  24.494  0.00  0.00    -0.029 A 
ATOM     28  C   UNL     1       7.773  -5.407  23.243  0.00  0.00    +0.005 A 
ATOM     29  C   UNL     1       7.037  -5.588  22.072  0.00  0.00    +0.001 A 
ATOM     30  C   UNL     1       5.650  -5.707  22.132  0.00  0.00    +0.014 A 
ATOM     31  C   UNL     1       5.006  -5.633  23.367  0.00  0.00    +0.014 A 
ATOM     32  I   UNL     1       2.935  -5.826  23.454  0.00  0.00    -0.044 I 
ATOM     33  C   UNL     1       5.738  -5.444  24.544  0.00  0.00    +0.019 A 
ENDBRANCH  26  27
ENDBRANCH  24  26
ENDBRANCH   4  24
TORSDOF 7
ENDMDL
MODEL 6
REMARK VINA RESULT:      -7.6      4.497      8.656
REMARK  Name = 
REMARK  8 active torsions:
REMARK  status: ('A' for Active; 'I' for Inactive)
REMARK    1  A    between atoms: C_1  and  N_2
REMARK    2  A    between atoms: C_3  and  C_5
REMARK    3  A    between atoms: C_8  and  N_16
REMARK    4  A    between atoms: C_10  and  O_12
REMARK    5  A    between atoms: C_13  and  O_15
REMARK    6  A    between atoms: C_20  and  N_21
REMARK    7  A    between atoms: N_21  and  C_22
REMARK    8  A    between atoms: C_22  and  C_23
REMARK                            x       y       z     vdW  Elec       q    Type
REMARK                         _______ _______ _______ _____ _____    ______ ____
ROOT
ATOM      1  N   UNL     1       8.153   0.066  23.466  0.00  0.00    -0.285 N 
ATOM      2  C   UNL     1       8.246  -0.678  24.613  0.00  0.00    +0.167 A 
ATOM      3  C   UNL     1       8.582  -1.953  24.184  0.00  0.00    +0.147 A 
ATOM      4  C   UNL     1       8.798  -2.938  25.169  0.00  0.00    +0.150 A 
ATOM      5  N   UNL     1       8.604  -2.573  26.464  0.00  0.00    -0.219 NA
ATOM      6  C   UNL     1       8.267  -1.292  26.739  0.00  0.00    +0.225 A 
ATOM      7  N   UNL     1       8.655  -2.001  22.808  0.00  0.00    -0.231 NA
ATOM      8  N   UNL     1       8.085  -0.260  25.882  0.00  0.00    -0.216 NA
ATOM      9  C   UNL     1       8.375  -0.777  22.410  0.00  0.00    +0.203 A 
ENDROOT
BRANCH   1  13
ATOM     10  C   UNL     1       6.127   2.978  23.286  0.00  0.00    +0.237 C 
ATOM     11  C   UNL     1       6.811   3.072  21.926  0.00  0.00    +0.185 C 
ATOM     12  C   UNL     1       7.956   2.063  21.988  0.00  0.00    +0.196 C 
ATOM     13  C   UNL     1       7.885   1.493  23.409  0.00  0.00    +0.254 C 
ATOM     14  O   UNL     1       6.558   1.754  23.886  0.00  0.00    -0.339 OA
BRANCH  10  18
ATOM     15  C   UNL     1       2.823   3.943  21.653  0.00  0.00    +0.128 C 
ATOM     16  N   UNL     1       4.214   3.751  21.972  0.00  0.00    -0.316 N 
ATOM     17  H   UNL     1       4.920   4.026  21.295  0.00  0.00    +0.148 HD
ATOM     18  C   UNL     1       4.603   3.085  23.120  0.00  0.00    +0.244 C 
ATOM     19  O   UNL     1       3.804   2.634  23.935  0.00  0.00    -0.273 OA
ENDBRANCH  10  18
BRANCH  11  20
ATOM     20  O   UNL     1       7.256   4.406  21.671  0.00  0.00    -0.386 OA
ATOM     21  H   UNL     1       7.858   4.339  20.899  0.00  0.00    +0.210 HD
ENDBRANCH  11  20
BRANCH  12  22
ATOM     22  O   UNL     1       9.206   2.693  21.688  0.00  0.00    -0.385 OA
ATOM     23  H   UNL     1       9.542   2.271  20.867  0.00  0.00    +0.210 HD
ENDBRANCH  12  22
ENDBRANCH   1  13
BRANCH   4  24
ATOM     24  N   UNL     1       9.265  -4.204  24.829  0.00  0.00    -0.323 N 
ATOM     25  H   UNL     1       9.730  -4.194  23.924  0.00  0.00    +0.148 HD
BRANCH  24  26
ATOM     26  C   UNL     1       8.413  -5.349  25.071  0.00  0.00    +0.138 C 
BRANCH  26  27
ATOM     27  C   UNL     1       7.360  -5.432  23.984  0.00  0.00    -0.029 A 
ATOM     28  C   UNL     1       7.748  -5.642  22.650  0.00  0.00    +0.005 A 
ATOM     29  C   UNL     1       6.797  -5.770  21.636  0.00  0.00    +0.001 A 
ATOM     30  C   UNL     1       5.440  -5.697  21.942  0.00  0.00    +0.014 A 
ATOM     31  C   UNL     1       5.042  -5.485  23.261  0.00  0.00    +0.014 A 
ATOM     32  I   UNL     1       3.012  -5.392  23.715  0.00  0.00    -0.044 I 
ATOM     33  C   UNL     1       5.990  -5.347  24.281  0.00  0.00    +0.019 A 
ENDBRANCH  26  27
ENDBRANCH  24  26
ENDBRANCH   4  24
TORSDOF 7
ENDMDL
MODEL 7
REMARK VINA RESULT:      -7.6      4.500      8.806
REMARK  Name = 
REMARK  8 active torsions:
REMARK  status: ('A' for Active; 'I' for Inactive)
REMARK    1  A    between atoms: C_1  and  N_2
REMARK    2  A    between atoms: C_3  and  C_5
REMARK    3  A    between atoms: C_8  and  N_16
REMARK    4  A    between atoms: C_10  and  O_12
REMARK    5  A    between atoms: C_13  and  O_15
REMARK    6  A    between atoms: C_20  and  N_21
REMARK    7  A    between atoms: N_21  and  C_22
REMARK    8  A    between atoms: C_22  and  C_23
REMARK                            x       y       z     vdW  Elec       q    Type
REMARK                         _______ _______ _______ _____ _____    ______ ____
ROOT
ATOM      1  N   UNL     1       8.930   0.972  24.551  0.00  0.00    -0.285 N 
ATOM      2  C   UNL     1       9.436  -0.160  23.966  0.00  0.00    +0.167 A 
ATOM      3  C   UNL     1       9.008  -1.200  24.777  0.00  0.00    +0.147 A 
ATOM      4  C   UNL     1       9.342  -2.513  24.386  0.00  0.00    +0.150 A 
ATOM      5  N   UNL     1      10.107  -2.653  23.270  0.00  0.00    -0.219 NA
ATOM      6  C   UNL     1      10.461  -1.546  22.578  0.00  0.00    +0.225 A 
ATOM      7  N   UNL     1       8.293  -0.718  25.853  0.00  0.00    -0.231 NA
ATOM      8  N   UNL     1      10.156  -0.252  22.832  0.00  0.00    -0.216 NA
ATOM      9  C   UNL     1       8.281   0.589  25.694  0.00  0.00    +0.203 A 
ENDROOT
BRANCH   1  13
ATOM     10  C   UNL     1       8.272   4.457  24.367  0.00  0.00    +0.237 C 
ATOM     11  C   UNL     1       7.643   4.019  23.048  0.00  0.00    +0.185 C 
ATOM     12  C   UNL     1       8.133   2.589  22.832  0.00  0.00    +0.196 C 
ATOM     13  C   UNL     1       9.059   2.319  24.023  0.00  0.00    +0.254 C 
ATOM     14  O   UNL     1       8.707   3.271  25.035  0.00  0.00    -0.339 OA
BRANCH  10  18
ATOM     15  C   UNL     1       5.435   6.924  24.988  0.00  0.00    +0.128 C 
ATOM     16  N   UNL     1       6.438   6.076  24.398  0.00  0.00    -0.316 N 
ATOM     17  H   UNL     1       6.470   5.977  23.386  0.00  0.00    +0.148 HD
ATOM     18  C   UNL     1       7.270   5.294  25.178  0.00  0.00    +0.244 C 
ATOM     19  O   UNL     1       7.221   5.283  26.404  0.00  0.00    -0.273 OA
ENDBRANCH  10  18
BRANCH  11  20
ATOM     20  O   UNL     1       8.016   4.904  21.988  0.00  0.00    -0.386 OA
ATOM     21  H   UNL     1       7.341   4.774  21.288  0.00  0.00    +0.210 HD
ENDBRANCH  11  20
BRANCH  12  22
ATOM     22  O   UNL     1       8.782   2.460  21.562  0.00  0.00    -0.385 OA
ATOM     23  H   UNL     1       9.729   2.277  21.749  0.00  0.00    +0.210 HD
ENDBRANCH  12  22
ENDBRANCH   1  13
BRANCH   4  24
ATOM     24  N   UNL     1       8.842  -3.616  25.071  0.00  0.00    -0.323 N 
ATOM     25  H   UNL     1       9.157  -3.624  26.038  0.00  0.00    +0.148 HD
BRANCH  24  26
ATOM     26  C   UNL     1       8.844  -4.906  24.413  0.00  0.00    +0.138 C 
BRANCH  26  27
ATOM     27  C   UNL     1       7.510  -5.124  23.729  0.00  0.00    -0.029 A 
ATOM     28  C   UNL     1       7.465  -5.723  22.459  0.00  0.00    +0.005 A 
ATOM     29  C   UNL     1       6.247  -5.980  21.827  0.00  0.00    +0.001 A 
ATOM     30  C   UNL     1       5.051  -5.647  22.459  0.00  0.00    +0.014 A 
ATOM     31  C   UNL     1       5.082  -5.047  23.718  0.00  0.00    +0.014 A 
ATOM     32  I   UNL     1       3.291  -4.565  24.665  0.00  0.00    -0.044 I 
ATOM     33  C   UNL     1       6.299  -4.780  24.353  0.00  0.00    +0.019 A 
ENDBRANCH  26  27
ENDBRANCH  24  26
ENDBRANCH   4  24
TORSDOF 7
ENDMDL
MODEL 8
REMARK VINA RESULT:      -7.5      2.526      3.479
REMARK  Name = 
REMARK  8 active torsions:
REMARK  status: ('A' for Active; 'I' for Inactive)
REMARK    1  A    between atoms: C_1  and  N_2
REMARK    2  A    between atoms: C_3  and  C_5
REMARK    3  A    between atoms: C_8  and  N_16
REMARK    4  A    between atoms: C_10  and  O_12
REMARK    5  A    between atoms: C_13  and  O_15
REMARK    6  A    between atoms: C_20  and  N_21
REMARK    7  A    between atoms: N_21  and  C_22
REMARK    8  A    between atoms: C_22  and  C_23
REMARK                            x       y       z     vdW  Elec       q    Type
REMARK                         _______ _______ _______ _____ _____    ______ ____
ROOT
ATOM      1  N   UNL     1       8.022  -2.818  25.488  0.00  0.00    -0.285 N 
ATOM      2  C   UNL     1       8.891  -2.245  24.596  0.00  0.00    +0.167 A 
ATOM      3  C   UNL     1       9.104  -0.963  25.080  0.00  0.00    +0.147 A 
ATOM      4  C   UNL     1      10.012  -0.143  24.380  0.00  0.00    +0.150 A 
ATOM      5  N   UNL     1      10.568  -0.655  23.250  0.00  0.00    -0.219 NA
ATOM      6  C   UNL     1      10.262  -1.923  22.888  0.00  0.00    +0.225 A 
ATOM      7  N   UNL     1       8.356  -0.740  26.217  0.00  0.00    -0.231 NA
ATOM      8  N   UNL     1       9.449  -2.810  23.509  0.00  0.00    -0.216 NA
ATOM      9  C   UNL     1       7.707  -1.868  26.423  0.00  0.00    +0.203 A 
ENDROOT
BRANCH   1  13
ATOM     10  C   UNL     1       5.868  -5.472  24.527  0.00  0.00    +0.237 C 
ATOM     11  C   UNL     1       5.568  -5.443  26.022  0.00  0.00    +0.185 C 
ATOM     12  C   UNL     1       6.661  -4.565  26.628  0.00  0.00    +0.196 C 
ATOM     13  C   UNL     1       7.553  -4.191  25.438  0.00  0.00    +0.254 C 
ATOM     14  O   UNL     1       6.761  -4.389  24.260  0.00  0.00    -0.339 OA
BRANCH  10  18
ATOM     15  C   UNL     1       2.106  -5.446  23.923  0.00  0.00    +0.128 C 
ATOM     16  N   UNL     1       3.422  -5.490  24.506  0.00  0.00    -0.316 N 
ATOM     17  H   UNL     1       3.515  -5.483  25.519  0.00  0.00    +0.148 HD
ATOM     18  C   UNL     1       4.560  -5.411  23.724  0.00  0.00    +0.244 C 
ATOM     19  O   UNL     1       4.524  -5.315  22.501  0.00  0.00    -0.273 OA
ENDBRANCH  10  18
BRANCH  11  20
ATOM     20  O   UNL     1       5.551  -6.767  26.564  0.00  0.00    -0.386 OA
ATOM     21  H   UNL     1       4.784  -6.790  27.176  0.00  0.00    +0.210 HD
ENDBRANCH  11  20
BRANCH  12  22
ATOM     22  O   UNL     1       7.358  -5.264  27.666  0.00  0.00    -0.385 OA
ATOM     23  H   UNL     1       6.688  -5.493  28.348  0.00  0.00    +0.210 HD
ENDBRANCH  12  22
ENDBRANCH   1  13
BRANCH   4  24
ATOM     24  N   UNL     1      10.380   1.106  24.873  0.00  0.00    -0.323 N 
ATOM     25  H   UNL     1       9.809   1.369  25.673  0.00  0.00    +0.148 HD
BRANCH  24  26
ATOM     26  C   UNL     1      10.652   2.174  23.934  0.00  0.00    +0.138 C 
BRANCH  26  27
ATOM     27  C   UNL     1       9.349   2.831  23.527  0.00  0.00    -0.029 A 
ATOM     28  C   UNL     1       8.711   2.441  22.338  0.00  0.00    +0.005 A 
ATOM     29  C   UNL     1       7.486   2.996  21.964  0.00  0.00    +0.001 A 
ATOM     30  C   UNL     1       6.874   3.946  22.778  0.00  0.00    +0.014 A 
ATOM     31  C   UNL     1       7.499   4.345  23.959  0.00  0.00    +0.014 A 
ATOM     32  I   UNL     1       6.574   5.755  25.181  0.00  0.00    -0.044 I 
ATOM     33  C   UNL     1       8.731   3.799  24.336  0.00  0.00    +0.019 A 
ENDBRANCH  26  27
ENDBRANCH  24  26
ENDBRANCH   4  24
TORSDOF 7
ENDMDL
MODEL 9
REMARK VINA RESULT:      -7.3      4.597      8.905
REMARK  Name = 
REMARK  8 active torsions:
REMARK  status: ('A' for Active; 'I' for Inactive)
REMARK    1  A    between atoms: C_1  and  N_2
REMARK    2  A    between atoms: C_3  and  C_5
REMARK    3  A    between atoms: C_8  and  N_16
REMARK    4  A    between atoms: C_10  and  O_12
REMARK    5  A    between atoms: C_13  and  O_15
REMARK    6  A    between atoms: C_20  and  N_21
REMARK    7  A    between atoms: N_21  and  C_22
REMARK    8  A    between atoms: C_22  and  C_23
REMARK                            x       y       z     vdW  Elec       q    Type
REMARK                         _______ _______ _______ _____ _____    ______ ____
ROOT
ATOM      1  N   UNL     1       8.959   0.948  24.547  0.00  0.00    -0.285 N 
ATOM      2  C   UNL     1       9.498  -0.130  23.894  0.00  0.00    +0.167 A 
ATOM      3  C   UNL     1       9.134  -1.227  24.660  0.00  0.00    +0.147 A 
ATOM      4  C   UNL     1       9.514  -2.503  24.195  0.00  0.00    +0.150 A 
ATOM      5  N   UNL     1      10.256  -2.554  23.058  0.00  0.00    -0.219 NA
ATOM      6  C   UNL     1      10.547  -1.399  22.415  0.00  0.00    +0.225 A 
ATOM      7  N   UNL     1       8.426  -0.831  25.775  0.00  0.00    -0.231 NA
ATOM      8  N   UNL     1      10.193  -0.134  22.742  0.00  0.00    -0.216 NA
ATOM      9  C   UNL     1       8.354   0.481  25.683  0.00  0.00    +0.203 A 
ENDROOT
BRANCH   1  13
ATOM     10  C   UNL     1       8.040   4.377  24.455  0.00  0.00    +0.237 C 
ATOM     11  C   UNL     1       7.546   3.955  23.075  0.00  0.00    +0.185 C 
ATOM     12  C   UNL     1       8.162   2.577  22.839  0.00  0.00    +0.196 C 
ATOM     13  C   UNL     1       9.018   2.324  24.085  0.00  0.00    +0.254 C 
ATOM     14  O   UNL     1       8.519   3.198  25.106  0.00  0.00    -0.339 OA
BRANCH  10  18
ATOM     15  C   UNL     1       4.704   6.142  24.977  0.00  0.00    +0.128 C 
ATOM     16  N   UNL     1       5.847   5.460  24.427  0.00  0.00    -0.316 N 
ATOM     17  H   UNL     1       5.822   5.155  23.457  0.00  0.00    +0.148 HD
ATOM     18  C   UNL     1       6.919   5.097  25.221  0.00  0.00    +0.244 C 
ATOM     19  O   UNL     1       6.974   5.340  26.422  0.00  0.00    -0.273 OA
ENDBRANCH  10  18
BRANCH  11  20
ATOM     20  O   UNL     1       7.924   4.913  22.084  0.00  0.00    -0.386 OA
ATOM     21  H   UNL     1       7.571   4.567  21.236  0.00  0.00    +0.210 HD
ENDBRANCH  11  20
BRANCH  12  22
ATOM     22  O   UNL     1       8.910   2.558  21.618  0.00  0.00    -0.385 OA
ATOM     23  H   UNL     1       8.287   2.813  20.903  0.00  0.00    +0.210 HD
ENDBRANCH  12  22
ENDBRANCH   1  13
BRANCH   4  24
ATOM     24  N   UNL     1       9.077  -3.659  24.834  0.00  0.00    -0.323 N 
ATOM     25  H   UNL     1       9.855  -4.170  25.247  0.00  0.00    +0.148 HD
BRANCH  24  26
ATOM     26  C   UNL     1       8.079  -4.482  24.182  0.00  0.00    +0.138 C 
BRANCH  26  27
ATOM     27  C   UNL     1       7.173  -5.098  25.228  0.00  0.00    -0.029 A 
ATOM     28  C   UNL     1       7.522  -5.023  26.587  0.00  0.00    +0.005 A 
ATOM     29  C   UNL     1       6.683  -5.539  27.575  0.00  0.00    +0.001 A 
ATOM     30  C   UNL     1       5.474  -6.135  27.221  0.00  0.00    +0.014 A 
ATOM     31  C   UNL     1       5.118  -6.220  25.876  0.00  0.00    +0.014 A 
ATOM     32  I   UNL     1       3.304  -7.098  25.351  0.00  0.00    -0.044 I 
ATOM     33  C   UNL     1       5.958  -5.712  24.879  0.00  0.00    +0.019 A 
ENDBRANCH  26  27
ENDBRANCH  24  26
ENDBRANCH   4  24
TORSDOF 7
ENDMDL
