MODEL 1
REMARK VINA RESULT:      -7.1      0.000      0.000
REMARK  Name = 
REMARK  13 active torsions:
REMARK  status: ('A' for Active; 'I' for Inactive)
REMARK    1  A    between atoms: C_1  and  C_2
REMARK    2  A    between atoms: C_2  and  O_4
REMARK    3  A    between atoms: O_4  and  C_5
REMARK    4  A    between atoms: C_8  and  N_23
REMARK    5  A    between atoms: C_11  and  C_13
REMARK    6  A    between atoms: C_13  and  O_14
REMARK    7  A    between atoms: O_14  and  P_15
REMARK    8  A    between atoms: P_15  and  O_16
REMARK    9  A    between atoms: P_15  and  O_18
REMARK   10  A    between atoms: O_18  and  P_19
REMARK   11  A    between atoms: P_19  and  O_20
REMARK   12  A    between atoms: P_19  and  O_21
REMARK   13  A    between atoms: C_25  and  C_26
REMARK                            x       y       z     vdW  Elec       q    Type
REMARK                         _______ _______ _______ _____ _____    ______ ____
ROOT
ATOM      1  C   UNL     1       6.277  -3.675  22.871  0.00  0.00    +0.212 C 
ATOM      2  C   UNL     1       5.260  -3.044  23.840  0.00  0.00    +0.188 C 
ATOM      3  O   UNL     1       5.956  -1.996  24.554  0.00  0.00    -0.347 OA
ATOM      4  C   UNL     1       7.305  -1.948  24.068  0.00  0.00    +0.227 C 
ATOM      5  C   UNL     1       7.257  -2.534  22.673  0.00  0.00    +0.102 C 
ENDROOT
BRANCH   4   6
ATOM      6  N   UNL     1       7.828  -0.595  24.111  0.00  0.00    -0.274 N 
ATOM      7  C   UNL     1       8.658  -0.274  25.174  0.00  0.00    +0.331 A 
ATOM      8  O   UNL     1       8.976  -1.061  26.061  0.00  0.00    -0.246 OA
ATOM      9  N   UNL     1       9.140   1.005  25.181  0.00  0.00    -0.275 N 
ATOM     10  H   UNL     1       9.753   1.254  25.938  0.00  0.00    +0.173 HD
ATOM     11  C   UNL     1       8.940   1.944  24.220  0.00  0.00    +0.257 A 
ATOM     12  O   UNL     1       9.473   3.053  24.263  0.00  0.00    -0.267 OA
ATOM     13  C   UNL     1       8.054   1.550  23.094  0.00  0.00    +0.030 A 
ATOM     14  C   UNL     1       7.771   2.569  22.045  0.00  0.00    +0.051 C 
ATOM     15  C   UNL     1       7.548   0.312  23.110  0.00  0.00    +0.101 A 
ENDBRANCH   4   6
BRANCH   1  16
ATOM     16  O   UNL     1       5.658  -4.081  21.637  0.00  0.00    -0.459 OA
BRANCH  16  18
ATOM     17  C   UNL     1       6.897  -6.033  22.123  0.00  0.00    +0.136 C 
ATOM     18  C   UNL     1       6.123  -5.251  21.106  0.00  0.00    +0.304 C 
ATOM     19  O   UNL     1       5.956  -5.612  19.950  0.00  0.00    -0.251 OA
ENDBRANCH  16  18
ENDBRANCH   1  16
BRANCH   2  20
ATOM     20  C   UNL     1       4.676  -4.017  24.880  0.00  0.00    +0.207 C 
BRANCH  20  21
ATOM     21  O   UNL     1       5.567  -5.122  25.047  0.00  0.00    -0.284 OA
BRANCH  21  22
ATOM     22  P   UNL     1       6.350  -5.358  26.433  0.00  0.00    +0.483 P 
ATOM     23  O   UNL     1       6.281  -4.221  27.396  0.00  0.00    -0.227 OA
BRANCH  22  24
ATOM     24  O   UNL     1       5.613  -6.654  27.018  0.00  0.00    -0.302 OA
ATOM     25  H   UNL     1       5.941  -7.440  26.533  0.00  0.00    +0.222 HD
ENDBRANCH  22  24
BRANCH  22  26
ATOM     26  O   UNL     1       7.813  -5.841  26.053  0.00  0.00    -0.186 OA
BRANCH  26  27
ATOM     27  P   UNL     1       8.997  -4.888  25.226  0.00  0.00    +0.481 P 
ATOM     28  O   UNL     1      10.056  -4.035  24.486  0.00  0.00    -0.227 OA
BRANCH  27  29
ATOM     29  O   UNL     1      10.037  -6.081  25.642  0.00  0.00    -0.302 OA
ATOM     30  H   UNL     1       9.522  -6.880  25.873  0.00  0.00    +0.222 HD
ENDBRANCH  27  29
BRANCH  27  31
ATOM     31  O   UNL     1       9.132  -4.033  26.617  0.00  0.00    -0.302 OA
ATOM     32  H   UNL     1       8.871  -3.111  26.431  0.00  0.00    +0.222 HD
ENDBRANCH  27  31
ENDBRANCH  26  27
ENDBRANCH  22  26
ENDBRANCH  21  22
ENDBRANCH  20  21
ENDBRANCH   2  20
TORSDOF 11
ENDMDL
MODEL 2
REMARK VINA RESULT:      -6.9      1.396      2.721
REMARK  Name = 
REMARK  13 active torsions:
REMARK  status: ('A' for Active; 'I' for Inactive)
REMARK    1  A    between atoms: C_1  and  C_2
REMARK    2  A    between atoms: C_2  and  O_4
REMARK    3  A    between atoms: O_4  and  C_5
REMARK    4  A    between atoms: C_8  and  N_23
REMARK    5  A    between atoms: C_11  and  C_13
REMARK    6  A    between atoms: C_13  and  O_14
REMARK    7  A    between atoms: O_14  and  P_15
REMARK    8  A    between atoms: P_15  and  O_16
REMARK    9  A    between atoms: P_15  and  O_18
REMARK   10  A    between atoms: O_18  and  P_19
REMARK   11  A    between atoms: P_19  and  O_20
REMARK   12  A    between atoms: P_19  and  O_21
REMARK   13  A    between atoms: C_25  and  C_26
REMARK                            x       y       z     vdW  Elec       q    Type
REMARK                         _______ _______ _______ _____ _____    ______ ____
ROOT
ATOM      1  C   UNL     1       6.543  -3.901  22.910  0.00  0.00    +0.212 C 
ATOM      2  C   UNL     1       5.680  -3.151  23.942  0.00  0.00    +0.188 C 
ATOM      3  O   UNL     1       6.551  -2.208  24.610  0.00  0.00    -0.347 OA
ATOM      4  C   UNL     1       7.862  -2.333  24.040  0.00  0.00    +0.227 C 
ATOM      5  C   UNL     1       7.650  -2.896  22.651  0.00  0.00    +0.102 C 
ENDROOT
BRANCH   4   6
ATOM      6  N   UNL     1       8.559  -1.060  24.049  0.00  0.00    -0.274 N 
ATOM      7  C   UNL     1       9.064  -0.629  25.266  0.00  0.00    +0.331 A 
ATOM      8  O   UNL     1       8.963  -1.257  26.315  0.00  0.00    -0.246 OA
ATOM      9  N   UNL     1       9.721   0.570  25.240  0.00  0.00    -0.275 N 
ATOM     10  H   UNL     1      10.105   0.895  26.110  0.00  0.00    +0.173 HD
ATOM     11  C   UNL     1       9.981   1.319  24.137  0.00  0.00    +0.257 A 
ATOM     12  O   UNL     1      10.647   2.354  24.186  0.00  0.00    -0.267 OA
ATOM     13  C   UNL     1       9.431   0.810  22.854  0.00  0.00    +0.030 A 
ATOM     14  C   UNL     1       9.651   1.630  21.631  0.00  0.00    +0.051 C 
ATOM     15  C   UNL     1       8.750  -0.341  22.888  0.00  0.00    +0.101 A 
ENDBRANCH   4   6
BRANCH   1  16
ATOM     16  O   UNL     1       5.800  -4.213  21.718  0.00  0.00    -0.459 OA
BRANCH  16  18
ATOM     17  C   UNL     1       6.687  -6.364  22.128  0.00  0.00    +0.136 C 
ATOM     18  C   UNL     1       6.110  -5.407  21.130  0.00  0.00    +0.304 C 
ATOM     19  O   UNL     1       5.962  -5.664  19.944  0.00  0.00    -0.251 OA
ENDBRANCH  16  18
ENDBRANCH   1  16
BRANCH   2  20
ATOM     20  C   UNL     1       5.041  -4.047  25.017  0.00  0.00    +0.207 C 
BRANCH  20  21
ATOM     21  O   UNL     1       6.005  -5.000  25.474  0.00  0.00    -0.284 OA
BRANCH  21  22
ATOM     22  P   UNL     1       6.589  -4.940  26.971  0.00  0.00    +0.483 P 
ATOM     23  O   UNL     1       7.622  -5.969  27.286  0.00  0.00    -0.227 OA
BRANCH  22  24
ATOM     24  O   UNL     1       7.209  -3.464  27.031  0.00  0.00    -0.302 OA
ATOM     25  H   UNL     1       7.241  -3.182  27.969  0.00  0.00    +0.222 HD
ENDBRANCH  22  24
BRANCH  22  26
ATOM     26  O   UNL     1       5.338  -4.911  27.948  0.00  0.00    -0.186 OA
BRANCH  26  27
ATOM     27  P   UNL     1       4.759  -6.255  28.870  0.00  0.00    +0.481 P 
ATOM     28  O   UNL     1       4.239  -7.457  29.696  0.00  0.00    -0.227 OA
BRANCH  27  29
ATOM     29  O   UNL     1       6.219  -6.195  29.605  0.00  0.00    -0.302 OA
ATOM     30  H   UNL     1       6.786  -5.560  29.123  0.00  0.00    +0.222 HD
ENDBRANCH  27  29
BRANCH  27  31
ATOM     31  O   UNL     1       5.225  -7.192  27.609  0.00  0.00    -0.302 OA
ATOM     32  H   UNL     1       6.152  -7.457  27.757  0.00  0.00    +0.222 HD
ENDBRANCH  27  31
ENDBRANCH  26  27
ENDBRANCH  22  26
ENDBRANCH  21  22
ENDBRANCH  20  21
ENDBRANCH   2  20
TORSDOF 11
ENDMDL
MODEL 3
REMARK VINA RESULT:      -6.7      1.840      3.195
REMARK  Name = 
REMARK  13 active torsions:
REMARK  status: ('A' for Active; 'I' for Inactive)
REMARK    1  A    between atoms: C_1  and  C_2
REMARK    2  A    between atoms: C_2  and  O_4
REMARK    3  A    between atoms: O_4  and  C_5
REMARK    4  A    between atoms: C_8  and  N_23
REMARK    5  A    between atoms: C_11  and  C_13
REMARK    6  A    between atoms: C_13  and  O_14
REMARK    7  A    between atoms: O_14  and  P_15
REMARK    8  A    between atoms: P_15  and  O_16
REMARK    9  A    between atoms: P_15  and  O_18
REMARK   10  A    between atoms: O_18  and  P_19
REMARK   11  A    between atoms: P_19  and  O_20
REMARK   12  A    between atoms: P_19  and  O_21
REMARK   13  A    between atoms: C_25  and  C_26
REMARK                            x       y       z     vdW  Elec       q    Type
REMARK                         _______ _______ _______ _____ _____    ______ ____
ROOT
ATOM      1  C   UNL     1       8.125  -2.876  23.644  0.00  0.00    +0.212 C 
ATOM      2  C   UNL     1       7.796  -2.416  25.077  0.00  0.00    +0.188 C 
ATOM      3  O   UNL     1       8.324  -1.076  25.218  0.00  0.00    -0.347 OA
ATOM      4  C   UNL     1       8.927  -0.703  23.971  0.00  0.00    +0.227 C 
ATOM      5  C   UNL     1       8.243  -1.549  22.919  0.00  0.00    +0.102 C 
ENDROOT
BRANCH   4   6
ATOM      6  N   UNL     1       8.802   0.725  23.738  0.00  0.00    -0.274 N 
ATOM      7  C   UNL     1       9.897   1.512  24.059  0.00  0.00    +0.331 A 
ATOM      8  O   UNL     1      10.950   1.075  24.514  0.00  0.00    -0.246 OA
ATOM      9  N   UNL     1       9.751   2.851  23.821  0.00  0.00    -0.275 N 
ATOM     10  H   UNL     1      10.537   3.438  24.037  0.00  0.00    +0.173 HD
ATOM     11  C   UNL     1       8.679   3.450  23.241  0.00  0.00    +0.257 A 
ATOM     12  O   UNL     1       8.655   4.656  22.991  0.00  0.00    -0.267 OA
ATOM     13  C   UNL     1       7.536   2.564  22.902  0.00  0.00    +0.030 A 
ATOM     14  C   UNL     1       6.322   3.193  22.311  0.00  0.00    +0.051 C 
ATOM     15  C   UNL     1       7.663   1.261  23.176  0.00  0.00    +0.101 A 
ENDBRANCH   4   6
BRANCH   1  16
ATOM     16  O   UNL     1       7.084  -3.705  23.098  0.00  0.00    -0.459 OA
BRANCH  16  18
ATOM     17  C   UNL     1       6.646  -5.508  21.635  0.00  0.00    +0.136 C 
ATOM     18  C   UNL     1       7.457  -4.980  22.779  0.00  0.00    +0.304 C 
ATOM     19  O   UNL     1       8.321  -5.623  23.358  0.00  0.00    -0.251 OA
ENDBRANCH  16  18
ENDBRANCH   1  16
BRANCH   2  20
ATOM     20  C   UNL     1       8.412  -3.286  26.187  0.00  0.00    +0.207 C 
BRANCH  20  21
ATOM     21  O   UNL     1       7.368  -3.964  26.891  0.00  0.00    -0.284 OA
BRANCH  21  22
ATOM     22  P   UNL     1       7.190  -5.559  26.780  0.00  0.00    +0.483 P 
ATOM     23  O   UNL     1       6.086  -6.009  25.883  0.00  0.00    -0.227 OA
BRANCH  22  24
ATOM     24  O   UNL     1       8.616  -6.017  26.212  0.00  0.00    -0.302 OA
ATOM     25  H   UNL     1       9.070  -5.228  25.849  0.00  0.00    +0.222 HD
ENDBRANCH  22  24
BRANCH  22  26
ATOM     26  O   UNL     1       7.131  -6.115  28.265  0.00  0.00    -0.186 OA
BRANCH  26  27
ATOM     27  P   UNL     1       5.697  -6.258  29.222  0.00  0.00    +0.481 P 
ATOM     28  O   UNL     1       4.414  -6.386  30.080  0.00  0.00    -0.227 OA
BRANCH  27  29
ATOM     29  O   UNL     1       5.340  -7.517  28.240  0.00  0.00    -0.302 OA
ATOM     30  H   UNL     1       4.798  -8.160  28.740  0.00  0.00    +0.222 HD
ENDBRANCH  27  29
BRANCH  27  31
ATOM     31  O   UNL     1       5.062  -5.091  28.264  0.00  0.00    -0.302 OA
ATOM     32  H   UNL     1       5.790  -4.693  27.749  0.00  0.00    +0.222 HD
ENDBRANCH  27  31
ENDBRANCH  26  27
ENDBRANCH  22  26
ENDBRANCH  21  22
ENDBRANCH  20  21
ENDBRANCH   2  20
TORSDOF 11
ENDMDL
MODEL 4
REMARK VINA RESULT:      -6.5      3.679      7.922
REMARK  Name = 
REMARK  13 active torsions:
REMARK  status: ('A' for Active; 'I' for Inactive)
REMARK    1  A    between atoms: C_1  and  C_2
REMARK    2  A    between atoms: C_2  and  O_4
REMARK    3  A    between atoms: O_4  and  C_5
REMARK    4  A    between atoms: C_8  and  N_23
REMARK    5  A    between atoms: C_11  and  C_13
REMARK    6  A    between atoms: C_13  and  O_14
REMARK    7  A    between atoms: O_14  and  P_15
REMARK    8  A    between atoms: P_15  and  O_16
REMARK    9  A    between atoms: P_15  and  O_18
REMARK   10  A    between atoms: O_18  and  P_19
REMARK   11  A    between atoms: P_19  and  O_20
REMARK   12  A    between atoms: P_19  and  O_21
REMARK   13  A    between atoms: C_25  and  C_26
REMARK                            x       y       z     vdW  Elec       q    Type
REMARK                         _______ _______ _______ _____ _____    ______ ____
ROOT
ATOM      1  C   UNL     1       8.565  -1.922  23.338  0.00  0.00    +0.212 C 
ATOM      2  C   UNL     1       7.225  -1.213  23.606  0.00  0.00    +0.188 C 
ATOM      3  O   UNL     1       6.181  -2.188  23.370  0.00  0.00    -0.347 OA
ATOM      4  C   UNL     1       6.805  -3.425  22.999  0.00  0.00    +0.227 C 
ATOM      5  C   UNL     1       8.198  -3.373  23.590  0.00  0.00    +0.102 C 
ENDROOT
BRANCH   4   6
ATOM      6  N   UNL     1       6.025  -4.561  23.456  0.00  0.00    -0.274 N 
ATOM      7  C   UNL     1       5.441  -5.356  22.482  0.00  0.00    +0.331 A 
ATOM      8  O   UNL     1       5.553  -5.161  21.275  0.00  0.00    -0.246 OA
ATOM      9  N   UNL     1       4.719  -6.421  22.944  0.00  0.00    -0.275 N 
ATOM     10  H   UNL     1       4.297  -7.017  22.253  0.00  0.00    +0.173 HD
ATOM     11  C   UNL     1       4.590  -6.801  24.242  0.00  0.00    +0.257 A 
ATOM     12  O   UNL     1       3.983  -7.821  24.571  0.00  0.00    -0.267 OA
ATOM     13  C   UNL     1       5.244  -5.926  25.249  0.00  0.00    +0.030 A 
ATOM     14  C   UNL     1       5.082  -6.282  26.686  0.00  0.00    +0.051 C 
ATOM     15  C   UNL     1       5.913  -4.859  24.798  0.00  0.00    +0.101 A 
ENDBRANCH   4   6
BRANCH   1  16
ATOM     16  O   UNL     1       9.599  -1.461  24.225  0.00  0.00    -0.459 OA
BRANCH  16  18
ATOM     17  C   UNL     1      10.829   0.461  24.842  0.00  0.00    +0.136 C 
ATOM     18  C   UNL     1      10.379  -0.449  23.740  0.00  0.00    +0.304 C 
ATOM     19  O   UNL     1      10.660  -0.284  22.561  0.00  0.00    -0.251 OA
ENDBRANCH  16  18
ENDBRANCH   1  16
BRANCH   2  20
ATOM     20  C   UNL     1       6.949   0.001  22.701  0.00  0.00    +0.207 C 
BRANCH  20  21
ATOM     21  O   UNL     1       7.528   1.169  23.288  0.00  0.00    -0.284 OA
BRANCH  21  22
ATOM     22  P   UNL     1       8.192   2.316  22.376  0.00  0.00    +0.483 P 
ATOM     23  O   UNL     1       9.351   3.021  22.998  0.00  0.00    -0.227 OA
BRANCH  22  24
ATOM     24  O   UNL     1       8.647   1.492  21.080  0.00  0.00    -0.302 OA
ATOM     25  H   UNL     1       9.244   2.060  20.549  0.00  0.00    +0.222 HD
ENDBRANCH  22  24
BRANCH  22  26
ATOM     26  O   UNL     1       7.009   3.252  21.886  0.00  0.00    -0.186 OA
BRANCH  26  27
ATOM     27  P   UNL     1       6.465   4.681  22.695  0.00  0.00    +0.481 P 
ATOM     28  O   UNL     1       5.977   5.960  23.418  0.00  0.00    -0.227 OA
BRANCH  27  29
ATOM     29  O   UNL     1       7.871   5.337  22.176  0.00  0.00    -0.302 OA
ATOM     30  H   UNL     1       7.868   5.352  21.198  0.00  0.00    +0.222 HD
ENDBRANCH  27  29
BRANCH  27  31
ATOM     31  O   UNL     1       7.066   4.014  24.065  0.00  0.00    -0.302 OA
ATOM     32  H   UNL     1       7.823   3.449  23.819  0.00  0.00    +0.222 HD
ENDBRANCH  27  31
ENDBRANCH  26  27
ENDBRANCH  22  26
ENDBRANCH  21  22
ENDBRANCH  20  21
ENDBRANCH   2  20
TORSDOF 11
ENDMDL
MODEL 5
REMARK VINA RESULT:      -6.5      3.481      7.607
REMARK  Name = 
REMARK  13 active torsions:
REMARK  status: ('A' for Active; 'I' for Inactive)
REMARK    1  A    between atoms: C_1  and  C_2
REMARK    2  A    between atoms: C_2  and  O_4
REMARK    3  A    between atoms: O_4  and  C_5
REMARK    4  A    between atoms: C_8  and  N_23
REMARK    5  A    between atoms: C_11  and  C_13
REMARK    6  A    between atoms: C_13  and  O_14
REMARK    7  A    between atoms: O_14  and  P_15
REMARK    8  A    between atoms: P_15  and  O_16
REMARK    9  A    between atoms: P_15  and  O_18
REMARK   10  A    between atoms: O_18  and  P_19
REMARK   11  A    between atoms: P_19  and  O_20
REMARK   12  A    between atoms: P_19  and  O_21
REMARK   13  A    between atoms: C_25  and  C_26
REMARK                            x       y       z     vdW  Elec       q    Type
REMARK                         _______ _______ _______ _____ _____    ______ ____
ROOT
ATOM      1  C   UNL     1       8.147  -1.621  23.932  0.00  0.00    +0.212 C 
ATOM      2  C   UNL     1       6.922  -1.098  24.704  0.00  0.00    +0.188 C 
ATOM      3  O   UNL     1       5.838  -2.022  24.448  0.00  0.00    -0.347 OA
ATOM      4  C   UNL     1       6.335  -3.063  23.594  0.00  0.00    +0.227 C 
ATOM      5  C   UNL     1       7.831  -3.102  23.828  0.00  0.00    +0.102 C 
ENDROOT
BRANCH   4   6
ATOM      6  N   UNL     1       5.673  -4.325  23.869  0.00  0.00    -0.274 N 
ATOM      7  C   UNL     1       5.194  -5.035  22.780  0.00  0.00    +0.331 A 
ATOM      8  O   UNL     1       5.305  -4.665  21.614  0.00  0.00    -0.246 OA
ATOM      9  N   UNL     1       4.582  -6.222  23.071  0.00  0.00    -0.275 N 
ATOM     10  H   UNL     1       4.238  -6.758  22.293  0.00  0.00    +0.173 HD
ATOM     11  C   UNL     1       4.473  -6.788  24.301  0.00  0.00    +0.257 A 
ATOM     12  O   UNL     1       3.973  -7.900  24.472  0.00  0.00    -0.267 OA
ATOM     13  C   UNL     1       5.012  -5.996  25.437  0.00  0.00    +0.030 A 
ATOM     14  C   UNL     1       4.866  -6.561  26.807  0.00  0.00    +0.051 C 
ATOM     15  C   UNL     1       5.572  -4.814  25.155  0.00  0.00    +0.101 A 
ENDBRANCH   4   6
BRANCH   1  16
ATOM     16  O   UNL     1       9.372  -1.375  24.645  0.00  0.00    -0.459 OA
BRANCH  16  18
ATOM     17  C   UNL     1      10.388  -0.682  22.627  0.00  0.00    +0.136 C 
ATOM     18  C   UNL     1      10.192  -0.432  24.091  0.00  0.00    +0.304 C 
ATOM     19  O   UNL     1      10.720   0.485  24.704  0.00  0.00    -0.251 OA
ENDBRANCH  16  18
ENDBRANCH   1  16
BRANCH   2  20
ATOM     20  C   UNL     1       6.452   0.307  24.287  0.00  0.00    +0.207 C 
BRANCH  20  21
ATOM     21  O   UNL     1       6.827   0.548  22.928  0.00  0.00    -0.284 OA
BRANCH  21  22
ATOM     22  P   UNL     1       7.500   1.940  22.485  0.00  0.00    +0.483 P 
ATOM     23  O   UNL     1       8.339   1.870  21.254  0.00  0.00    -0.227 OA
BRANCH  22  24
ATOM     24  O   UNL     1       6.219   2.874  22.256  0.00  0.00    -0.302 OA
ATOM     25  H   UNL     1       5.415   2.335  22.406  0.00  0.00    +0.222 HD
ENDBRANCH  22  24
BRANCH  22  26
ATOM     26  O   UNL     1       8.224   2.526  23.770  0.00  0.00    -0.186 OA
BRANCH  26  27
ATOM     27  P   UNL     1       9.338   3.850  23.772  0.00  0.00    +0.481 P 
ATOM     28  O   UNL     1      10.335   5.034  23.776  0.00  0.00    -0.227 OA
BRANCH  27  29
ATOM     29  O   UNL     1       8.401   4.453  22.574  0.00  0.00    -0.302 OA
ATOM     30  H   UNL     1       8.893   4.390  21.730  0.00  0.00    +0.222 HD
ENDBRANCH  27  29
BRANCH  27  31
ATOM     31  O   UNL     1      10.288   2.921  22.814  0.00  0.00    -0.302 OA
ATOM     32  H   UNL     1       9.828   2.073  22.664  0.00  0.00    +0.222 HD
ENDBRANCH  27  31
ENDBRANCH  26  27
ENDBRANCH  22  26
ENDBRANCH  21  22
ENDBRANCH  20  21
ENDBRANCH   2  20
TORSDOF 11
ENDMDL
MODEL 6
REMARK VINA RESULT:      -6.5      1.713      2.378
REMARK  Name = 
REMARK  13 active torsions:
REMARK  status: ('A' for Active; 'I' for Inactive)
REMARK    1  A    between atoms: C_1  and  C_2
REMARK    2  A    between atoms: C_2  and  O_4
REMARK    3  A    between atoms: O_4  and  C_5
REMARK    4  A    between atoms: C_8  and  N_23
REMARK    5  A    between atoms: C_11  and  C_13
REMARK    6  A    between atoms: C_13  and  O_14
REMARK    7  A    between atoms: O_14  and  P_15
REMARK    8  A    between atoms: P_15  and  O_16
REMARK    9  A    between atoms: P_15  and  O_18
REMARK   10  A    between atoms: O_18  and  P_19
REMARK   11  A    between atoms: P_19  and  O_20
REMARK   12  A    between atoms: P_19  and  O_21
REMARK   13  A    between atoms: C_25  and  C_26
REMARK                            x       y       z     vdW  Elec       q    Type
REMARK                         _______ _______ _______ _____ _____    ______ ____
ROOT
ATOM      1  C   UNL     1       7.207  -3.528  23.006  0.00  0.00    +0.212 C 
ATOM      2  C   UNL     1       5.829  -2.873  23.218  0.00  0.00    +0.188 C 
ATOM      3  O   UNL     1       6.056  -1.652  23.962  0.00  0.00    -0.347 OA
ATOM      4  C   UNL     1       7.466  -1.528  24.191  0.00  0.00    +0.227 C 
ATOM      5  C   UNL     1       8.130  -2.327  23.091  0.00  0.00    +0.102 C 
ENDROOT
BRANCH   4   6
ATOM      6  N   UNL     1       7.869  -0.133  24.219  0.00  0.00    -0.274 N 
ATOM      7  C   UNL     1       8.753   0.247  25.217  0.00  0.00    +0.331 A 
ATOM      8  O   UNL     1       9.211  -0.520  26.059  0.00  0.00    -0.246 OA
ATOM      9  N   UNL     1       9.118   1.564  25.211  0.00  0.00    -0.275 N 
ATOM     10  H   UNL     1       9.767   1.857  25.921  0.00  0.00    +0.173 HD
ATOM     11  C   UNL     1       8.758   2.493  24.288  0.00  0.00    +0.257 A 
ATOM     12  O   UNL     1       9.192   3.645  24.310  0.00  0.00    -0.267 OA
ATOM     13  C   UNL     1       7.821   2.036  23.230  0.00  0.00    +0.030 A 
ATOM     14  C   UNL     1       7.362   3.039  22.229  0.00  0.00    +0.051 C 
ATOM     15  C   UNL     1       7.429   0.758  23.263  0.00  0.00    +0.101 A 
ENDBRANCH   4   6
BRANCH   1  16
ATOM     16  O   UNL     1       7.291  -4.192  21.732  0.00  0.00    -0.459 OA
BRANCH  16  18
ATOM     17  C   UNL     1       6.128  -5.986  20.727  0.00  0.00    +0.136 C 
ATOM     18  C   UNL     1       7.115  -5.546  21.765  0.00  0.00    +0.304 C 
ATOM     19  O   UNL     1       7.666  -6.307  22.549  0.00  0.00    -0.251 OA
ENDBRANCH  16  18
ENDBRANCH   1  16
BRANCH   2  20
ATOM     20  C   UNL     1       4.827  -3.730  24.012  0.00  0.00    +0.207 C 
BRANCH  20  21
ATOM     21  O   UNL     1       5.535  -4.742  24.731  0.00  0.00    -0.284 OA
BRANCH  21  22
ATOM     22  P   UNL     1       4.786  -6.064  25.262  0.00  0.00    +0.483 P 
ATOM     23  O   UNL     1       3.347  -5.876  25.607  0.00  0.00    -0.227 OA
BRANCH  22  24
ATOM     24  O   UNL     1       4.956  -7.066  24.024  0.00  0.00    -0.302 OA
ATOM     25  H   UNL     1       5.697  -7.675  24.221  0.00  0.00    +0.222 HD
ENDBRANCH  22  24
BRANCH  22  26
ATOM     26  O   UNL     1       5.690  -6.667  26.418  0.00  0.00    -0.186 OA
BRANCH  26  27
ATOM     27  P   UNL     1       5.858  -6.000  28.006  0.00  0.00    +0.481 P 
ATOM     28  O   UNL     1       6.008  -5.402  29.426  0.00  0.00    -0.227 OA
BRANCH  27  29
ATOM     29  O   UNL     1       7.466  -6.097  27.720  0.00  0.00    -0.302 OA
ATOM     30  H   UNL     1       7.945  -5.793  28.517  0.00  0.00    +0.222 HD
ENDBRANCH  27  29
BRANCH  27  31
ATOM     31  O   UNL     1       5.676  -7.531  28.559  0.00  0.00    -0.302 OA
ATOM     32  H   UNL     1       6.517  -7.805  28.973  0.00  0.00    +0.222 HD
ENDBRANCH  27  31
ENDBRANCH  26  27
ENDBRANCH  22  26
ENDBRANCH  21  22
ENDBRANCH  20  21
ENDBRANCH   2  20
TORSDOF 11
ENDMDL
MODEL 7
REMARK VINA RESULT:      -6.4      2.240      4.088
REMARK  Name = 
REMARK  13 active torsions:
REMARK  status: ('A' for Active; 'I' for Inactive)
REMARK    1  A    between atoms: C_1  and  C_2
REMARK    2  A    between atoms: C_2  and  O_4
REMARK    3  A    between atoms: O_4  and  C_5
REMARK    4  A    between atoms: C_8  and  N_23
REMARK    5  A    between atoms: C_11  and  C_13
REMARK    6  A    between atoms: C_13  and  O_14
REMARK    7  A    between atoms: O_14  and  P_15
REMARK    8  A    between atoms: P_15  and  O_16
REMARK    9  A    between atoms: P_15  and  O_18
REMARK   10  A    between atoms: O_18  and  P_19
REMARK   11  A    between atoms: P_19  and  O_20
REMARK   12  A    between atoms: P_19  and  O_21
REMARK   13  A    between atoms: C_25  and  C_26
REMARK                            x       y       z     vdW  Elec       q    Type
REMARK                         _______ _______ _______ _____ _____    ______ ____
ROOT
ATOM      1  C   UNL     1       8.581  -2.490  24.151  0.00  0.00    +0.212 C 
ATOM      2  C   UNL     1       8.280  -2.231  22.663  0.00  0.00    +0.188 C 
ATOM      3  O   UNL     1       7.847  -0.854  22.557  0.00  0.00    -0.347 OA
ATOM      4  C   UNL     1       7.884  -0.275  23.868  0.00  0.00    +0.227 C 
ATOM      5  C   UNL     1       8.895  -1.090  24.646  0.00  0.00    +0.102 C 
ENDROOT
BRANCH   4   6
ATOM      6  N   UNL     1       8.206   1.139  23.805  0.00  0.00    -0.274 N 
ATOM      7  C   UNL     1       7.163   2.031  23.998  0.00  0.00    +0.331 A 
ATOM      8  O   UNL     1       6.004   1.697  24.223  0.00  0.00    -0.246 OA
ATOM      9  N   UNL     1       7.500   3.355  23.939  0.00  0.00    -0.275 N 
ATOM     10  H   UNL     1       6.759   4.018  24.088  0.00  0.00    +0.173 HD
ATOM     11  C   UNL     1       8.753   3.859  23.788  0.00  0.00    +0.257 A 
ATOM     12  O   UNL     1       8.984   5.068  23.821  0.00  0.00    -0.267 OA
ATOM     13  C   UNL     1       9.840   2.864  23.598  0.00  0.00    +0.030 A 
ATOM     14  C   UNL     1      11.220   3.379  23.377  0.00  0.00    +0.051 C 
ATOM     15  C   UNL     1       9.502   1.570  23.611  0.00  0.00    +0.101 A 
ENDBRANCH   4   6
BRANCH   1  16
ATOM     16  O   UNL     1       9.691  -3.390  24.322  0.00  0.00    -0.459 OA
BRANCH  16  18
ATOM     17  C   UNL     1       8.987  -4.314  26.380  0.00  0.00    +0.136 C 
ATOM     18  C   UNL     1       9.400  -4.563  24.961  0.00  0.00    +0.304 C 
ATOM     19  O   UNL     1       9.484  -5.674  24.458  0.00  0.00    -0.251 OA
ENDBRANCH  16  18
ENDBRANCH   1  16
BRANCH   2  20
ATOM     20  C   UNL     1       7.175  -3.121  22.067  0.00  0.00    +0.207 C 
BRANCH  20  21
ATOM     21  O   UNL     1       6.528  -3.841  23.120  0.00  0.00    -0.284 OA
BRANCH  21  22
ATOM     22  P   UNL     1       6.140  -5.393  22.950  0.00  0.00    +0.483 P 
ATOM     23  O   UNL     1       4.958  -5.654  22.078  0.00  0.00    -0.227 OA
BRANCH  22  24
ATOM     24  O   UNL     1       7.475  -6.005  22.310  0.00  0.00    -0.302 OA
ATOM     25  H   UNL     1       7.217  -6.664  21.633  0.00  0.00    +0.222 HD
ENDBRANCH  22  24
BRANCH  22  26
ATOM     26  O   UNL     1       6.056  -6.004  24.412  0.00  0.00    -0.186 OA
BRANCH  26  27
ATOM     27  P   UNL     1       4.594  -6.407  25.244  0.00  0.00    +0.481 P 
ATOM     28  O   UNL     1       3.286  -6.768  25.990  0.00  0.00    -0.227 OA
BRANCH  27  29
ATOM     29  O   UNL     1       4.347  -7.449  24.007  0.00  0.00    -0.302 OA
ATOM     30  H   UNL     1       4.929  -7.195  23.262  0.00  0.00    +0.222 HD
ENDBRANCH  27  29
BRANCH  27  31
ATOM     31  O   UNL     1       3.936  -5.096  24.515  0.00  0.00    -0.302 OA
ATOM     32  H   UNL     1       3.525  -5.389  23.680  0.00  0.00    +0.222 HD
ENDBRANCH  27  31
ENDBRANCH  26  27
ENDBRANCH  22  26
ENDBRANCH  21  22
ENDBRANCH  20  21
ENDBRANCH   2  20
TORSDOF 11
ENDMDL
MODEL 8
REMARK VINA RESULT:      -6.2      3.907      7.240
REMARK  Name = 
REMARK  13 active torsions:
REMARK  status: ('A' for Active; 'I' for Inactive)
REMARK    1  A    between atoms: C_1  and  C_2
REMARK    2  A    between atoms: C_2  and  O_4
REMARK    3  A    between atoms: O_4  and  C_5
REMARK    4  A    between atoms: C_8  and  N_23
REMARK    5  A    between atoms: C_11  and  C_13
REMARK    6  A    between atoms: C_13  and  O_14
REMARK    7  A    between atoms: O_14  and  P_15
REMARK    8  A    between atoms: P_15  and  O_16
REMARK    9  A    between atoms: P_15  and  O_18
REMARK   10  A    between atoms: O_18  and  P_19
REMARK   11  A    between atoms: P_19  and  O_20
REMARK   12  A    between atoms: P_19  and  O_21
REMARK   13  A    between atoms: C_25  and  C_26
REMARK                            x       y       z     vdW  Elec       q    Type
REMARK                         _______ _______ _______ _____ _____    ______ ____
ROOT
ATOM      1  C   UNL     1       6.584  -5.455  27.415  0.00  0.00    +0.212 C 
ATOM      2  C   UNL     1       6.461  -4.113  26.669  0.00  0.00    +0.188 C 
ATOM      3  O   UNL     1       5.788  -4.390  25.418  0.00  0.00    -0.347 OA
ATOM      4  C   UNL     1       5.491  -5.793  25.375  0.00  0.00    +0.227 C 
ATOM      5  C   UNL     1       5.432  -6.241  26.819  0.00  0.00    +0.102 C 
ENDROOT
BRANCH   4   6
ATOM      6  N   UNL     1       4.265  -6.044  24.639  0.00  0.00    -0.274 N 
ATOM      7  C   UNL     1       4.368  -6.151  23.262  0.00  0.00    +0.331 A 
ATOM      8  O   UNL     1       5.423  -6.056  22.641  0.00  0.00    -0.246 OA
ATOM      9  N   UNL     1       3.197  -6.395  22.599  0.00  0.00    -0.275 N 
ATOM     10  H   UNL     1       3.253  -6.488  21.599  0.00  0.00    +0.173 HD
ATOM     11  C   UNL     1       1.983  -6.611  23.168  0.00  0.00    +0.257 A 
ATOM     12  O   UNL     1       0.987  -6.900  22.504  0.00  0.00    -0.267 OA
ATOM     13  C   UNL     1       1.924  -6.498  24.648  0.00  0.00    +0.030 A 
ATOM     14  C   UNL     1       0.599  -6.678  25.305  0.00  0.00    +0.051 C 
ATOM     15  C   UNL     1       3.061  -6.216  25.292  0.00  0.00    +0.101 A 
ENDBRANCH   4   6
BRANCH   1  16
ATOM     16  O   UNL     1       6.452  -5.288  28.838  0.00  0.00    -0.459 OA
BRANCH  16  18
ATOM     17  C   UNL     1       5.034  -6.216  30.485  0.00  0.00    +0.136 C 
ATOM     18  C   UNL     1       6.175  -6.429  29.538  0.00  0.00    +0.304 C 
ATOM     19  O   UNL     1       6.786  -7.483  29.430  0.00  0.00    -0.251 OA
ENDBRANCH  16  18
ENDBRANCH   1  16
BRANCH   2  20
ATOM     20  C   UNL     1       7.802  -3.434  26.344  0.00  0.00    +0.207 C 
BRANCH  20  21
ATOM     21  O   UNL     1       7.704  -2.774  25.079  0.00  0.00    -0.284 OA
BRANCH  21  22
ATOM     22  P   UNL     1       8.634  -3.208  23.840  0.00  0.00    +0.483 P 
ATOM     23  O   UNL     1      10.079  -3.380  24.166  0.00  0.00    -0.227 OA
BRANCH  22  24
ATOM     24  O   UNL     1       7.974  -4.600  23.397  0.00  0.00    -0.302 OA
ATOM     25  H   UNL     1       8.131  -4.723  22.438  0.00  0.00    +0.222 HD
ENDBRANCH  22  24
BRANCH  22  26
ATOM     26  O   UNL     1       8.318  -2.198  22.657  0.00  0.00    -0.186 OA
BRANCH  26  27
ATOM     27  P   UNL     1       9.206  -0.755  22.312  0.00  0.00    +0.481 P 
ATOM     28  O   UNL     1      10.000   0.538  22.003  0.00  0.00    -0.227 OA
BRANCH  27  29
ATOM     29  O   UNL     1      10.409  -1.772  21.871  0.00  0.00    -0.302 OA
ATOM     30  H   UNL     1      10.557  -1.683  20.908  0.00  0.00    +0.222 HD
ENDBRANCH  27  29
BRANCH  27  31
ATOM     31  O   UNL     1       9.572  -0.718  23.909  0.00  0.00    -0.302 OA
ATOM     32  H   UNL     1       9.620  -1.639  24.229  0.00  0.00    +0.222 HD
ENDBRANCH  27  31
ENDBRANCH  26  27
ENDBRANCH  22  26
ENDBRANCH  21  22
ENDBRANCH  20  21
ENDBRANCH   2  20
TORSDOF 11
ENDMDL
MODEL 9
REMARK VINA RESULT:      -6.1      2.182      3.719
REMARK  Name = 
REMARK  13 active torsions:
REMARK  status: ('A' for Active; 'I' for Inactive)
REMARK    1  A    between atoms: C_1  and  C_2
REMARK    2  A    between atoms: C_2  and  O_4
REMARK    3  A    between atoms: O_4  and  C_5
REMARK    4  A    between atoms: C_8  and  N_23
REMARK    5  A    between atoms: C_11  and  C_13
REMARK    6  A    between atoms: C_13  and  O_14
REMARK    7  A    between atoms: O_14  and  P_15
REMARK    8  A    between atoms: P_15  and  O_16
REMARK    9  A    between atoms: P_15  and  O_18
REMARK   10  A    between atoms: O_18  and  P_19
REMARK   11  A    between atoms: P_19  and  O_20
REMARK   12  A    between atoms: P_19  and  O_21
REMARK   13  A    between atoms: C_25  and  C_26
REMARK                            x       y       z     vdW  Elec       q    Type
REMARK                         _______ _______ _______ _____ _____    ______ ____
ROOT
ATOM      1  C   UNL     1       6.165  -1.974  25.281  0.00  0.00    +0.212 C 
ATOM      2  C   UNL     1       7.263  -2.083  26.357  0.00  0.00    +0.188 C 
ATOM      3  O   UNL     1       8.405  -1.342  25.866  0.00  0.00    -0.347 OA
ATOM      4  C   UNL     1       8.060  -0.790  24.588  0.00  0.00    +0.227 C 
ATOM      5  C   UNL     1       6.550  -0.682  24.584  0.00  0.00    +0.102 C 
ENDROOT
BRANCH   4   6
ATOM      6  N   UNL     1       8.732   0.478  24.369  0.00  0.00    -0.274 N 
ATOM      7  C   UNL     1       9.869   0.459  23.576  0.00  0.00    +0.331 A 
ATOM      8  O   UNL     1      10.325  -0.552  23.051  0.00  0.00    -0.246 OA
ATOM      9  N   UNL     1      10.474   1.670  23.383  0.00  0.00    -0.275 N 
ATOM     10  H   UNL     1      11.294   1.679  22.801  0.00  0.00    +0.173 HD
ATOM     11  C   UNL     1      10.025   2.872  23.829  0.00  0.00    +0.257 A 
ATOM     12  O   UNL     1      10.588   3.930  23.547  0.00  0.00    -0.267 OA
ATOM     13  C   UNL     1       8.797   2.844  24.664  0.00  0.00    +0.030 A 
ATOM     14  C   UNL     1       8.302   4.137  25.214  0.00  0.00    +0.051 C 
ATOM     15  C   UNL     1       8.230   1.653  24.889  0.00  0.00    +0.101 A 
ENDBRANCH   4   6
BRANCH   1  16
ATOM     16  O   UNL     1       4.852  -1.907  25.864  0.00  0.00    -0.459 OA
BRANCH  16  18
ATOM     17  C   UNL     1       3.834  -3.681  24.681  0.00  0.00    +0.136 C 
ATOM     18  C   UNL     1       4.216  -3.108  26.012  0.00  0.00    +0.304 C 
ATOM     19  O   UNL     1       3.965  -3.642  27.083  0.00  0.00    -0.251 OA
ENDBRANCH  16  18
ENDBRANCH   1  16
BRANCH   2  20
ATOM     20  C   UNL     1       7.725  -3.519  26.658  0.00  0.00    +0.207 C 
BRANCH  20  21
ATOM     21  O   UNL     1       7.540  -4.330  25.496  0.00  0.00    -0.284 OA
BRANCH  21  22
ATOM     22  P   UNL     1       8.794  -4.832  24.622  0.00  0.00    +0.483 P 
ATOM     23  O   UNL     1       9.794  -3.776  24.292  0.00  0.00    -0.227 OA
BRANCH  22  24
ATOM     24  O   UNL     1       9.434  -5.955  25.569  0.00  0.00    -0.302 OA
ATOM     25  H   UNL     1      10.223  -5.573  26.008  0.00  0.00    +0.222 HD
ENDBRANCH  22  24
BRANCH  22  26
ATOM     26  O   UNL     1       8.199  -5.620  23.380  0.00  0.00    -0.186 OA
BRANCH  26  27
ATOM     27  P   UNL     1       6.719  -5.236  22.571  0.00  0.00    +0.481 P 
ATOM     28  O   UNL     1       5.393  -4.894  21.847  0.00  0.00    -0.227 OA
BRANCH  27  29
ATOM     29  O   UNL     1       7.431  -5.904  21.258  0.00  0.00    -0.302 OA
ATOM     30  H   UNL     1       7.871  -5.195  20.746  0.00  0.00    +0.222 HD
ENDBRANCH  27  29
BRANCH  27  31
ATOM     31  O   UNL     1       7.335  -3.732  22.370  0.00  0.00    -0.302 OA
ATOM     32  H   UNL     1       6.667  -3.089  22.677  0.00  0.00    +0.222 HD
ENDBRANCH  27  31
ENDBRANCH  26  27
ENDBRANCH  22  26
ENDBRANCH  21  22
ENDBRANCH  20  21
ENDBRANCH   2  20
TORSDOF 11
ENDMDL
