MODEL 1
REMARK VINA RESULT:      -3.5      0.000      0.000
REMARK  Name = 
REMARK  6 active torsions:
REMARK  status: ('A' for Active; 'I' for Inactive)
REMARK    1  A    between atoms: N_1  and  C_2
REMARK    2  A    between atoms: C_2  and  C_4
REMARK    3  A    between atoms: C_2  and  C_7
REMARK    4  A    between atoms: C_4  and  S_5
REMARK    5  A    between atoms: S_5  and  S_6
REMARK    6  A    between atoms: C_7  and  O_8
REMARK                            x       y       z     vdW  Elec       q    Type
REMARK                         _______ _______ _______ _____ _____    ______ ____
ROOT
ATOM      1  C   UNK     1       9.028  -4.632  25.289  0.00  0.00    +0.171 C 
ENDROOT
BRANCH   1   2
ATOM      2  N   UNK     1      10.085  -5.704  25.330  0.00  0.00    -0.318 NA
ATOM      3  H   UNK     1      10.000  -6.213  26.217  0.00  0.00    +0.119 HD
ATOM      4  H   UNK     1       9.848  -6.401  24.617  0.00  0.00    +0.119 HD
ENDBRANCH   1   2
BRANCH   1   5
ATOM      5  C   UNK     1       8.184  -4.766  26.568  0.00  0.00    +0.323 C 
ATOM      6  O   UNK     1       7.598  -3.865  27.142  0.00  0.00    -0.249 OA
BRANCH   5   7
ATOM      7  O   UNK     1       8.180  -6.054  27.020  0.00  0.00    -0.480 OA
ATOM      8  H   UNK     1       9.116  -6.246  27.284  0.00  0.00    +0.295 HD
ENDBRANCH   5   7
ENDBRANCH   1   5
BRANCH   1   9
ATOM      9  C   UNK     1       8.157  -4.747  24.023  0.00  0.00    +0.110 C 
BRANCH   9  10
ATOM     10  S   UNK     1       8.025  -3.155  23.136  0.00  0.00    -0.094 S 
BRANCH  10  11
ATOM     11  S   UNK     1       9.746  -2.165  23.671  0.00  0.00    -0.110 S 
ATOM     12  H   UNK     1      10.236  -1.860  22.457  0.00  0.00    +0.114 HD
ENDBRANCH  10  11
ENDBRANCH   9  10
ENDBRANCH   1   9
TORSDOF 6
ENDMDL
MODEL 2
REMARK VINA RESULT:      -3.4      2.105      2.455
REMARK  Name = 
REMARK  6 active torsions:
REMARK  status: ('A' for Active; 'I' for Inactive)
REMARK    1  A    between atoms: N_1  and  C_2
REMARK    2  A    between atoms: C_2  and  C_4
REMARK    3  A    between atoms: C_2  and  C_7
REMARK    4  A    between atoms: C_4  and  S_5
REMARK    5  A    between atoms: S_5  and  S_6
REMARK    6  A    between atoms: C_7  and  O_8
REMARK                            x       y       z     vdW  Elec       q    Type
REMARK                         _______ _______ _______ _____ _____    ______ ____
ROOT
ATOM      1  C   UNK     1       8.083  -4.740  26.033  0.00  0.00    +0.171 C 
ENDROOT
BRANCH   1   2
ATOM      2  N   UNK     1       8.134  -5.669  27.217  0.00  0.00    -0.318 NA
ATOM      3  H   UNK     1       8.624  -5.195  27.983  0.00  0.00    +0.119 HD
ATOM      4  H   UNK     1       7.176  -5.782  27.563  0.00  0.00    +0.119 HD
ENDBRANCH   1   2
BRANCH   1   5
ATOM      5  C   UNK     1       8.985  -5.336  24.938  0.00  0.00    +0.323 C 
ATOM      6  O   UNK     1       8.665  -5.566  23.786  0.00  0.00    -0.249 OA
BRANCH   5   7
ATOM      7  O   UNK     1      10.231  -5.610  25.425  0.00  0.00    -0.480 OA
ATOM      8  H   UNK     1      10.323  -6.596  25.381  0.00  0.00    +0.295 HD
ENDBRANCH   5   7
ENDBRANCH   1   5
BRANCH   1   9
ATOM      9  C   UNK     1       8.526  -3.315  26.415  0.00  0.00    +0.110 C 
BRANCH   9  10
ATOM     10  S   UNK     1       7.981  -2.076  25.187  0.00  0.00    -0.094 S 
BRANCH  10  11
ATOM     11  S   UNK     1       9.642  -1.811  24.005  0.00  0.00    -0.110 S 
ATOM     12  H   UNK     1      10.615  -2.002  24.912  0.00  0.00    +0.114 HD
ENDBRANCH  10  11
ENDBRANCH   9  10
ENDBRANCH   1   9
TORSDOF 6
ENDMDL
MODEL 3
REMARK VINA RESULT:      -3.3      2.343      2.564
REMARK  Name = 
REMARK  6 active torsions:
REMARK  status: ('A' for Active; 'I' for Inactive)
REMARK    1  A    between atoms: N_1  and  C_2
REMARK    2  A    between atoms: C_2  and  C_4
REMARK    3  A    between atoms: C_2  and  C_7
REMARK    4  A    between atoms: C_4  and  S_5
REMARK    5  A    between atoms: S_5  and  S_6
REMARK    6  A    between atoms: C_7  and  O_8
REMARK                            x       y       z     vdW  Elec       q    Type
REMARK                         _______ _______ _______ _____ _____    ______ ____
ROOT
ATOM      1  C   UNK     1       7.995  -5.244  25.692  0.00  0.00    +0.171 C 
ENDROOT
BRANCH   1   2
ATOM      2  N   UNK     1       8.126  -5.626  27.143  0.00  0.00    -0.318 NA
ATOM      3  H   UNK     1       8.029  -4.778  27.714  0.00  0.00    +0.119 HD
ATOM      4  H   UNK     1       7.306  -6.190  27.391  0.00  0.00    +0.119 HD
ENDBRANCH   1   2
BRANCH   1   5
ATOM      5  C   UNK     1       9.392  -4.839  25.192  0.00  0.00    +0.323 C 
ATOM      6  O   UNK     1       9.643  -3.951  24.398  0.00  0.00    -0.249 OA
BRANCH   5   7
ATOM      7  O   UNK     1      10.358  -5.631  25.743  0.00  0.00    -0.480 OA
ATOM      8  H   UNK     1      10.058  -6.563  25.589  0.00  0.00    +0.295 HD
ENDBRANCH   5   7
ENDBRANCH   1   5
BRANCH   1   9
ATOM      9  C   UNK     1       6.974  -4.107  25.498  0.00  0.00    +0.110 C 
BRANCH   9  10
ATOM     10  S   UNK     1       5.953  -4.351  24.003  0.00  0.00    -0.094 S 
BRANCH  10  11
ATOM     11  S   UNK     1       6.487  -2.774  22.796  0.00  0.00    -0.110 S 
ATOM     12  H   UNK     1       6.900  -1.892  23.722  0.00  0.00    +0.114 HD
ENDBRANCH  10  11
ENDBRANCH   9  10
ENDBRANCH   1   9
TORSDOF 6
ENDMDL
MODEL 4
REMARK VINA RESULT:      -3.3      5.435      5.963
REMARK  Name = 
REMARK  6 active torsions:
REMARK  status: ('A' for Active; 'I' for Inactive)
REMARK    1  A    between atoms: N_1  and  C_2
REMARK    2  A    between atoms: C_2  and  C_4
REMARK    3  A    between atoms: C_2  and  C_7
REMARK    4  A    between atoms: C_4  and  S_5
REMARK    5  A    between atoms: S_5  and  S_6
REMARK    6  A    between atoms: C_7  and  O_8
REMARK                            x       y       z     vdW  Elec       q    Type
REMARK                         _______ _______ _______ _____ _____    ______ ____
ROOT
ATOM      1  C   UNK     1       9.220  -0.312  21.719  0.00  0.00    +0.171 C 
ENDROOT
BRANCH   1   2
ATOM      2  N   UNK     1      10.245  -1.394  21.506  0.00  0.00    -0.318 NA
ATOM      3  H   UNK     1      10.967  -1.040  20.868  0.00  0.00    +0.119 HD
ATOM      4  H   UNK     1      10.741  -1.532  22.393  0.00  0.00    +0.119 HD
ENDBRANCH   1   2
BRANCH   1   5
ATOM      5  C   UNK     1       9.954   0.917  22.282  0.00  0.00    +0.323 C 
ATOM      6  O   UNK     1      10.537   0.982  23.350  0.00  0.00    -0.249 OA
BRANCH   5   7
ATOM      7  O   UNK     1       9.860   1.978  21.429  0.00  0.00    -0.480 OA
ATOM      8  H   UNK     1       8.919   1.984  21.115  0.00  0.00    +0.295 HD
ENDBRANCH   5   7
ENDBRANCH   1   5
BRANCH   1   9
ATOM      9  C   UNK     1       8.095  -0.779  22.663  0.00  0.00    +0.110 C 
BRANCH   9  10
ATOM     10  S   UNK     1       7.856  -2.589  22.599  0.00  0.00    -0.094 S 
BRANCH  10  11
ATOM     11  S   UNK     1       8.740  -3.250  24.333  0.00  0.00    -0.110 S 
ATOM     12  H   UNK     1       9.887  -3.751  23.843  0.00  0.00    +0.114 HD
ENDBRANCH  10  11
ENDBRANCH   9  10
ENDBRANCH   1   9
TORSDOF 6
ENDMDL
MODEL 5
REMARK VINA RESULT:      -3.3      1.525      1.695
REMARK  Name = 
REMARK  6 active torsions:
REMARK  status: ('A' for Active; 'I' for Inactive)
REMARK    1  A    between atoms: N_1  and  C_2
REMARK    2  A    between atoms: C_2  and  C_4
REMARK    3  A    between atoms: C_2  and  C_7
REMARK    4  A    between atoms: C_4  and  S_5
REMARK    5  A    between atoms: S_5  and  S_6
REMARK    6  A    between atoms: C_7  and  O_8
REMARK                            x       y       z     vdW  Elec       q    Type
REMARK                         _______ _______ _______ _____ _____    ______ ____
ROOT
ATOM      1  C   UNK     1       9.266  -4.422  25.487  0.00  0.00    +0.171 C 
ENDROOT
BRANCH   1   2
ATOM      2  N   UNK     1       9.982  -5.730  25.275  0.00  0.00    -0.318 NA
ATOM      3  H   UNK     1      10.963  -5.613  25.551  0.00  0.00    +0.119 HD
ATOM      4  H   UNK     1       9.608  -6.401  25.953  0.00  0.00    +0.119 HD
ENDBRANCH   1   2
BRANCH   1   5
ATOM      5  C   UNK     1       8.161  -4.662  26.529  0.00  0.00    +0.323 C 
ATOM      6  O   UNK     1       7.358  -3.839  26.931  0.00  0.00    -0.249 OA
BRANCH   5   7
ATOM      7  O   UNK     1       8.192  -5.947  26.989  0.00  0.00    -0.480 OA
ATOM      8  H   UNK     1       8.026  -5.884  27.965  0.00  0.00    +0.295 HD
ENDBRANCH   5   7
ENDBRANCH   1   5
BRANCH   1   9
ATOM      9  C   UNK     1       8.688  -3.875  24.167  0.00  0.00    +0.110 C 
BRANCH   9  10
ATOM     10  S   UNK     1       7.433  -4.995  23.454  0.00  0.00    -0.094 S 
BRANCH  10  11
ATOM     11  S   UNK     1       5.895  -3.729  22.946  0.00  0.00    -0.110 S 
ATOM     12  H   UNK     1       4.837  -4.508  23.232  0.00  0.00    +0.114 HD
ENDBRANCH  10  11
ENDBRANCH   9  10
ENDBRANCH   1   9
TORSDOF 6
ENDMDL
MODEL 6
REMARK VINA RESULT:      -3.3      5.656      6.121
REMARK  Name = 
REMARK  6 active torsions:
REMARK  status: ('A' for Active; 'I' for Inactive)
REMARK    1  A    between atoms: N_1  and  C_2
REMARK    2  A    between atoms: C_2  and  C_4
REMARK    3  A    between atoms: C_2  and  C_7
REMARK    4  A    between atoms: C_4  and  S_5
REMARK    5  A    between atoms: S_5  and  S_6
REMARK    6  A    between atoms: C_7  and  O_8
REMARK                            x       y       z     vdW  Elec       q    Type
REMARK                         _______ _______ _______ _____ _____    ______ ____
ROOT
ATOM      1  C   UNK     1       9.710   0.671  22.031  0.00  0.00    +0.171 C 
ENDROOT
BRANCH   1   2
ATOM      2  N   UNK     1       8.887   1.409  21.008  0.00  0.00    -0.318 NA
ATOM      3  H   UNK     1       8.907   2.410  21.234  0.00  0.00    +0.119 HD
ATOM      4  H   UNK     1       9.377   1.345  20.110  0.00  0.00    +0.119 HD
ENDBRANCH   1   2
BRANCH   1   5
ATOM      5  C   UNK     1       9.292  -0.808  21.982  0.00  0.00    +0.323 C 
ATOM      6  O   UNK     1       8.211  -1.262  22.309  0.00  0.00    -0.249 OA
BRANCH   5   7
ATOM      7  O   UNK     1      10.316  -1.593  21.534  0.00  0.00    -0.480 OA
ATOM      8  H   UNK     1      10.513  -1.274  20.616  0.00  0.00    +0.295 HD
ENDBRANCH   5   7
ENDBRANCH   1   5
BRANCH   1   9
ATOM      9  C   UNK     1       9.523   1.264  23.440  0.00  0.00    +0.110 C 
BRANCH   9  10
ATOM     10  S   UNK     1      10.471   0.343  24.702  0.00  0.00    -0.094 S 
BRANCH  10  11
ATOM     11  S   UNK     1       9.011  -0.559  25.834  0.00  0.00    -0.110 S 
ATOM     12  H   UNK     1       9.734  -1.517  26.439  0.00  0.00    +0.114 HD
ENDBRANCH  10  11
ENDBRANCH   9  10
ENDBRANCH   1   9
TORSDOF 6
ENDMDL
MODEL 7
REMARK VINA RESULT:      -3.3      5.989      6.187
REMARK  Name = 
REMARK  6 active torsions:
REMARK  status: ('A' for Active; 'I' for Inactive)
REMARK    1  A    between atoms: N_1  and  C_2
REMARK    2  A    between atoms: C_2  and  C_4
REMARK    3  A    between atoms: C_2  and  C_7
REMARK    4  A    between atoms: C_4  and  S_5
REMARK    5  A    between atoms: S_5  and  S_6
REMARK    6  A    between atoms: C_7  and  O_8
REMARK                            x       y       z     vdW  Elec       q    Type
REMARK                         _______ _______ _______ _____ _____    ______ ____
ROOT
ATOM      1  C   UNK     1       9.601   1.122  22.634  0.00  0.00    +0.171 C 
ENDROOT
BRANCH   1   2
ATOM      2  N   UNK     1      10.152   2.254  21.807  0.00  0.00    -0.318 NA
ATOM      3  H   UNK     1      10.380   3.034  22.433  0.00  0.00    +0.119 HD
ATOM      4  H   UNK     1      11.060   1.954  21.437  0.00  0.00    +0.119 HD
ENDBRANCH   1   2
BRANCH   1   5
ATOM      5  C   UNK     1      10.226   1.226  24.035  0.00  0.00    +0.323 C 
ATOM      6  O   UNK     1      11.289   0.747  24.387  0.00  0.00    -0.249 OA
BRANCH   5   7
ATOM      7  O   UNK     1       9.416   1.924  24.884  0.00  0.00    -0.480 OA
ATOM      8  H   UNK     1       8.517   1.908  24.466  0.00  0.00    +0.295 HD
ENDBRANCH   5   7
ENDBRANCH   1   5
BRANCH   1   9
ATOM      9  C   UNK     1       9.892  -0.245  21.986  0.00  0.00    +0.110 C 
BRANCH   9  10
ATOM     10  S   UNK     1       8.656  -1.505  22.459  0.00  0.00    -0.094 S 
BRANCH  10  11
ATOM     11  S   UNK     1       9.605  -2.575  23.935  0.00  0.00    -0.110 S 
ATOM     12  H   UNK     1       8.569  -3.278  24.426  0.00  0.00    +0.114 HD
ENDBRANCH  10  11
ENDBRANCH   9  10
ENDBRANCH   1   9
TORSDOF 6
ENDMDL
MODEL 8
REMARK VINA RESULT:      -3.2      4.297      4.621
REMARK  Name = 
REMARK  6 active torsions:
REMARK  status: ('A' for Active; 'I' for Inactive)
REMARK    1  A    between atoms: N_1  and  C_2
REMARK    2  A    between atoms: C_2  and  C_4
REMARK    3  A    between atoms: C_2  and  C_7
REMARK    4  A    between atoms: C_4  and  S_5
REMARK    5  A    between atoms: S_5  and  S_6
REMARK    6  A    between atoms: C_7  and  O_8
REMARK                            x       y       z     vdW  Elec       q    Type
REMARK                         _______ _______ _______ _____ _____    ______ ____
ROOT
ATOM      1  C   UNK     1      10.367  -1.408  22.843  0.00  0.00    +0.171 C 
ENDROOT
BRANCH   1   2
ATOM      2  N   UNK     1       9.965  -1.467  21.393  0.00  0.00    -0.318 NA
ATOM      3  H   UNK     1      10.482  -2.230  20.941  0.00  0.00    +0.119 HD
ATOM      4  H   UNK     1       8.986  -1.771  21.354  0.00  0.00    +0.119 HD
ENDBRANCH   1   2
BRANCH   1   5
ATOM      5  C   UNK     1       9.414  -2.327  23.626  0.00  0.00    +0.323 C 
ATOM      6  O   UNK     1       8.225  -2.143  23.810  0.00  0.00    -0.249 OA
BRANCH   5   7
ATOM      7  O   UNK     1      10.080  -3.407  24.131  0.00  0.00    -0.480 OA
ATOM      8  H   UNK     1       9.375  -4.048  24.407  0.00  0.00    +0.295 HD
ENDBRANCH   5   7
ENDBRANCH   1   5
BRANCH   1   9
ATOM      9  C   UNK     1      10.327   0.035  23.380  0.00  0.00    +0.110 C 
BRANCH   9  10
ATOM     10  S   UNK     1       9.808   1.229  22.098  0.00  0.00    -0.094 S 
BRANCH  10  11
ATOM     11  S   UNK     1       7.781   1.402  22.398  0.00  0.00    -0.110 S 
ATOM     12  H   UNK     1       7.491   2.380  21.522  0.00  0.00    +0.114 HD
ENDBRANCH  10  11
ENDBRANCH   9  10
ENDBRANCH   1   9
TORSDOF 6
ENDMDL
MODEL 9
REMARK VINA RESULT:      -3.2      4.576      5.072
REMARK  Name = 
REMARK  6 active torsions:
REMARK  status: ('A' for Active; 'I' for Inactive)
REMARK    1  A    between atoms: N_1  and  C_2
REMARK    2  A    between atoms: C_2  and  C_4
REMARK    3  A    between atoms: C_2  and  C_7
REMARK    4  A    between atoms: C_4  and  S_5
REMARK    5  A    between atoms: S_5  and  S_6
REMARK    6  A    between atoms: C_7  and  O_8
REMARK                            x       y       z     vdW  Elec       q    Type
REMARK                         _______ _______ _______ _____ _____    ______ ____
ROOT
ATOM      1  C   UNK     1       9.388  -0.792  23.900  0.00  0.00    +0.171 C 
ENDROOT
BRANCH   1   2
ATOM      2  N   UNK     1       8.319  -1.262  24.851  0.00  0.00    -0.318 NA
ATOM      3  H   UNK     1       8.610  -2.162  25.249  0.00  0.00    +0.119 HD
ATOM      4  H   UNK     1       8.315  -0.623  25.652  0.00  0.00    +0.119 HD
ENDBRANCH   1   2
BRANCH   1   5
ATOM      5  C   UNK     1      10.057  -2.041  23.301  0.00  0.00    +0.323 C 
ATOM      6  O   UNK     1      10.230  -3.106  23.866  0.00  0.00    -0.249 OA
BRANCH   5   7
ATOM      7  O   UNK     1      10.473  -1.809  22.022  0.00  0.00    -0.480 OA
ATOM      8  H   UNK     1      10.855  -0.894  22.028  0.00  0.00    +0.295 HD
ENDBRANCH   5   7
ENDBRANCH   1   5
BRANCH   1   9
ATOM      9  C   UNK     1      10.415   0.113  24.608  0.00  0.00    +0.110 C 
BRANCH   9  10
ATOM     10  S   UNK     1      10.259   1.859  24.090  0.00  0.00    -0.094 S 
BRANCH  10  11
ATOM     11  S   UNK     1       9.839   1.727  22.082  0.00  0.00    -0.110 S 
ATOM     12  H   UNK     1       8.540   2.070  22.085  0.00  0.00    +0.114 HD
ENDBRANCH  10  11
ENDBRANCH   9  10
ENDBRANCH   1   9
TORSDOF 6
ENDMDL
