MODEL 1
REMARK VINA RESULT:      -7.5      0.000      0.000
REMARK  Name = 
REMARK  7 active torsions:
REMARK  status: ('A' for Active; 'I' for Inactive)
REMARK    1  A    between atoms: C_2  and  C_16
REMARK    2  A    between atoms: C_7  and  C_9
REMARK    3  A    between atoms: C_9  and  N_10
REMARK    4  A    between atoms: N_10  and  C_11
REMARK    5  A    between atoms: N_18  and  C_19
REMARK    6  A    between atoms: C_19  and  C_20
REMARK    7  A    between atoms: C_23  and  C_26
REMARK                            x       y       z     vdW  Elec       q    Type
REMARK                         _______ _______ _______ _____ _____    ______ ____
ROOT
ATOM      1  C   UNL     1       6.145  -1.769  23.705  0.00  0.00    +0.234 C 
ATOM      2  N   UNL     1       6.482  -0.444  23.511  0.00  0.00    -0.310 N 
ATOM      3  H   UNL     1       7.039  -0.156  22.723  0.00  0.00    +0.149 HD
ATOM      4  O   UNL     1       5.411  -2.115  24.631  0.00  0.00    -0.274 OA
ENDROOT
BRANCH   1   5
ATOM      5  C   UNL     1       6.855  -2.807  22.795  0.00  0.00    +0.162 C 
ATOM      6  N   UNL     1       7.646  -3.767  23.580  0.00  0.00    -0.289 N 
ATOM      7  C   UNL     1       8.923  -3.622  24.082  0.00  0.00    +0.230 C 
ATOM      8  O   UNL     1       9.529  -4.595  24.546  0.00  0.00    -0.274 OA
ATOM      9  C   UNL     1       7.020  -5.078  23.609  0.00  0.00    +0.108 C 
ATOM     10  C   UNL     1       5.679  -4.895  22.921  0.00  0.00    +0.021 C 
ATOM     11  C   UNL     1       5.934  -3.724  21.984  0.00  0.00    +0.033 C 
BRANCH   7  12
ATOM     12  C   UNL     1       9.580  -2.234  24.072  0.00  0.00    +0.178 C 
BRANCH  12  13
ATOM     13  N   UNL     1      10.056  -1.845  22.732  0.00  0.00    -0.305 NA
ATOM     14  H   UNL     1       9.275  -1.982  22.072  0.00  0.00    +0.123 HD
BRANCH  13  15
ATOM     15  C   UNL     1      10.517  -0.461  22.653  0.00  0.00    +0.054 C 
ATOM     16  C   UNL     1      10.461   0.240  24.017  0.00  0.00    +0.019 C 
ATOM     17  C   UNL     1      10.221   1.722  23.715  0.00  0.00    +0.002 C 
ATOM     18  C   UNL     1      10.053   1.829  22.203  0.00  0.00    +0.002 C 
ATOM     19  C   UNL     1       9.651   0.432  21.768  0.00  0.00    +0.019 C 
ENDBRANCH  13  15
ENDBRANCH  12  13
ENDBRANCH   7  12
ENDBRANCH   1   5
BRANCH   2  20
ATOM     20  C   UNL     1       5.992   0.607  24.381  0.00  0.00    +0.139 C 
BRANCH  20  21
ATOM     21  C   UNL     1       6.393   1.980  23.908  0.00  0.00    -0.030 A 
ATOM     22  C   UNL     1       6.916   2.932  24.795  0.00  0.00    +0.006 A 
ATOM     23  C   UNL     1       7.404   4.148  24.313  0.00  0.00    +0.016 A 
ATOM     24  C   UNL     1       7.363   4.430  22.943  0.00  0.00    +0.065 A 
ATOM     25  C   UNL     1       6.790   3.509  22.061  0.00  0.00    +0.016 A 
ATOM     26  C   UNL     1       6.311   2.292  22.543  0.00  0.00    +0.006 A 
BRANCH  24  27
ATOM     27  C   UNL     1       7.948   5.698  22.429  0.00  0.00    +0.308 C 
ATOM     28  N   UNL     1       9.009   6.242  22.934  0.00  0.00    -0.099 NA
ATOM     29  H   UNL     1       9.343   5.721  23.750  0.00  0.00    +0.363 HD
ATOM     30  N   UNL     1       7.373   6.352  21.380  0.00  0.00    -0.247 N 
ATOM     31  H   UNL     1       7.996   7.074  21.030  0.00  0.00    +0.288 HD
ATOM     32  H   UNL     1       7.002   5.764  20.644  0.00  0.00    +0.288 HD
ENDBRANCH  24  27
ENDBRANCH  20  21
ENDBRANCH   2  20
TORSDOF 7
ENDMDL
MODEL 2
REMARK VINA RESULT:      -7.5      0.882      1.504
REMARK  Name = 
REMARK  7 active torsions:
REMARK  status: ('A' for Active; 'I' for Inactive)
REMARK    1  A    between atoms: C_2  and  C_16
REMARK    2  A    between atoms: C_7  and  C_9
REMARK    3  A    between atoms: C_9  and  N_10
REMARK    4  A    between atoms: N_10  and  C_11
REMARK    5  A    between atoms: N_18  and  C_19
REMARK    6  A    between atoms: C_19  and  C_20
REMARK    7  A    between atoms: C_23  and  C_26
REMARK                            x       y       z     vdW  Elec       q    Type
REMARK                         _______ _______ _______ _____ _____    ______ ____
ROOT
ATOM      1  C   UNL     1       6.412  -1.510  24.562  0.00  0.00    +0.234 C 
ATOM      2  N   UNL     1       5.926  -0.373  23.948  0.00  0.00    -0.310 N 
ATOM      3  H   UNL     1       5.664  -0.375  22.976  0.00  0.00    +0.149 HD
ATOM      4  O   UNL     1       6.673  -1.529  25.765  0.00  0.00    -0.274 OA
ENDROOT
BRANCH   1   5
ATOM      5  C   UNL     1       6.753  -2.709  23.635  0.00  0.00    +0.162 C 
ATOM      6  N   UNL     1       7.809  -3.556  24.209  0.00  0.00    -0.289 N 
ATOM      7  C   UNL     1       9.176  -3.379  24.158  0.00  0.00    +0.230 C 
ATOM      8  O   UNL     1       9.941  -4.284  24.511  0.00  0.00    -0.274 OA
ATOM      9  C   UNL     1       7.278  -4.821  24.689  0.00  0.00    +0.108 C 
ATOM     10  C   UNL     1       5.772  -4.703  24.541  0.00  0.00    +0.021 C 
ATOM     11  C   UNL     1       5.618  -3.712  23.398  0.00  0.00    +0.033 C 
BRANCH   7  12
ATOM     12  C   UNL     1       9.741  -2.036  23.671  0.00  0.00    +0.178 C 
BRANCH  12  13
ATOM     13  N   UNL     1       9.679  -0.989  24.707  0.00  0.00    -0.305 NA
ATOM     14  H   UNL     1      10.538  -1.060  25.273  0.00  0.00    +0.123 HD
BRANCH  13  15
ATOM     15  C   UNL     1       9.568   0.364  24.168  0.00  0.00    +0.054 C 
ATOM     16  C   UNL     1       9.383   0.359  22.644  0.00  0.00    +0.019 C 
ATOM     17  C   UNL     1      10.011   1.664  22.144  0.00  0.00    +0.002 C 
ATOM     18  C   UNL     1      10.620   2.342  23.366  0.00  0.00    +0.002 C 
ATOM     19  C   UNL     1      10.820   1.215  24.363  0.00  0.00    +0.019 C 
ENDBRANCH  13  15
ENDBRANCH  12  13
ENDBRANCH   7  12
ENDBRANCH   1   5
BRANCH   2  20
ATOM     20  C   UNL     1       5.697   0.856  24.682  0.00  0.00    +0.139 C 
BRANCH  20  21
ATOM     21  C   UNL     1       6.390   2.038  24.057  0.00  0.00    -0.030 A 
ATOM     22  C   UNL     1       6.259   2.320  22.690  0.00  0.00    +0.006 A 
ATOM     23  C   UNL     1       6.799   3.493  22.159  0.00  0.00    +0.016 A 
ATOM     24  C   UNL     1       7.487   4.388  22.986  0.00  0.00    +0.065 A 
ATOM     25  C   UNL     1       7.671   4.085  24.337  0.00  0.00    +0.016 A 
ATOM     26  C   UNL     1       7.122   2.918  24.868  0.00  0.00    +0.006 A 
BRANCH  24  27
ATOM     27  C   UNL     1       8.000   5.668  22.427  0.00  0.00    +0.308 C 
ATOM     28  N   UNL     1       9.056   6.264  22.882  0.00  0.00    -0.099 NA
ATOM     29  H   UNL     1       9.440   5.774  23.694  0.00  0.00    +0.363 HD
ATOM     30  N   UNL     1       7.361   6.277  21.388  0.00  0.00    -0.247 N 
ATOM     31  H   UNL     1       7.941   7.016  21.001  0.00  0.00    +0.288 HD
ATOM     32  H   UNL     1       6.988   5.660  20.677  0.00  0.00    +0.288 HD
ENDBRANCH  24  27
ENDBRANCH  20  21
ENDBRANCH   2  20
TORSDOF 7
ENDMDL
MODEL 3
REMARK VINA RESULT:      -7.2      2.892      7.710
REMARK  Name = 
REMARK  7 active torsions:
REMARK  status: ('A' for Active; 'I' for Inactive)
REMARK    1  A    between atoms: C_2  and  C_16
REMARK    2  A    between atoms: C_7  and  C_9
REMARK    3  A    between atoms: C_9  and  N_10
REMARK    4  A    between atoms: N_10  and  C_11
REMARK    5  A    between atoms: N_18  and  C_19
REMARK    6  A    between atoms: C_19  and  C_20
REMARK    7  A    between atoms: C_23  and  C_26
REMARK                            x       y       z     vdW  Elec       q    Type
REMARK                         _______ _______ _______ _____ _____    ______ ____
ROOT
ATOM      1  C   UNL     1       7.327  -1.204  22.579  0.00  0.00    +0.234 C 
ATOM      2  N   UNL     1       6.068  -1.770  22.619  0.00  0.00    -0.310 N 
ATOM      3  H   UNL     1       5.284  -1.273  23.008  0.00  0.00    +0.149 HD
ATOM      4  O   UNL     1       8.274  -1.782  22.046  0.00  0.00    -0.274 OA
ENDROOT
BRANCH   1   5
ATOM      5  C   UNL     1       7.519   0.120  23.367  0.00  0.00    +0.162 C 
ATOM      6  N   UNL     1       8.937   0.375  23.663  0.00  0.00    -0.289 N 
ATOM      7  C   UNL     1       9.702  -0.124  24.696  0.00  0.00    +0.230 C 
ATOM      8  O   UNL     1      10.823   0.343  24.930  0.00  0.00    -0.274 OA
ATOM      9  C   UNL     1       9.467   1.455  22.848  0.00  0.00    +0.108 C 
ATOM     10  C   UNL     1       8.355   1.805  21.876  0.00  0.00    +0.021 C 
ATOM     11  C   UNL     1       7.100   1.399  22.633  0.00  0.00    +0.033 C 
BRANCH   7  12
ATOM     12  C   UNL     1       9.154  -1.279  25.547  0.00  0.00    +0.178 C 
BRANCH  12  13
ATOM     13  N   UNL     1       9.331  -2.591  24.897  0.00  0.00    -0.305 NA
ATOM     14  H   UNL     1      10.267  -2.941  25.152  0.00  0.00    +0.123 HD
BRANCH  13  15
ATOM     15  C   UNL     1       8.326  -3.577  25.285  0.00  0.00    +0.054 C 
ATOM     16  C   UNL     1       7.271  -2.980  26.225  0.00  0.00    +0.019 C 
ATOM     17  C   UNL     1       6.793  -4.139  27.105  0.00  0.00    +0.002 C 
ATOM     18  C   UNL     1       7.640  -5.347  26.720  0.00  0.00    +0.002 C 
ATOM     19  C   UNL     1       8.884  -4.750  26.088  0.00  0.00    +0.019 C 
ENDBRANCH  13  15
ENDBRANCH  12  13
ENDBRANCH   7  12
ENDBRANCH   1   5
BRANCH   2  20
ATOM     20  C   UNL     1       5.793  -3.069  22.039  0.00  0.00    +0.139 C 
BRANCH  20  21
ATOM     21  C   UNL     1       5.383  -4.087  23.071  0.00  0.00    -0.030 A 
ATOM     22  C   UNL     1       4.410  -3.792  24.038  0.00  0.00    +0.006 A 
ATOM     23  C   UNL     1       3.950  -4.790  24.899  0.00  0.00    +0.016 A 
ATOM     24  C   UNL     1       4.466  -6.088  24.811  0.00  0.00    +0.065 A 
ATOM     25  C   UNL     1       5.476  -6.373  23.889  0.00  0.00    +0.016 A 
ATOM     26  C   UNL     1       5.928  -5.378  23.024  0.00  0.00    +0.006 A 
BRANCH  24  27
ATOM     27  C   UNL     1       3.922  -7.162  25.686  0.00  0.00    +0.308 C 
ATOM     28  N   UNL     1       3.225  -8.155  25.233  0.00  0.00    -0.099 NA
ATOM     29  H   UNL     1       3.057  -8.066  24.227  0.00  0.00    +0.363 HD
ATOM     30  N   UNL     1       4.143  -7.140  27.031  0.00  0.00    -0.247 N 
ATOM     31  H   UNL     1       3.885  -8.031  27.445  0.00  0.00    +0.288 HD
ATOM     32  H   UNL     1       5.060  -6.824  27.322  0.00  0.00    +0.288 HD
ENDBRANCH  24  27
ENDBRANCH  20  21
ENDBRANCH   2  20
TORSDOF 7
ENDMDL
MODEL 4
REMARK VINA RESULT:      -7.1      3.260      7.791
REMARK  Name = 
REMARK  7 active torsions:
REMARK  status: ('A' for Active; 'I' for Inactive)
REMARK    1  A    between atoms: C_2  and  C_16
REMARK    2  A    between atoms: C_7  and  C_9
REMARK    3  A    between atoms: C_9  and  N_10
REMARK    4  A    between atoms: N_10  and  C_11
REMARK    5  A    between atoms: N_18  and  C_19
REMARK    6  A    between atoms: C_19  and  C_20
REMARK    7  A    between atoms: C_23  and  C_26
REMARK                            x       y       z     vdW  Elec       q    Type
REMARK                         _______ _______ _______ _____ _____    ______ ____
ROOT
ATOM      1  C   UNL     1       8.751  -0.148  25.278  0.00  0.00    +0.234 C 
ATOM      2  N   UNL     1       8.341  -1.325  25.871  0.00  0.00    -0.310 N 
ATOM      3  H   UNL     1       8.912  -2.154  25.839  0.00  0.00    +0.149 HD
ATOM      4  O   UNL     1       8.086   0.883  25.371  0.00  0.00    -0.274 OA
ENDROOT
BRANCH   1   5
ATOM      5  C   UNL     1      10.008  -0.229  24.369  0.00  0.00    +0.162 C 
ATOM      6  N   UNL     1       9.673   0.012  22.957  0.00  0.00    -0.289 N 
ATOM      7  C   UNL     1       9.182  -0.879  22.027  0.00  0.00    +0.230 C 
ATOM      8  O   UNL     1       9.144  -0.578  20.828  0.00  0.00    -0.274 OA
ATOM      9  C   UNL     1      10.143   1.313  22.512  0.00  0.00    +0.108 C 
ATOM     10  C   UNL     1      10.677   1.994  23.759  0.00  0.00    +0.021 C 
ATOM     11  C   UNL     1      11.092   0.821  24.636  0.00  0.00    +0.033 C 
BRANCH   7  12
ATOM     12  C   UNL     1       8.665  -2.247  22.496  0.00  0.00    +0.178 C 
BRANCH  12  13
ATOM     13  N   UNL     1       7.243  -2.210  22.883  0.00  0.00    -0.305 NA
ATOM     14  H   UNL     1       6.817  -1.389  22.426  0.00  0.00    +0.123 HD
BRANCH  13  15
ATOM     15  C   UNL     1       6.501  -3.410  22.506  0.00  0.00    +0.054 C 
ATOM     16  C   UNL     1       5.165  -3.516  23.252  0.00  0.00    +0.019 C 
ATOM     17  C   UNL     1       4.877  -5.015  23.381  0.00  0.00    +0.002 C 
ATOM     18  C   UNL     1       6.085  -5.736  22.794  0.00  0.00    +0.002 C 
ATOM     19  C   UNL     1       7.206  -4.716  22.869  0.00  0.00    +0.019 C 
ENDBRANCH  13  15
ENDBRANCH  12  13
ENDBRANCH   7  12
ENDBRANCH   1   5
BRANCH   2  20
ATOM     20  C   UNL     1       7.110  -1.412  26.632  0.00  0.00    +0.139 C 
BRANCH  20  21
ATOM     21  C   UNL     1       6.550  -2.811  26.665  0.00  0.00    -0.030 A 
ATOM     22  C   UNL     1       7.370  -3.928  26.449  0.00  0.00    +0.006 A 
ATOM     23  C   UNL     1       6.859  -5.217  26.615  0.00  0.00    +0.016 A 
ATOM     24  C   UNL     1       5.522  -5.402  26.987  0.00  0.00    +0.065 A 
ATOM     25  C   UNL     1       4.686  -4.293  27.148  0.00  0.00    +0.016 A 
ATOM     26  C   UNL     1       5.201  -3.007  26.990  0.00  0.00    +0.006 A 
BRANCH  24  27
ATOM     27  C   UNL     1       5.004  -6.775  27.230  0.00  0.00    +0.308 C 
ATOM     28  N   UNL     1       5.289  -7.460  28.292  0.00  0.00    -0.099 NA
ATOM     29  H   UNL     1       5.950  -6.959  28.892  0.00  0.00    +0.363 HD
ATOM     30  N   UNL     1       4.188  -7.379  26.320  0.00  0.00    -0.247 N 
ATOM     31  H   UNL     1       3.768  -8.212  26.722  0.00  0.00    +0.288 HD
ATOM     32  H   UNL     1       3.509  -6.777  25.869  0.00  0.00    +0.288 HD
ENDBRANCH  24  27
ENDBRANCH  20  21
ENDBRANCH   2  20
TORSDOF 7
ENDMDL
MODEL 5
REMARK VINA RESULT:      -7.1      1.787      3.872
REMARK  Name = 
REMARK  7 active torsions:
REMARK  status: ('A' for Active; 'I' for Inactive)
REMARK    1  A    between atoms: C_2  and  C_16
REMARK    2  A    between atoms: C_7  and  C_9
REMARK    3  A    between atoms: C_9  and  N_10
REMARK    4  A    between atoms: N_10  and  C_11
REMARK    5  A    between atoms: N_18  and  C_19
REMARK    6  A    between atoms: C_19  and  C_20
REMARK    7  A    between atoms: C_23  and  C_26
REMARK                            x       y       z     vdW  Elec       q    Type
REMARK                         _______ _______ _______ _____ _____    ______ ____
ROOT
ATOM      1  C   UNL     1       8.024  -2.874  23.728  0.00  0.00    +0.234 C 
ATOM      2  N   UNL     1       9.334  -2.460  23.852  0.00  0.00    -0.310 N 
ATOM      3  H   UNL     1       9.866  -2.649  24.686  0.00  0.00    +0.149 HD
ATOM      4  O   UNL     1       7.392  -2.702  22.686  0.00  0.00    -0.274 OA
ENDROOT
BRANCH   1   5
ATOM      5  C   UNL     1       7.346  -3.430  25.010  0.00  0.00    +0.162 C 
ATOM      6  N   UNL     1       5.879  -3.402  24.905  0.00  0.00    -0.289 N 
ATOM      7  C   UNL     1       5.020  -2.348  25.141  0.00  0.00    +0.230 C 
ATOM      8  O   UNL     1       3.800  -2.536  25.208  0.00  0.00    -0.274 OA
ATOM      9  C   UNL     1       5.331  -4.736  24.732  0.00  0.00    +0.108 C 
ATOM     10  C   UNL     1       6.535  -5.646  24.572  0.00  0.00    +0.021 C 
ATOM     11  C   UNL     1       7.626  -4.902  25.329  0.00  0.00    +0.033 C 
BRANCH   7  12
ATOM     12  C   UNL     1       5.595  -0.933  25.303  0.00  0.00    +0.178 C 
BRANCH  12  13
ATOM     13  N   UNL     1       5.776  -0.247  24.011  0.00  0.00    -0.305 NA
ATOM     14  H   UNL     1       4.848   0.075  23.696  0.00  0.00    +0.123 HD
BRANCH  13  15
ATOM     15  C   UNL     1       6.685   0.895  24.077  0.00  0.00    +0.054 C 
ATOM     16  C   UNL     1       7.345   1.022  25.457  0.00  0.00    +0.019 C 
ATOM     17  C   UNL     1       7.614   2.518  25.654  0.00  0.00    +0.002 C 
ATOM     18  C   UNL     1       7.026   3.223  24.437  0.00  0.00    +0.002 C 
ATOM     19  C   UNL     1       5.998   2.247  23.895  0.00  0.00    +0.019 C 
ENDBRANCH  13  15
ENDBRANCH  12  13
ENDBRANCH   7  12
ENDBRANCH   1   5
BRANCH   2  20
ATOM     20  C   UNL     1      10.036  -1.802  22.768  0.00  0.00    +0.139 C 
BRANCH  20  21
ATOM     21  C   UNL     1      10.122  -0.310  22.958  0.00  0.00    -0.030 A 
ATOM     22  C   UNL     1      10.663   0.245  24.127  0.00  0.00    +0.006 A 
ATOM     23  C   UNL     1      10.855   1.625  24.226  0.00  0.00    +0.016 A 
ATOM     24  C   UNL     1      10.496   2.464  23.165  0.00  0.00    +0.065 A 
ATOM     25  C   UNL     1       9.902   1.922  22.021  0.00  0.00    +0.016 A 
ATOM     26  C   UNL     1       9.720   0.543  21.920  0.00  0.00    +0.006 A 
BRANCH  24  27
ATOM     27  C   UNL     1      10.766   3.925  23.250  0.00  0.00    +0.308 C 
ATOM     28  N   UNL     1       9.841   4.802  23.477  0.00  0.00    -0.099 NA
ATOM     29  H   UNL     1       8.916   4.364  23.527  0.00  0.00    +0.363 HD
ATOM     30  N   UNL     1      12.031   4.406  23.090  0.00  0.00    -0.247 N 
ATOM     31  H   UNL     1      12.076   5.380  23.374  0.00  0.00    +0.288 HD
ATOM     32  H   UNL     1      12.771   3.845  23.495  0.00  0.00    +0.288 HD
ENDBRANCH  24  27
ENDBRANCH  20  21
ENDBRANCH   2  20
TORSDOF 7
ENDMDL
MODEL 6
REMARK VINA RESULT:      -6.9      2.688      6.902
REMARK  Name = 
REMARK  7 active torsions:
REMARK  status: ('A' for Active; 'I' for Inactive)
REMARK    1  A    between atoms: C_2  and  C_16
REMARK    2  A    between atoms: C_7  and  C_9
REMARK    3  A    between atoms: C_9  and  N_10
REMARK    4  A    between atoms: N_10  and  C_11
REMARK    5  A    between atoms: N_18  and  C_19
REMARK    6  A    between atoms: C_19  and  C_20
REMARK    7  A    between atoms: C_23  and  C_26
REMARK                            x       y       z     vdW  Elec       q    Type
REMARK                         _______ _______ _______ _____ _____    ______ ____
ROOT
ATOM      1  C   UNL     1       7.406   0.729  24.224  0.00  0.00    +0.234 C 
ATOM      2  N   UNL     1       7.000  -0.201  25.159  0.00  0.00    -0.310 N 
ATOM      3  H   UNL     1       7.646  -0.584  25.831  0.00  0.00    +0.149 HD
ATOM      4  O   UNL     1       6.607   1.248  23.445  0.00  0.00    -0.274 OA
ENDROOT
BRANCH   1   5
ATOM      5  C   UNL     1       8.935   0.975  24.107  0.00  0.00    +0.162 C 
ATOM      6  N   UNL     1       9.543   0.132  23.066  0.00  0.00    -0.289 N 
ATOM      7  C   UNL     1       9.957  -1.181  23.158  0.00  0.00    +0.230 C 
ATOM      8  O   UNL     1      10.635  -1.690  22.258  0.00  0.00    -0.274 OA
ATOM      9  C   UNL     1       9.910   0.909  21.895  0.00  0.00    +0.108 C 
ATOM     10  C   UNL     1       9.368   2.303  22.155  0.00  0.00    +0.021 C 
ATOM     11  C   UNL     1       9.353   2.385  23.674  0.00  0.00    +0.033 C 
BRANCH   7  12
ATOM     12  C   UNL     1       9.553  -2.012  24.385  0.00  0.00    +0.178 C 
BRANCH  12  13
ATOM     13  N   UNL     1       9.874  -3.442  24.227  0.00  0.00    -0.305 NA
ATOM     14  H   UNL     1      10.901  -3.536  24.259  0.00  0.00    +0.123 HD
BRANCH  13  15
ATOM     15  C   UNL     1       9.280  -4.293  25.255  0.00  0.00    +0.054 C 
ATOM     16  C   UNL     1       8.283  -5.297  24.661  0.00  0.00    +0.019 C 
ATOM     17  C   UNL     1       7.247  -5.555  25.761  0.00  0.00    +0.002 C 
ATOM     18  C   UNL     1       7.614  -4.635  26.920  0.00  0.00    +0.002 C 
ATOM     19  C   UNL     1       8.441  -3.534  26.281  0.00  0.00    +0.019 C 
ENDBRANCH  13  15
ENDBRANCH  12  13
ENDBRANCH   7  12
ENDBRANCH   1   5
BRANCH   2  20
ATOM     20  C   UNL     1       5.616  -0.618  25.275  0.00  0.00    +0.139 C 
BRANCH  20  21
ATOM     21  C   UNL     1       5.378  -1.989  24.698  0.00  0.00    -0.030 A 
ATOM     22  C   UNL     1       4.485  -2.887  25.301  0.00  0.00    +0.006 A 
ATOM     23  C   UNL     1       4.179  -4.098  24.678  0.00  0.00    +0.016 A 
ATOM     24  C   UNL     1       4.771  -4.430  23.453  0.00  0.00    +0.065 A 
ATOM     25  C   UNL     1       5.705  -3.565  22.877  0.00  0.00    +0.016 A 
ATOM     26  C   UNL     1       6.003  -2.352  23.496  0.00  0.00    +0.006 A 
BRANCH  24  27
ATOM     27  C   UNL     1       4.388  -5.690  22.762  0.00  0.00    +0.308 C 
ATOM     28  N   UNL     1       3.178  -6.153  22.757  0.00  0.00    -0.099 NA
ATOM     29  H   UNL     1       2.556  -5.577  23.330  0.00  0.00    +0.363 HD
ATOM     30  N   UNL     1       5.320  -6.423  22.089  0.00  0.00    -0.247 N 
ATOM     31  H   UNL     1       4.867  -7.128  21.516  0.00  0.00    +0.288 HD
ATOM     32  H   UNL     1       6.015  -5.892  21.580  0.00  0.00    +0.288 HD
ENDBRANCH  24  27
ENDBRANCH  20  21
ENDBRANCH   2  20
TORSDOF 7
ENDMDL
MODEL 7
REMARK VINA RESULT:      -6.9      2.810      7.320
REMARK  Name = 
REMARK  7 active torsions:
REMARK  status: ('A' for Active; 'I' for Inactive)
REMARK    1  A    between atoms: C_2  and  C_16
REMARK    2  A    between atoms: C_7  and  C_9
REMARK    3  A    between atoms: C_9  and  N_10
REMARK    4  A    between atoms: N_10  and  C_11
REMARK    5  A    between atoms: N_18  and  C_19
REMARK    6  A    between atoms: C_19  and  C_20
REMARK    7  A    between atoms: C_23  and  C_26
REMARK                            x       y       z     vdW  Elec       q    Type
REMARK                         _______ _______ _______ _____ _____    ______ ____
ROOT
ATOM      1  C   UNL     1       7.161   2.255  24.707  0.00  0.00    +0.234 C 
ATOM      2  N   UNL     1       6.829   1.084  25.358  0.00  0.00    -0.310 N 
ATOM      3  H   UNL     1       6.928   0.994  26.357  0.00  0.00    +0.149 HD
ATOM      4  O   UNL     1       6.981   2.390  23.497  0.00  0.00    -0.274 OA
ENDROOT
BRANCH   1   5
ATOM      5  C   UNL     1       7.907   3.329  25.545  0.00  0.00    +0.162 C 
ATOM      6  N   UNL     1       8.285   4.491  24.726  0.00  0.00    -0.289 N 
ATOM      7  C   UNL     1       9.386   4.644  23.908  0.00  0.00    +0.230 C 
ATOM      8  O   UNL     1       9.674   5.753  23.444  0.00  0.00    -0.274 OA
ATOM      9  C   UNL     1       7.466   5.650  25.033  0.00  0.00    +0.108 C 
ATOM     10  C   UNL     1       6.409   5.148  26.001  0.00  0.00    +0.021 C 
ATOM     11  C   UNL     1       7.099   3.972  26.677  0.00  0.00    +0.033 C 
BRANCH   7  12
ATOM     12  C   UNL     1      10.243   3.417  23.565  0.00  0.00    +0.178 C 
BRANCH  12  13
ATOM     13  N   UNL     1       9.798   2.746  22.329  0.00  0.00    -0.305 NA
ATOM     14  H   UNL     1      10.199   3.264  21.532  0.00  0.00    +0.123 HD
BRANCH  13  15
ATOM     15  C   UNL     1      10.201   1.345  22.246  0.00  0.00    +0.054 C 
ATOM     16  C   UNL     1       9.199   0.508  21.439  0.00  0.00    +0.019 C 
ATOM     17  C   UNL     1       9.275  -0.908  22.021  0.00  0.00    +0.002 C 
ATOM     18  C   UNL     1      10.241  -0.836  23.198  0.00  0.00    +0.002 C 
ATOM     19  C   UNL     1      10.246   0.629  23.594  0.00  0.00    +0.019 C 
ENDBRANCH  13  15
ENDBRANCH  12  13
ENDBRANCH   7  12
ENDBRANCH   1   5
BRANCH   2  20
ATOM     20  C   UNL     1       6.252  -0.046  24.657  0.00  0.00    +0.139 C 
BRANCH  20  21
ATOM     21  C   UNL     1       6.976  -1.335  24.948  0.00  0.00    -0.030 A 
ATOM     22  C   UNL     1       7.929  -1.420  25.972  0.00  0.00    +0.006 A 
ATOM     23  C   UNL     1       8.490  -2.653  26.311  0.00  0.00    +0.016 A 
ATOM     24  C   UNL     1       8.112  -3.811  25.621  0.00  0.00    +0.065 A 
ATOM     25  C   UNL     1       7.205  -3.723  24.561  0.00  0.00    +0.016 A 
ATOM     26  C   UNL     1       6.640  -2.492  24.230  0.00  0.00    +0.006 A 
BRANCH  24  27
ATOM     27  C   UNL     1       8.661  -5.131  26.033  0.00  0.00    +0.308 C 
ATOM     28  N   UNL     1       8.070  -5.907  26.885  0.00  0.00    -0.099 NA
ATOM     29  H   UNL     1       7.228  -5.468  27.267  0.00  0.00    +0.363 HD
ATOM     30  N   UNL     1       9.837  -5.585  25.514  0.00  0.00    -0.247 N 
ATOM     31  H   UNL     1       9.965  -6.568  25.738  0.00  0.00    +0.288 HD
ATOM     32  H   UNL     1       9.994  -5.383  24.535  0.00  0.00    +0.288 HD
ENDBRANCH  24  27
ENDBRANCH  20  21
ENDBRANCH   2  20
TORSDOF 7
ENDMDL
MODEL 8
REMARK VINA RESULT:      -6.7      3.066      7.542
REMARK  Name = 
REMARK  7 active torsions:
REMARK  status: ('A' for Active; 'I' for Inactive)
REMARK    1  A    between atoms: C_2  and  C_16
REMARK    2  A    between atoms: C_7  and  C_9
REMARK    3  A    between atoms: C_9  and  N_10
REMARK    4  A    between atoms: N_10  and  C_11
REMARK    5  A    between atoms: N_18  and  C_19
REMARK    6  A    between atoms: C_19  and  C_20
REMARK    7  A    between atoms: C_23  and  C_26
REMARK                            x       y       z     vdW  Elec       q    Type
REMARK                         _______ _______ _______ _____ _____    ______ ____
ROOT
ATOM      1  C   UNL     1       7.786  -0.021  23.175  0.00  0.00    +0.234 C 
ATOM      2  N   UNL     1       8.292  -1.305  23.189  0.00  0.00    -0.310 N 
ATOM      3  H   UNL     1       8.855  -1.638  23.955  0.00  0.00    +0.149 HD
ATOM      4  O   UNL     1       7.045   0.367  22.273  0.00  0.00    -0.274 OA
ENDROOT
BRANCH   1   5
ATOM      5  C   UNL     1       8.316   0.946  24.269  0.00  0.00    +0.162 C 
ATOM      6  N   UNL     1       9.033   0.224  25.331  0.00  0.00    -0.289 N 
ATOM      7  C   UNL     1       8.512  -0.424  26.432  0.00  0.00    +0.230 C 
ATOM      8  O   UNL     1       9.254  -0.809  27.343  0.00  0.00    -0.274 OA
ATOM      9  C   UNL     1      10.467   0.447  25.254  0.00  0.00    +0.108 C 
ATOM     10  C   UNL     1      10.680   1.239  23.977  0.00  0.00    +0.021 C 
ATOM     11  C   UNL     1       9.357   1.971  23.805  0.00  0.00    +0.033 C 
BRANCH   7  12
ATOM     12  C   UNL     1       7.000  -0.679  26.507  0.00  0.00    +0.178 C 
BRANCH  12  13
ATOM     13  N   UNL     1       6.609  -1.945  25.860  0.00  0.00    -0.305 NA
ATOM     14  H   UNL     1       7.190  -2.056  25.015  0.00  0.00    +0.123 HD
BRANCH  13  15
ATOM     15  C   UNL     1       6.775  -3.117  26.716  0.00  0.00    +0.054 C 
ATOM     16  C   UNL     1       8.004  -3.946  26.320  0.00  0.00    +0.019 C 
ATOM     17  C   UNL     1       7.671  -5.392  26.700  0.00  0.00    +0.002 C 
ATOM     18  C   UNL     1       6.237  -5.380  27.217  0.00  0.00    +0.002 C 
ATOM     19  C   UNL     1       5.630  -4.123  26.620  0.00  0.00    +0.019 C 
ENDBRANCH  13  15
ENDBRANCH  12  13
ENDBRANCH   7  12
ENDBRANCH   1   5
BRANCH   2  20
ATOM     20  C   UNL     1       7.981  -2.263  22.146  0.00  0.00    +0.139 C 
BRANCH  20  21
ATOM     21  C   UNL     1       6.995  -3.308  22.599  0.00  0.00    -0.030 A 
ATOM     22  C   UNL     1       5.627  -3.022  22.703  0.00  0.00    +0.006 A 
ATOM     23  C   UNL     1       4.716  -4.039  22.996  0.00  0.00    +0.016 A 
ATOM     24  C   UNL     1       5.165  -5.349  23.199  0.00  0.00    +0.065 A 
ATOM     25  C   UNL     1       6.533  -5.629  23.153  0.00  0.00    +0.016 A 
ATOM     26  C   UNL     1       7.440  -4.614  22.852  0.00  0.00    +0.006 A 
BRANCH  24  27
ATOM     27  C   UNL     1       4.182  -6.440  23.442  0.00  0.00    +0.308 C 
ATOM     28  N   UNL     1       4.410  -7.429  24.246  0.00  0.00    -0.099 NA
ATOM     29  H   UNL     1       5.357  -7.385  24.633  0.00  0.00    +0.363 HD
ATOM     30  N   UNL     1       2.974  -6.438  22.810  0.00  0.00    -0.247 N 
ATOM     31  H   UNL     1       2.356  -7.125  23.231  0.00  0.00    +0.288 HD
ATOM     32  H   UNL     1       2.536  -5.532  22.699  0.00  0.00    +0.288 HD
ENDBRANCH  24  27
ENDBRANCH  20  21
ENDBRANCH   2  20
TORSDOF 7
ENDMDL
MODEL 9
REMARK VINA RESULT:      -6.6      2.753      7.887
REMARK  Name = 
REMARK  7 active torsions:
REMARK  status: ('A' for Active; 'I' for Inactive)
REMARK    1  A    between atoms: C_2  and  C_16
REMARK    2  A    between atoms: C_7  and  C_9
REMARK    3  A    between atoms: C_9  and  N_10
REMARK    4  A    between atoms: N_10  and  C_11
REMARK    5  A    between atoms: N_18  and  C_19
REMARK    6  A    between atoms: C_19  and  C_20
REMARK    7  A    between atoms: C_23  and  C_26
REMARK                            x       y       z     vdW  Elec       q    Type
REMARK                         _______ _______ _______ _____ _____    ______ ____
ROOT
ATOM      1  C   UNL     1       9.244  -0.858  23.778  0.00  0.00    +0.234 C 
ATOM      2  N   UNL     1       9.141  -2.208  23.511  0.00  0.00    -0.310 N 
ATOM      3  H   UNL     1       8.761  -2.541  22.639  0.00  0.00    +0.149 HD
ATOM      4  O   UNL     1       9.766  -0.447  24.814  0.00  0.00    -0.274 OA
ENDROOT
BRANCH   1   5
ATOM      5  C   UNL     1       8.538   0.104  22.784  0.00  0.00    +0.162 C 
ATOM      6  N   UNL     1       8.237   1.403  23.405  0.00  0.00    -0.289 N 
ATOM      7  C   UNL     1       7.163   1.747  24.199  0.00  0.00    +0.230 C 
ATOM      8  O   UNL     1       6.943   2.932  24.478  0.00  0.00    -0.274 OA
ATOM      9  C   UNL     1       9.110   2.450  22.903  0.00  0.00    +0.108 C 
ATOM     10  C   UNL     1      10.119   1.739  22.019  0.00  0.00    +0.021 C 
ATOM     11  C   UNL     1       9.356   0.508  21.553  0.00  0.00    +0.033 C 
BRANCH   7  12
ATOM     12  C   UNL     1       6.250   0.641  24.749  0.00  0.00    +0.178 C 
BRANCH  12  13
ATOM     13  N   UNL     1       6.854  -0.074  25.888  0.00  0.00    -0.305 NA
ATOM     14  H   UNL     1       6.726   0.512  26.727  0.00  0.00    +0.123 HD
BRANCH  13  15
ATOM     15  C   UNL     1       6.272  -1.392  26.128  0.00  0.00    +0.054 C 
ATOM     16  C   UNL     1       5.358  -1.832  24.976  0.00  0.00    +0.019 C 
ATOM     17  C   UNL     1       4.298  -2.740  25.608  0.00  0.00    +0.002 C 
ATOM     18  C   UNL     1       4.565  -2.729  27.109  0.00  0.00    +0.002 C 
ATOM     19  C   UNL     1       5.351  -1.452  27.344  0.00  0.00    +0.019 C 
ENDBRANCH  13  15
ENDBRANCH  12  13
ENDBRANCH   7  12
ENDBRANCH   1   5
BRANCH   2  20
ATOM     20  C   UNL     1       9.639  -3.212  24.430  0.00  0.00    +0.139 C 
BRANCH  20  21
ATOM     21  C   UNL     1       8.555  -4.140  24.913  0.00  0.00    -0.030 A 
ATOM     22  C   UNL     1       8.434  -4.474  26.270  0.00  0.00    +0.006 A 
ATOM     23  C   UNL     1       7.345  -5.226  26.714  0.00  0.00    +0.016 A 
ATOM     24  C   UNL     1       6.373  -5.662  25.806  0.00  0.00    +0.065 A 
ATOM     25  C   UNL     1       6.519  -5.381  24.445  0.00  0.00    +0.016 A 
ATOM     26  C   UNL     1       7.602  -4.622  24.005  0.00  0.00    +0.006 A 
BRANCH  24  27
ATOM     27  C   UNL     1       5.180  -6.404  26.297  0.00  0.00    +0.308 C 
ATOM     28  N   UNL     1       4.043  -6.400  25.678  0.00  0.00    -0.099 NA
ATOM     29  H   UNL     1       4.065  -5.785  24.860  0.00  0.00    +0.363 HD
ATOM     30  N   UNL     1       5.243  -7.134  27.446  0.00  0.00    -0.247 N 
ATOM     31  H   UNL     1       4.424  -7.730  27.530  0.00  0.00    +0.288 HD
ATOM     32  H   UNL     1       6.108  -7.635  27.605  0.00  0.00    +0.288 HD
ENDBRANCH  24  27
ENDBRANCH  20  21
ENDBRANCH   2  20
TORSDOF 7
ENDMDL
