MODEL 1
REMARK VINA RESULT:      -5.7      0.000      0.000
REMARK  Name = 
REMARK  8 active torsions:
REMARK  status: ('A' for Active; 'I' for Inactive)
REMARK    1  A    between atoms: C_1  and  O_2
REMARK    2  A    between atoms: O_2  and  C_3
REMARK    3  A    between atoms: C_5  and  C_6
REMARK    4  A    between atoms: C_7  and  C_8
REMARK    5  A    between atoms: C_8  and  O_9
REMARK    6  A    between atoms: C_8  and  O_10
REMARK    7  A    between atoms: C_12  and  O_13
REMARK    8  A    between atoms: C_14  and  O_15
REMARK                            x       y       z     vdW  Elec       q    Type
REMARK                         _______ _______ _______ _____ _____    ______ ____
ROOT
ATOM      1  C   UNL     1       9.782   0.254  24.454  0.00  0.00    +0.166 A 
ATOM      2  C   UNL     1       9.482  -0.353  23.239  0.00  0.00    +0.201 A 
ATOM      3  C   UNL     1       9.670   0.347  22.040  0.00  0.00    +0.163 A 
ATOM      4  C   UNL     1      10.157   1.641  22.033  0.00  0.00    +0.057 A 
ATOM      5  C   UNL     1      10.465   2.272  23.242  0.00  0.00    -0.018 A 
ATOM      6  C   UNL     1      10.295   1.559  24.444  0.00  0.00    +0.057 A 
ENDROOT
BRANCH   1   8
ATOM      7  C   UNL     1       8.391  -0.267  26.296  0.00  0.00    +0.277 C 
ATOM      8  O   UNL     1       9.684  -0.303  25.702  0.00  0.00    -0.491 OA
ENDBRANCH   1   8
BRANCH   2   9
ATOM      9  O   UNL     1       9.028  -1.640  23.145  0.00  0.00    -0.501 OA
ATOM     10  H   UNL     1       8.353  -1.718  23.849  0.00  0.00    +0.292 HD
ENDBRANCH   2   9
BRANCH   3  11
ATOM     11  O   UNL     1       9.363  -0.314  20.875  0.00  0.00    -0.503 OA
ATOM     12  H   UNL     1      10.179  -0.386  20.347  0.00  0.00    +0.292 HD
ENDBRANCH   3  11
BRANCH   5  13
ATOM     13  C   UNL     1      10.986   3.646  23.312  0.00  0.00    +0.011 C 
ATOM     14  C   UNL     1      12.293   3.953  23.353  0.00  0.00    +0.060 C 
BRANCH  14  15
ATOM     15  C   UNL     1      12.823   5.343  23.299  0.00  0.00    +0.371 C 
BRANCH  15  16
ATOM     16  O   UNL     1      14.204   5.220  23.039  0.00  0.00    -0.504 OA
ATOM     17  H   UNL     1      14.511   4.466  23.567  0.00  0.00    +0.288 HD
ENDBRANCH  15  16
BRANCH  15  18
ATOM     18  O   UNL     1      12.629   6.008  24.523  0.00  0.00    -0.504 OA
ATOM     19  H   UNL     1      12.942   6.919  24.418  0.00  0.00    +0.288 HD
ENDBRANCH  15  18
ENDBRANCH  14  15
ENDBRANCH   5  13
TORSDOF 7
ENDMDL
MODEL 2
REMARK VINA RESULT:      -5.4      1.175      1.459
REMARK  Name = 
REMARK  8 active torsions:
REMARK  status: ('A' for Active; 'I' for Inactive)
REMARK    1  A    between atoms: C_1  and  O_2
REMARK    2  A    between atoms: O_2  and  C_3
REMARK    3  A    between atoms: C_5  and  C_6
REMARK    4  A    between atoms: C_7  and  C_8
REMARK    5  A    between atoms: C_8  and  O_9
REMARK    6  A    between atoms: C_8  and  O_10
REMARK    7  A    between atoms: C_12  and  O_13
REMARK    8  A    between atoms: C_14  and  O_15
REMARK                            x       y       z     vdW  Elec       q    Type
REMARK                         _______ _______ _______ _____ _____    ______ ____
ROOT
ATOM      1  C   UNL     1       9.683  -0.244  24.798  0.00  0.00    +0.166 A 
ATOM      2  C   UNL     1       9.722  -1.105  23.706  0.00  0.00    +0.201 A 
ATOM      3  C   UNL     1       9.957  -0.597  22.421  0.00  0.00    +0.163 A 
ATOM      4  C   UNL     1      10.158   0.754  22.208  0.00  0.00    +0.057 A 
ATOM      5  C   UNL     1      10.123   1.639  23.291  0.00  0.00    -0.018 A 
ATOM      6  C   UNL     1       9.908   1.124  24.583  0.00  0.00    +0.057 A 
ENDROOT
BRANCH   1   8
ATOM      7  C   UNL     1       8.146  -0.609  26.559  0.00  0.00    +0.277 C 
ATOM      8  O   UNL     1       9.497  -0.584  26.111  0.00  0.00    -0.491 OA
ENDBRANCH   1   8
BRANCH   2   9
ATOM      9  O   UNL     1       9.568  -2.458  23.823  0.00  0.00    -0.501 OA
ATOM     10  H   UNL     1       9.232  -2.593  24.733  0.00  0.00    +0.292 HD
ENDBRANCH   2   9
BRANCH   3  11
ATOM     11  O   UNL     1       9.992  -1.503  21.388  0.00  0.00    -0.503 OA
ATOM     12  H   UNL     1       9.095  -1.562  21.010  0.00  0.00    +0.292 HD
ENDBRANCH   3  11
BRANCH   5  13
ATOM     13  C   UNL     1      10.327   3.088  23.140  0.00  0.00    +0.011 C 
ATOM     14  C   UNL     1      11.448   3.731  23.507  0.00  0.00    +0.060 C 
BRANCH  14  15
ATOM     15  C   UNL     1      11.704   5.173  23.243  0.00  0.00    +0.371 C 
BRANCH  15  16
ATOM     16  O   UNL     1      10.435   5.772  23.101  0.00  0.00    -0.504 OA
ATOM     17  H   UNL     1      10.574   6.575  22.575  0.00  0.00    +0.288 HD
ENDBRANCH  15  16
BRANCH  15  18
ATOM     18  O   UNL     1      12.444   5.348  22.059  0.00  0.00    -0.504 OA
ATOM     19  H   UNL     1      12.472   6.296  21.864  0.00  0.00    +0.288 HD
ENDBRANCH  15  18
ENDBRANCH  14  15
ENDBRANCH   5  13
TORSDOF 7
ENDMDL
MODEL 3
REMARK VINA RESULT:      -5.3      1.641      2.682
REMARK  Name = 
REMARK  8 active torsions:
REMARK  status: ('A' for Active; 'I' for Inactive)
REMARK    1  A    between atoms: C_1  and  O_2
REMARK    2  A    between atoms: O_2  and  C_3
REMARK    3  A    between atoms: C_5  and  C_6
REMARK    4  A    between atoms: C_7  and  C_8
REMARK    5  A    between atoms: C_8  and  O_9
REMARK    6  A    between atoms: C_8  and  O_10
REMARK    7  A    between atoms: C_12  and  O_13
REMARK    8  A    between atoms: C_14  and  O_15
REMARK                            x       y       z     vdW  Elec       q    Type
REMARK                         _______ _______ _______ _____ _____    ______ ____
ROOT
ATOM      1  C   UNL     1       9.275   1.034  22.693  0.00  0.00    +0.166 A 
ATOM      2  C   UNL     1       8.175   0.966  23.542  0.00  0.00    +0.201 A 
ATOM      3  C   UNL     1       7.915   2.011  24.438  0.00  0.00    +0.163 A 
ATOM      4  C   UNL     1       8.732   3.125  24.499  0.00  0.00    +0.057 A 
ATOM      5  C   UNL     1       9.844   3.215  23.656  0.00  0.00    -0.018 A 
ATOM      6  C   UNL     1      10.090   2.174  22.742  0.00  0.00    +0.057 A 
ENDROOT
BRANCH   1   8
ATOM      7  C   UNL     1      10.284  -1.056  22.235  0.00  0.00    +0.277 C 
ATOM      8  O   UNL     1       9.645   0.117  21.745  0.00  0.00    -0.491 OA
ENDBRANCH   1   8
BRANCH   2   9
ATOM      9  O   UNL     1       7.293  -0.080  23.529  0.00  0.00    -0.501 OA
ATOM     10  H   UNL     1       7.052  -0.191  22.588  0.00  0.00    +0.292 HD
ENDBRANCH   2   9
BRANCH   3  11
ATOM     11  O   UNL     1       6.807   1.884  25.242  0.00  0.00    -0.503 OA
ATOM     12  H   UNL     1       6.116   2.478  24.895  0.00  0.00    +0.292 HD
ENDBRANCH   3  11
BRANCH   5  13
ATOM     13  C   UNL     1      10.757   4.369  23.666  0.00  0.00    +0.011 C 
ATOM     14  C   UNL     1      12.057   4.301  23.334  0.00  0.00    +0.060 C 
BRANCH  14  15
ATOM     15  C   UNL     1      12.950   5.486  23.225  0.00  0.00    +0.371 C 
BRANCH  15  16
ATOM     16  O   UNL     1      14.254   4.973  23.059  0.00  0.00    -0.504 OA
ATOM     17  H   UNL     1      14.302   4.176  23.609  0.00  0.00    +0.288 HD
ENDBRANCH  15  16
BRANCH  15  18
ATOM     18  O   UNL     1      12.896   6.272  24.390  0.00  0.00    -0.504 OA
ATOM     19  H   UNL     1      13.802   6.390  24.710  0.00  0.00    +0.288 HD
ENDBRANCH  15  18
ENDBRANCH  14  15
ENDBRANCH   5  13
TORSDOF 7
ENDMDL
MODEL 4
REMARK VINA RESULT:      -5.3      1.915      2.502
REMARK  Name = 
REMARK  8 active torsions:
REMARK  status: ('A' for Active; 'I' for Inactive)
REMARK    1  A    between atoms: C_1  and  O_2
REMARK    2  A    between atoms: O_2  and  C_3
REMARK    3  A    between atoms: C_5  and  C_6
REMARK    4  A    between atoms: C_7  and  C_8
REMARK    5  A    between atoms: C_8  and  O_9
REMARK    6  A    between atoms: C_8  and  O_10
REMARK    7  A    between atoms: C_12  and  O_13
REMARK    8  A    between atoms: C_14  and  O_15
REMARK                            x       y       z     vdW  Elec       q    Type
REMARK                         _______ _______ _______ _____ _____    ______ ____
ROOT
ATOM      1  C   UNL     1       7.900   1.791  22.811  0.00  0.00    +0.166 A 
ATOM      2  C   UNL     1       8.404   0.598  23.320  0.00  0.00    +0.201 A 
ATOM      3  C   UNL     1       9.684   0.564  23.889  0.00  0.00    +0.163 A 
ATOM      4  C   UNL     1      10.467   1.701  23.963  0.00  0.00    +0.057 A 
ATOM      5  C   UNL     1       9.983   2.911  23.458  0.00  0.00    -0.018 A 
ATOM      6  C   UNL     1       8.689   2.947  22.905  0.00  0.00    +0.057 A 
ENDROOT
BRANCH   1   8
ATOM      7  C   UNL     1       5.693   2.591  23.106  0.00  0.00    +0.277 C 
ATOM      8  O   UNL     1       6.665   1.995  22.255  0.00  0.00    -0.491 OA
ENDBRANCH   1   8
BRANCH   2   9
ATOM      9  O   UNL     1       7.689  -0.567  23.321  0.00  0.00    -0.501 OA
ATOM     10  H   UNL     1       7.686  -0.859  22.387  0.00  0.00    +0.292 HD
ENDBRANCH   2   9
BRANCH   3  11
ATOM     11  O   UNL     1      10.117  -0.644  24.382  0.00  0.00    -0.503 OA
ATOM     12  H   UNL     1       9.348  -1.241  24.428  0.00  0.00    +0.292 HD
ENDBRANCH   3  11
BRANCH   5  13
ATOM     13  C   UNL     1      10.760   4.159  23.501  0.00  0.00    +0.011 C 
ATOM     14  C   UNL     1      12.098   4.215  23.398  0.00  0.00    +0.060 C 
BRANCH  14  15
ATOM     15  C   UNL     1      12.875   5.482  23.318  0.00  0.00    +0.371 C 
BRANCH  15  16
ATOM     16  O   UNL     1      14.212   5.102  23.083  0.00  0.00    -0.504 OA
ATOM     17  H   UNL     1      14.176   4.211  22.699  0.00  0.00    +0.288 HD
ENDBRANCH  15  16
BRANCH  15  18
ATOM     18  O   UNL     1      12.793   6.204  24.523  0.00  0.00    -0.504 OA
ATOM     19  H   UNL     1      13.320   7.010  24.421  0.00  0.00    +0.288 HD
ENDBRANCH  15  18
ENDBRANCH  14  15
ENDBRANCH   5  13
TORSDOF 7
ENDMDL
MODEL 5
REMARK VINA RESULT:      -5.2      4.631      7.179
REMARK  Name = 
REMARK  8 active torsions:
REMARK  status: ('A' for Active; 'I' for Inactive)
REMARK    1  A    between atoms: C_1  and  O_2
REMARK    2  A    between atoms: O_2  and  C_3
REMARK    3  A    between atoms: C_5  and  C_6
REMARK    4  A    between atoms: C_7  and  C_8
REMARK    5  A    between atoms: C_8  and  O_9
REMARK    6  A    between atoms: C_8  and  O_10
REMARK    7  A    between atoms: C_12  and  O_13
REMARK    8  A    between atoms: C_14  and  O_15
REMARK                            x       y       z     vdW  Elec       q    Type
REMARK                         _______ _______ _______ _____ _____    ______ ____
ROOT
ATOM      1  C   UNL     1       6.374  -5.113  24.518  0.00  0.00    +0.166 A 
ATOM      2  C   UNL     1       6.535  -5.673  25.782  0.00  0.00    +0.201 A 
ATOM      3  C   UNL     1       7.679  -5.382  26.536  0.00  0.00    +0.163 A 
ATOM      4  C   UNL     1       8.662  -4.538  26.054  0.00  0.00    +0.057 A 
ATOM      5  C   UNL     1       8.522  -3.965  24.786  0.00  0.00    -0.018 A 
ATOM      6  C   UNL     1       7.363  -4.243  24.039  0.00  0.00    +0.057 A 
ENDROOT
BRANCH   1   8
ATOM      7  C   UNL     1       5.615  -5.754  22.371  0.00  0.00    +0.277 C 
ATOM      8  O   UNL     1       5.307  -5.273  23.674  0.00  0.00    -0.491 OA
ENDBRANCH   1   8
BRANCH   2   9
ATOM      9  O   UNL     1       5.601  -6.491  26.354  0.00  0.00    -0.501 OA
ATOM     10  H   UNL     1       4.979  -6.705  25.630  0.00  0.00    +0.292 HD
ENDBRANCH   2   9
BRANCH   3  11
ATOM     11  O   UNL     1       7.771  -5.960  27.780  0.00  0.00    -0.503 OA
ATOM     12  H   UNL     1       7.260  -6.790  27.763  0.00  0.00    +0.292 HD
ENDBRANCH   3  11
BRANCH   5  13
ATOM     13  C   UNL     1       9.528  -3.060  24.208  0.00  0.00    +0.011 C 
ATOM     14  C   UNL     1       9.354  -2.375  23.066  0.00  0.00    +0.060 C 
BRANCH  14  15
ATOM     15  C   UNL     1      10.317  -1.367  22.545  0.00  0.00    +0.371 C 
BRANCH  15  16
ATOM     16  O   UNL     1      10.353  -0.334  23.505  0.00  0.00    -0.504 OA
ATOM     17  H   UNL     1      11.236   0.064  23.440  0.00  0.00    +0.288 HD
ENDBRANCH  15  16
BRANCH  15  18
ATOM     18  O   UNL     1       9.891  -0.849  21.309  0.00  0.00    -0.504 OA
ATOM     19  H   UNL     1       9.203  -0.190  21.484  0.00  0.00    +0.288 HD
ENDBRANCH  15  18
ENDBRANCH  14  15
ENDBRANCH   5  13
TORSDOF 7
ENDMDL
MODEL 6
REMARK VINA RESULT:      -5.2      3.137      6.365
REMARK  Name = 
REMARK  8 active torsions:
REMARK  status: ('A' for Active; 'I' for Inactive)
REMARK    1  A    between atoms: C_1  and  O_2
REMARK    2  A    between atoms: O_2  and  C_3
REMARK    3  A    between atoms: C_5  and  C_6
REMARK    4  A    between atoms: C_7  and  C_8
REMARK    5  A    between atoms: C_8  and  O_9
REMARK    6  A    between atoms: C_8  and  O_10
REMARK    7  A    between atoms: C_12  and  O_13
REMARK    8  A    between atoms: C_14  and  O_15
REMARK                            x       y       z     vdW  Elec       q    Type
REMARK                         _______ _______ _______ _____ _____    ______ ____
ROOT
ATOM      1  C   UNL     1       9.509   0.830  23.886  0.00  0.00    +0.166 A 
ATOM      2  C   UNL     1       9.496   0.664  22.505  0.00  0.00    +0.201 A 
ATOM      3  C   UNL     1       9.477  -0.624  21.954  0.00  0.00    +0.163 A 
ATOM      4  C   UNL     1       9.466  -1.749  22.758  0.00  0.00    +0.057 A 
ATOM      5  C   UNL     1       9.480  -1.606  24.149  0.00  0.00    -0.018 A 
ATOM      6  C   UNL     1       9.478  -0.311  24.700  0.00  0.00    +0.057 A 
ENDROOT
BRANCH   1   8
ATOM      7  C   UNL     1       8.265   2.354  25.201  0.00  0.00    +0.277 C 
ATOM      8  O   UNL     1       9.497   2.014  24.575  0.00  0.00    -0.491 OA
ENDBRANCH   1   8
BRANCH   2   9
ATOM      9  O   UNL     1       9.471   1.716  21.632  0.00  0.00    -0.501 OA
ATOM     10  H   UNL     1      10.251   2.256  21.870  0.00  0.00    +0.292 HD
ENDBRANCH   2   9
BRANCH   3  11
ATOM     11  O   UNL     1       9.455  -0.718  20.583  0.00  0.00    -0.503 OA
ATOM     12  H   UNL     1       8.695  -0.201  20.260  0.00  0.00    +0.292 HD
ENDBRANCH   3  11
BRANCH   5  13
ATOM     13  C   UNL     1       9.471  -2.757  25.067  0.00  0.00    +0.011 C 
ATOM     14  C   UNL     1       8.844  -3.917  24.811  0.00  0.00    +0.060 C 
BRANCH  14  15
ATOM     15  C   UNL     1       8.936  -5.122  25.679  0.00  0.00    +0.371 C 
BRANCH  15  16
ATOM     16  O   UNL     1       9.354  -4.656  26.943  0.00  0.00    -0.504 OA
ATOM     17  H   UNL     1       8.612  -4.143  27.301  0.00  0.00    +0.288 HD
ENDBRANCH  15  16
BRANCH  15  18
ATOM     18  O   UNL     1       9.878  -6.038  25.177  0.00  0.00    -0.504 OA
ATOM     19  H   UNL     1      10.139  -6.623  25.904  0.00  0.00    +0.288 HD
ENDBRANCH  15  18
ENDBRANCH  14  15
ENDBRANCH   5  13
TORSDOF 7
ENDMDL
MODEL 7
REMARK VINA RESULT:      -5.1      7.410     10.794
REMARK  Name = 
REMARK  8 active torsions:
REMARK  status: ('A' for Active; 'I' for Inactive)
REMARK    1  A    between atoms: C_1  and  O_2
REMARK    2  A    between atoms: O_2  and  C_3
REMARK    3  A    between atoms: C_5  and  C_6
REMARK    4  A    between atoms: C_7  and  C_8
REMARK    5  A    between atoms: C_8  and  O_9
REMARK    6  A    between atoms: C_8  and  O_10
REMARK    7  A    between atoms: C_12  and  O_13
REMARK    8  A    between atoms: C_14  and  O_15
REMARK                            x       y       z     vdW  Elec       q    Type
REMARK                         _______ _______ _______ _____ _____    ______ ____
ROOT
ATOM      1  C   UNL     1       7.540  -4.865  23.833  0.00  0.00    +0.166 A 
ATOM      2  C   UNL     1       8.517  -4.718  24.812  0.00  0.00    +0.201 A 
ATOM      3  C   UNL     1       8.227  -5.040  26.145  0.00  0.00    +0.163 A 
ATOM      4  C   UNL     1       6.981  -5.510  26.516  0.00  0.00    +0.057 A 
ATOM      5  C   UNL     1       5.983  -5.664  25.549  0.00  0.00    -0.018 A 
ATOM      6  C   UNL     1       6.283  -5.360  24.208  0.00  0.00    +0.057 A 
ENDROOT
BRANCH   1   8
ATOM      7  C   UNL     1       7.083  -5.588  21.627  0.00  0.00    +0.277 C 
ATOM      8  O   UNL     1       7.673  -4.624  22.491  0.00  0.00    -0.491 OA
ENDBRANCH   1   8
BRANCH   2   9
ATOM      9  O   UNL     1       9.787  -4.293  24.535  0.00  0.00    -0.501 OA
ATOM     10  H   UNL     1       9.777  -3.334  24.728  0.00  0.00    +0.292 HD
ENDBRANCH   2   9
BRANCH   3  11
ATOM     11  O   UNL     1       9.241  -4.881  27.060  0.00  0.00    -0.503 OA
ATOM     12  H   UNL     1       9.202  -3.967  27.395  0.00  0.00    +0.292 HD
ENDBRANCH   3  11
BRANCH   5  13
ATOM     13  C   UNL     1       4.634  -6.157  25.870  0.00  0.00    +0.011 C 
ATOM     14  C   UNL     1       4.006  -7.126  25.184  0.00  0.00    +0.060 C 
BRANCH  14  15
ATOM     15  C   UNL     1       2.696  -7.710  25.581  0.00  0.00    +0.371 C 
BRANCH  15  16
ATOM     16  O   UNL     1       2.651  -7.639  26.989  0.00  0.00    -0.504 OA
ATOM     17  H   UNL     1       1.854  -7.129  27.208  0.00  0.00    +0.288 HD
ENDBRANCH  15  16
BRANCH  15  18
ATOM     18  O   UNL     1       2.594  -9.053  25.173  0.00  0.00    -0.504 OA
ATOM     19  H   UNL     1       1.992  -9.087  24.415  0.00  0.00    +0.288 HD
ENDBRANCH  15  18
ENDBRANCH  14  15
ENDBRANCH   5  13
TORSDOF 7
ENDMDL
MODEL 8
REMARK VINA RESULT:      -5.1      6.011      9.994
REMARK  Name = 
REMARK  8 active torsions:
REMARK  status: ('A' for Active; 'I' for Inactive)
REMARK    1  A    between atoms: C_1  and  O_2
REMARK    2  A    between atoms: O_2  and  C_3
REMARK    3  A    between atoms: C_5  and  C_6
REMARK    4  A    between atoms: C_7  and  C_8
REMARK    5  A    between atoms: C_8  and  O_9
REMARK    6  A    between atoms: C_8  and  O_10
REMARK    7  A    between atoms: C_12  and  O_13
REMARK    8  A    between atoms: C_14  and  O_15
REMARK                            x       y       z     vdW  Elec       q    Type
REMARK                         _______ _______ _______ _____ _____    ______ ____
ROOT
ATOM      1  C   UNL     1       8.678  -4.395  24.793  0.00  0.00    +0.166 A 
ATOM      2  C   UNL     1       8.666  -4.910  26.086  0.00  0.00    +0.201 A 
ATOM      3  C   UNL     1       7.504  -5.509  26.590  0.00  0.00    +0.163 A 
ATOM      4  C   UNL     1       6.356  -5.606  25.826  0.00  0.00    +0.057 A 
ATOM      5  C   UNL     1       6.345  -5.094  24.525  0.00  0.00    -0.018 A 
ATOM      6  C   UNL     1       7.519  -4.512  24.013  0.00  0.00    +0.057 A 
ENDROOT
BRANCH   1   8
ATOM      7  C   UNL     1       9.667  -2.398  23.999  0.00  0.00    +0.277 C 
ATOM      8  O   UNL     1       9.736  -3.811  24.148  0.00  0.00    -0.491 OA
ENDBRANCH   1   8
BRANCH   2   9
ATOM      9  O   UNL     1       9.762  -4.890  26.902  0.00  0.00    -0.501 OA
ATOM     10  H   UNL     1       9.725  -4.020  27.349  0.00  0.00    +0.292 HD
ENDBRANCH   2   9
BRANCH   3  11
ATOM     11  O   UNL     1       7.562  -6.007  27.870  0.00  0.00    -0.503 OA
ATOM     12  H   UNL     1       8.379  -5.672  28.285  0.00  0.00    +0.292 HD
ENDBRANCH   3  11
BRANCH   5  13
ATOM     13  C   UNL     1       5.160  -5.161  23.654  0.00  0.00    +0.011 C 
ATOM     14  C   UNL     1       4.129  -5.999  23.852  0.00  0.00    +0.060 C 
BRANCH  14  15
ATOM     15  C   UNL     1       2.878  -5.982  23.046  0.00  0.00    +0.371 C 
BRANCH  15  16
ATOM     16  O   UNL     1       1.919  -5.314  23.835  0.00  0.00    -0.504 OA
ATOM     17  H   UNL     1       2.258  -4.414  23.967  0.00  0.00    +0.288 HD
ENDBRANCH  15  16
BRANCH  15  18
ATOM     18  O   UNL     1       2.434  -7.289  22.770  0.00  0.00    -0.504 OA
ATOM     19  H   UNL     1       3.205  -7.874  22.792  0.00  0.00    +0.288 HD
ENDBRANCH  15  18
ENDBRANCH  14  15
ENDBRANCH   5  13
TORSDOF 7
ENDMDL
MODEL 9
REMARK VINA RESULT:      -5.0      3.529      5.127
REMARK  Name = 
REMARK  8 active torsions:
REMARK  status: ('A' for Active; 'I' for Inactive)
REMARK    1  A    between atoms: C_1  and  O_2
REMARK    2  A    between atoms: O_2  and  C_3
REMARK    3  A    between atoms: C_5  and  C_6
REMARK    4  A    between atoms: C_7  and  C_8
REMARK    5  A    between atoms: C_8  and  O_9
REMARK    6  A    between atoms: C_8  and  O_10
REMARK    7  A    between atoms: C_12  and  O_13
REMARK    8  A    between atoms: C_14  and  O_15
REMARK                            x       y       z     vdW  Elec       q    Type
REMARK                         _______ _______ _______ _____ _____    ______ ____
ROOT
ATOM      1  C   UNL     1       8.108  -4.481  24.231  0.00  0.00    +0.166 A 
ATOM      2  C   UNL     1       7.029  -4.660  23.371  0.00  0.00    +0.201 A 
ATOM      3  C   UNL     1       6.780  -3.726  22.357  0.00  0.00    +0.163 A 
ATOM      4  C   UNL     1       7.591  -2.620  22.184  0.00  0.00    +0.057 A 
ATOM      5  C   UNL     1       8.680  -2.419  23.037  0.00  0.00    -0.018 A 
ATOM      6  C   UNL     1       8.941  -3.370  24.041  0.00  0.00    +0.057 A 
ENDROOT
BRANCH   1   8
ATOM      7  C   UNL     1       9.075  -4.677  26.382  0.00  0.00    +0.277 C 
ATOM      8  O   UNL     1       8.502  -5.314  25.246  0.00  0.00    -0.491 OA
ENDBRANCH   1   8
BRANCH   2   9
ATOM      9  O   UNL     1       6.194  -5.740  23.445  0.00  0.00    -0.501 OA
ATOM     10  H   UNL     1       6.767  -6.511  23.262  0.00  0.00    +0.292 HD
ENDBRANCH   2   9
BRANCH   3  11
ATOM     11  O   UNL     1       5.703  -3.967  21.537  0.00  0.00    -0.503 OA
ATOM     12  H   UNL     1       5.009  -3.319  21.755  0.00  0.00    +0.292 HD
ENDBRANCH   3  11
BRANCH   5  13
ATOM     13  C   UNL     1       9.585  -1.265  22.913  0.00  0.00    +0.011 C 
ATOM     14  C   UNL     1       9.258  -0.116  22.299  0.00  0.00    +0.060 C 
BRANCH  14  15
ATOM     15  C   UNL     1      10.124   1.093  22.280  0.00  0.00    +0.371 C 
BRANCH  15  16
ATOM     16  O   UNL     1      10.079   1.622  23.587  0.00  0.00    -0.504 OA
ATOM     17  H   UNL     1      10.493   0.958  24.161  0.00  0.00    +0.288 HD
ENDBRANCH  15  16
BRANCH  15  18
ATOM     18  O   UNL     1       9.643   2.049  21.367  0.00  0.00    -0.504 OA
ATOM     19  H   UNL     1       9.611   2.903  21.821  0.00  0.00    +0.288 HD
ENDBRANCH  15  18
ENDBRANCH  14  15
ENDBRANCH   5  13
TORSDOF 7
ENDMDL
