MODEL 1
REMARK VINA RESULT:      -4.7      0.000      0.000
REMARK  Name = 
REMARK  3 active torsions:
REMARK  status: ('A' for Active; 'I' for Inactive)
REMARK    1  A    between atoms: C_1  and  O_2
REMARK    2  A    between atoms: O_2  and  C_3
REMARK    3  A    between atoms: C_6  and  S_9
REMARK                            x       y       z     vdW  Elec       q    Type
REMARK                         _______ _______ _______ _____ _____    ______ ____
ROOT
ATOM      1  C   UNL     1      10.308   2.364  23.326  0.00  0.00    +0.120 A 
ATOM      2  C   UNL     1      10.435   1.470  24.390  0.00  0.00    +0.047 A 
ATOM      3  C   UNL     1      10.219   0.103  24.193  0.00  0.00    +0.032 A 
ATOM      4  C   UNL     1       9.895  -0.381  22.921  0.00  0.00    +0.113 A 
ATOM      5  C   UNL     1       9.816   0.511  21.849  0.00  0.00    +0.032 A 
ATOM      6  C   UNL     1      10.027   1.878  22.047  0.00  0.00    +0.047 A 
ENDROOT
BRANCH   4   7
ATOM      7  S   UNL     1       9.550  -2.102  22.669  0.00  0.00    +0.120 S 
ATOM      8  O   UNL     1       8.073  -2.286  22.427  0.00  0.00    -0.147 OA
ATOM      9  O   UNL     1      10.164  -2.901  23.792  0.00  0.00    -0.147 OA
ENDBRANCH   4   7
BRANCH   1  11
ATOM     10  C   UNL     1      11.796   4.182  23.281  0.00  0.00    +0.277 C 
ATOM     11  O   UNL     1      10.504   3.686  23.627  0.00  0.00    -0.495 OA
ENDBRANCH   1  11
TORSDOF 2
ENDMDL
MODEL 2
REMARK VINA RESULT:      -4.6      1.451      2.091
REMARK  Name = 
REMARK  3 active torsions:
REMARK  status: ('A' for Active; 'I' for Inactive)
REMARK    1  A    between atoms: C_1  and  O_2
REMARK    2  A    between atoms: O_2  and  C_3
REMARK    3  A    between atoms: C_6  and  S_9
REMARK                            x       y       z     vdW  Elec       q    Type
REMARK                         _______ _______ _______ _____ _____    ______ ____
ROOT
ATOM      1  C   UNL     1      10.101   0.747  22.576  0.00  0.00    +0.120 A 
ATOM      2  C   UNL     1      10.148   0.465  23.943  0.00  0.00    +0.047 A 
ATOM      3  C   UNL     1       9.778  -0.798  24.416  0.00  0.00    +0.032 A 
ATOM      4  C   UNL     1       9.378  -1.794  23.519  0.00  0.00    +0.113 A 
ATOM      5  C   UNL     1       9.377  -1.523  22.149  0.00  0.00    +0.032 A 
ATOM      6  C   UNL     1       9.743  -0.259  21.677  0.00  0.00    +0.047 A 
ENDROOT
BRANCH   4   7
ATOM      7  S   UNL     1       8.839  -3.378  24.108  0.00  0.00    +0.120 S 
ATOM      8  O   UNL     1      10.039  -4.192  24.522  0.00  0.00    -0.147 OA
ATOM      9  O   UNL     1       7.910  -3.996  23.093  0.00  0.00    -0.147 OA
ENDBRANCH   4   7
BRANCH   1  11
ATOM     10  C   UNL     1      10.575   2.928  23.309  0.00  0.00    +0.277 C 
ATOM     11  O   UNL     1      10.448   2.022  22.216  0.00  0.00    -0.495 OA
ENDBRANCH   1  11
TORSDOF 2
ENDMDL
MODEL 3
REMARK VINA RESULT:      -4.5      2.251      4.820
REMARK  Name = 
REMARK  3 active torsions:
REMARK  status: ('A' for Active; 'I' for Inactive)
REMARK    1  A    between atoms: C_1  and  O_2
REMARK    2  A    between atoms: O_2  and  C_3
REMARK    3  A    between atoms: C_6  and  S_9
REMARK                            x       y       z     vdW  Elec       q    Type
REMARK                         _______ _______ _______ _____ _____    ______ ____
ROOT
ATOM      1  C   UNL     1      10.201  -0.473  22.888  0.00  0.00    +0.120 A 
ATOM      2  C   UNL     1      10.374   0.037  24.176  0.00  0.00    +0.047 A 
ATOM      3  C   UNL     1      10.223   1.406  24.419  0.00  0.00    +0.032 A 
ATOM      4  C   UNL     1       9.875   2.270  23.376  0.00  0.00    +0.113 A 
ATOM      5  C   UNL     1       9.657   1.750  22.099  0.00  0.00    +0.032 A 
ATOM      6  C   UNL     1       9.813   0.382  21.855  0.00  0.00    +0.047 A 
ENDROOT
BRANCH   4   7
ATOM      7  S   UNL     1       9.749   4.017  23.654  0.00  0.00    +0.120 S 
ATOM      8  O   UNL     1      11.124   4.633  23.600  0.00  0.00    -0.147 OA
ATOM      9  O   UNL     1       8.937   4.264  24.902  0.00  0.00    -0.147 OA
ENDBRANCH   4   7
BRANCH   1  11
ATOM     10  C   UNL     1       9.893  -2.610  23.816  0.00  0.00    +0.277 C 
ATOM     11  O   UNL     1      10.405  -1.820  22.744  0.00  0.00    -0.495 OA
ENDBRANCH   1  11
TORSDOF 2
ENDMDL
MODEL 4
REMARK VINA RESULT:      -4.4      1.847      2.887
REMARK  Name = 
REMARK  3 active torsions:
REMARK  status: ('A' for Active; 'I' for Inactive)
REMARK    1  A    between atoms: C_1  and  O_2
REMARK    2  A    between atoms: O_2  and  C_3
REMARK    3  A    between atoms: C_6  and  S_9
REMARK                            x       y       z     vdW  Elec       q    Type
REMARK                         _______ _______ _______ _____ _____    ______ ____
ROOT
ATOM      1  C   UNL     1       9.849   0.241  22.505  0.00  0.00    +0.120 A 
ATOM      2  C   UNL     1       9.283  -0.737  21.685  0.00  0.00    +0.047 A 
ATOM      3  C   UNL     1       8.932  -1.983  22.213  0.00  0.00    +0.032 A 
ATOM      4  C   UNL     1       9.126  -2.250  23.572  0.00  0.00    +0.113 A 
ATOM      5  C   UNL     1       9.648  -1.253  24.399  0.00  0.00    +0.032 A 
ATOM      6  C   UNL     1      10.004  -0.009  23.870  0.00  0.00    +0.047 A 
ENDROOT
BRANCH   4   7
ATOM      7  S   UNL     1       8.750  -3.849  24.242  0.00  0.00    +0.120 S 
ATOM      8  O   UNL     1      10.030  -4.531  24.656  0.00  0.00    -0.147 OA
ATOM      9  O   UNL     1       7.858  -4.594  23.279  0.00  0.00    -0.147 OA
ENDBRANCH   4   7
BRANCH   1  11
ATOM     10  C   UNL     1      10.367   2.517  22.776  0.00  0.00    +0.277 C 
ATOM     11  O   UNL     1      10.192   1.415  21.888  0.00  0.00    -0.495 OA
ENDBRANCH   1  11
TORSDOF 2
ENDMDL
MODEL 5
REMARK VINA RESULT:      -4.4      2.272      4.985
REMARK  Name = 
REMARK  3 active torsions:
REMARK  status: ('A' for Active; 'I' for Inactive)
REMARK    1  A    between atoms: C_1  and  O_2
REMARK    2  A    between atoms: O_2  and  C_3
REMARK    3  A    between atoms: C_6  and  S_9
REMARK                            x       y       z     vdW  Elec       q    Type
REMARK                         _______ _______ _______ _____ _____    ______ ____
ROOT
ATOM      1  C   UNL     1      10.165  -0.384  22.995  0.00  0.00    +0.120 A 
ATOM      2  C   UNL     1       9.892   0.489  21.941  0.00  0.00    +0.047 A 
ATOM      3  C   UNL     1       9.711   1.855  22.183  0.00  0.00    +0.032 A 
ATOM      4  C   UNL     1       9.825   2.358  23.483  0.00  0.00    +0.113 A 
ATOM      5  C   UNL     1      10.145   1.489  24.529  0.00  0.00    +0.032 A 
ATOM      6  C   UNL     1      10.321   0.123  24.287  0.00  0.00    +0.047 A 
ENDROOT
BRANCH   4   7
ATOM      7  S   UNL     1       9.530   4.074  23.817  0.00  0.00    +0.120 S 
ATOM      8  O   UNL     1       8.324   4.535  23.039  0.00  0.00    -0.147 OA
ATOM      9  O   UNL     1      10.811   4.847  23.616  0.00  0.00    -0.147 OA
ENDBRANCH   4   7
BRANCH   1  11
ATOM     10  C   UNL     1       9.941  -2.612  23.706  0.00  0.00    +0.277 C 
ATOM     11  O   UNL     1      10.290  -1.706  22.661  0.00  0.00    -0.495 OA
ENDBRANCH   1  11
TORSDOF 2
ENDMDL
MODEL 6
REMARK VINA RESULT:      -4.2      3.755      5.299
REMARK  Name = 
REMARK  3 active torsions:
REMARK  status: ('A' for Active; 'I' for Inactive)
REMARK    1  A    between atoms: C_1  and  O_2
REMARK    2  A    between atoms: O_2  and  C_3
REMARK    3  A    between atoms: C_6  and  S_9
REMARK                            x       y       z     vdW  Elec       q    Type
REMARK                         _______ _______ _______ _____ _____    ______ ____
ROOT
ATOM      1  C   UNL     1       9.062  -2.598  23.687  0.00  0.00    +0.120 A 
ATOM      2  C   UNL     1       8.215  -2.165  22.665  0.00  0.00    +0.047 A 
ATOM      3  C   UNL     1       7.219  -3.012  22.168  0.00  0.00    +0.032 A 
ATOM      4  C   UNL     1       7.051  -4.291  22.707  0.00  0.00    +0.113 A 
ATOM      5  C   UNL     1       7.869  -4.703  23.762  0.00  0.00    +0.032 A 
ATOM      6  C   UNL     1       8.868  -3.859  24.255  0.00  0.00    +0.047 A 
ENDROOT
BRANCH   4   7
ATOM      7  S   UNL     1       5.839  -5.401  22.041  0.00  0.00    +0.120 S 
ATOM      8  O   UNL     1       6.030  -5.513  20.550  0.00  0.00    -0.147 OA
ATOM      9  O   UNL     1       4.470  -4.991  22.527  0.00  0.00    -0.147 OA
ENDBRANCH   4   7
BRANCH   1  11
ATOM     10  C   UNL     1       9.537  -0.602  24.831  0.00  0.00    +0.277 C 
ATOM     11  O   UNL     1      10.028  -1.710  24.081  0.00  0.00    -0.495 OA
ENDBRANCH   1  11
TORSDOF 2
ENDMDL
MODEL 7
REMARK VINA RESULT:      -4.2      2.085      2.888
REMARK  Name = 
REMARK  3 active torsions:
REMARK  status: ('A' for Active; 'I' for Inactive)
REMARK    1  A    between atoms: C_1  and  O_2
REMARK    2  A    between atoms: O_2  and  C_3
REMARK    3  A    between atoms: C_6  and  S_9
REMARK                            x       y       z     vdW  Elec       q    Type
REMARK                         _______ _______ _______ _____ _____    ______ ____
ROOT
ATOM      1  C   UNL     1       9.983   0.292  23.297  0.00  0.00    +0.120 A 
ATOM      2  C   UNL     1      10.146  -0.863  22.530  0.00  0.00    +0.047 A 
ATOM      3  C   UNL     1       9.842  -2.117  23.069  0.00  0.00    +0.032 A 
ATOM      4  C   UNL     1       9.351  -2.220  24.374  0.00  0.00    +0.113 A 
ATOM      5  C   UNL     1       9.145  -1.059  25.123  0.00  0.00    +0.032 A 
ATOM      6  C   UNL     1       9.454   0.194  24.585  0.00  0.00    +0.047 A 
ENDROOT
BRANCH   4   7
ATOM      7  S   UNL     1       9.027  -3.808  25.096  0.00  0.00    +0.120 S 
ATOM      8  O   UNL     1       8.715  -3.637  26.561  0.00  0.00    -0.147 OA
ATOM      9  O   UNL     1      10.149  -4.753  24.740  0.00  0.00    -0.147 OA
ENDBRANCH   4   7
BRANCH   1  11
ATOM     10  C   UNL     1      10.480   2.570  23.588  0.00  0.00    +0.277 C 
ATOM     11  O   UNL     1      10.342   1.468  22.693  0.00  0.00    -0.495 OA
ENDBRANCH   1  11
TORSDOF 2
ENDMDL
MODEL 8
REMARK VINA RESULT:      -4.1      4.492      5.836
REMARK  Name = 
REMARK  3 active torsions:
REMARK  status: ('A' for Active; 'I' for Inactive)
REMARK    1  A    between atoms: C_1  and  O_2
REMARK    2  A    between atoms: O_2  and  C_3
REMARK    3  A    between atoms: C_6  and  S_9
REMARK                            x       y       z     vdW  Elec       q    Type
REMARK                         _______ _______ _______ _____ _____    ______ ____
ROOT
ATOM      1  C   UNL     1       8.378  -2.971  23.287  0.00  0.00    +0.120 A 
ATOM      2  C   UNL     1       8.672  -2.652  24.614  0.00  0.00    +0.047 A 
ATOM      3  C   UNL     1       8.119  -3.399  25.659  0.00  0.00    +0.032 A 
ATOM      4  C   UNL     1       7.284  -4.486  25.380  0.00  0.00    +0.113 A 
ATOM      5  C   UNL     1       7.030  -4.831  24.050  0.00  0.00    +0.032 A 
ATOM      6  C   UNL     1       7.579  -4.081  23.006  0.00  0.00    +0.047 A 
ENDROOT
BRANCH   4   7
ATOM      7  S   UNL     1       6.520  -5.399  26.693  0.00  0.00    +0.120 S 
ATOM      8  O   UNL     1       7.560  -5.758  27.724  0.00  0.00    -0.147 OA
ATOM      9  O   UNL     1       5.717  -6.535  26.107  0.00  0.00    -0.147 OA
ENDBRANCH   4   7
BRANCH   1  11
ATOM     10  C   UNL     1      10.229  -1.659  22.679  0.00  0.00    +0.277 C 
ATOM     11  O   UNL     1       8.939  -2.159  22.337  0.00  0.00    -0.495 OA
ENDBRANCH   1  11
TORSDOF 2
ENDMDL
MODEL 9
REMARK VINA RESULT:      -4.0      2.210      3.035
REMARK  Name = 
REMARK  3 active torsions:
REMARK  status: ('A' for Active; 'I' for Inactive)
REMARK    1  A    between atoms: C_1  and  O_2
REMARK    2  A    between atoms: O_2  and  C_3
REMARK    3  A    between atoms: C_6  and  S_9
REMARK                            x       y       z     vdW  Elec       q    Type
REMARK                         _______ _______ _______ _____ _____    ______ ____
ROOT
ATOM      1  C   UNL     1       9.353   0.454  22.114  0.00  0.00    +0.120 A 
ATOM      2  C   UNL     1       8.092   0.640  22.685  0.00  0.00    +0.047 A 
ATOM      3  C   UNL     1       7.251  -0.454  22.908  0.00  0.00    +0.032 A 
ATOM      4  C   UNL     1       7.676  -1.746  22.581  0.00  0.00    +0.113 A 
ATOM      5  C   UNL     1       8.956  -1.933  22.054  0.00  0.00    +0.032 A 
ATOM      6  C   UNL     1       9.795  -0.838  21.826  0.00  0.00    +0.047 A 
ENDROOT
BRANCH   4   7
ATOM      7  S   UNL     1       6.594  -3.135  22.793  0.00  0.00    +0.120 S 
ATOM      8  O   UNL     1       7.405  -4.406  22.790  0.00  0.00    -0.147 OA
ATOM      9  O   UNL     1       5.464  -3.041  21.798  0.00  0.00    -0.147 OA
ENDBRANCH   4   7
BRANCH   1  11
ATOM     10  C   UNL     1      10.105   2.494  23.005  0.00  0.00    +0.277 C 
ATOM     11  O   UNL     1      10.088   1.591  21.902  0.00  0.00    -0.495 OA
ENDBRANCH   1  11
TORSDOF 2
ENDMDL
