MODEL 1
REMARK VINA RESULT:      -2.5      0.000      0.000
REMARK  Name = 
REMARK  3 active torsions:
REMARK  status: ('A' for Active; 'I' for Inactive)
REMARK    1  A    between atoms: N_1  and  C_2
REMARK    2  A    between atoms: C_2  and  C_3
REMARK    3  A    between atoms: C_3  and  S_4
REMARK                            x       y       z     vdW  Elec       q    Type
REMARK                         _______ _______ _______ _____ _____    ______ ____
ROOT
ATOM      1  C   UNL     1      12.738   4.908  23.248  0.00  0.00    +0.088 C 
ENDROOT
BRANCH   1   2
ATOM      2  N   UNL     1      14.170   5.154  23.062  0.00  0.00    -0.329 NA
ATOM      3  H   UNL     1      14.702   4.605  23.738  0.00  0.00    +0.118 HD
ATOM      4  H   UNL     1      14.451   4.812  22.142  0.00  0.00    +0.118 HD
ENDBRANCH   1   2
BRANCH   1   5
ATOM      5  C   UNL     1      12.078   6.044  24.032  0.00  0.00    +0.080 C 
BRANCH   5   6
ATOM      6  S   UNL     1      10.269   5.996  23.843  0.00  0.00    -0.177 S 
ATOM      7  H   UNL     1      10.139   7.227  23.327  0.00  0.00    +0.102 HD
ENDBRANCH   5   6
ENDBRANCH   1   5
TORSDOF 3
ENDMDL
MODEL 2
REMARK VINA RESULT:      -2.2      6.244      6.488
REMARK  Name = 
REMARK  3 active torsions:
REMARK  status: ('A' for Active; 'I' for Inactive)
REMARK    1  A    between atoms: N_1  and  C_2
REMARK    2  A    between atoms: C_2  and  C_3
REMARK    3  A    between atoms: C_3  and  S_4
REMARK                            x       y       z     vdW  Elec       q    Type
REMARK                         _______ _______ _______ _____ _____    ______ ____
ROOT
ATOM      1  C   UNL     1       9.982   1.174  22.081  0.00  0.00    +0.088 C 
ENDROOT
BRANCH   1   2
ATOM      2  N   UNL     1       9.161   2.243  21.509  0.00  0.00    -0.329 NA
ATOM      3  H   UNL     1       8.693   1.903  20.668  0.00  0.00    +0.118 HD
ATOM      4  H   UNL     1       8.417   2.481  22.165  0.00  0.00    +0.118 HD
ENDBRANCH   1   2
BRANCH   1   5
ATOM      5  C   UNL     1       9.550  -0.197  21.557  0.00  0.00    +0.080 C 
BRANCH   5   6
ATOM      6  S   UNL     1      10.152  -1.526  22.644  0.00  0.00    -0.177 S 
ATOM      7  H   UNL     1      11.310  -0.936  22.975  0.00  0.00    +0.102 HD
ENDBRANCH   5   6
ENDBRANCH   1   5
TORSDOF 3
ENDMDL
MODEL 3
REMARK VINA RESULT:      -2.2      5.469      5.548
REMARK  Name = 
REMARK  3 active torsions:
REMARK  status: ('A' for Active; 'I' for Inactive)
REMARK    1  A    between atoms: N_1  and  C_2
REMARK    2  A    between atoms: C_2  and  C_3
REMARK    3  A    between atoms: C_3  and  S_4
REMARK                            x       y       z     vdW  Elec       q    Type
REMARK                         _______ _______ _______ _____ _____    ______ ____
ROOT
ATOM      1  C   UNL     1       9.508   0.900  21.762  0.00  0.00    +0.088 C 
ENDROOT
BRANCH   1   2
ATOM      2  N   UNL     1      10.154   2.213  21.701  0.00  0.00    -0.329 NA
ATOM      3  H   UNL     1      10.815   2.233  20.924  0.00  0.00    +0.118 HD
ATOM      4  H   UNL     1       9.451   2.921  21.488  0.00  0.00    +0.118 HD
ENDBRANCH   1   2
BRANCH   1   5
ATOM      5  C   UNL     1      10.196  -0.009  22.783  0.00  0.00    +0.080 C 
BRANCH   5   6
ATOM      6  S   UNL     1      10.643   0.922  24.281  0.00  0.00    -0.177 S 
ATOM      7  H   UNL     1      11.297   1.912  23.654  0.00  0.00    +0.102 HD
ENDBRANCH   5   6
ENDBRANCH   1   5
TORSDOF 3
ENDMDL
MODEL 4
REMARK VINA RESULT:      -2.1     11.265     11.265
REMARK  Name = 
REMARK  3 active torsions:
REMARK  status: ('A' for Active; 'I' for Inactive)
REMARK    1  A    between atoms: N_1  and  C_2
REMARK    2  A    between atoms: C_2  and  C_3
REMARK    3  A    between atoms: C_3  and  S_4
REMARK                            x       y       z     vdW  Elec       q    Type
REMARK                         _______ _______ _______ _____ _____    ______ ____
ROOT
ATOM      1  C   UNL     1       9.219  -4.654  25.169  0.00  0.00    +0.088 C 
ENDROOT
BRANCH   1   2
ATOM      2  N   UNL     1      10.374  -5.508  25.457  0.00  0.00    -0.329 NA
ATOM      3  H   UNL     1      10.189  -6.455  25.125  0.00  0.00    +0.118 HD
ATOM      4  H   UNL     1      11.177  -5.176  24.921  0.00  0.00    +0.118 HD
ENDBRANCH   1   2
BRANCH   1   5
ATOM      5  C   UNL     1       8.589  -4.122  26.457  0.00  0.00    +0.080 C 
BRANCH   5   6
ATOM      6  S   UNL     1       7.250  -5.215  27.024  0.00  0.00    -0.177 S 
ATOM      7  H   UNL     1       7.892  -5.694  28.100  0.00  0.00    +0.102 HD
ENDBRANCH   5   6
ENDBRANCH   1   5
TORSDOF 3
ENDMDL
MODEL 5
REMARK VINA RESULT:      -2.1     10.776     10.858
REMARK  Name = 
REMARK  3 active torsions:
REMARK  status: ('A' for Active; 'I' for Inactive)
REMARK    1  A    between atoms: N_1  and  C_2
REMARK    2  A    between atoms: C_2  and  C_3
REMARK    3  A    between atoms: C_3  and  S_4
REMARK                            x       y       z     vdW  Elec       q    Type
REMARK                         _______ _______ _______ _____ _____    ______ ____
ROOT
ATOM      1  C   UNL     1       8.875  -5.151  25.501  0.00  0.00    +0.088 C 
ENDROOT
BRANCH   1   2
ATOM      2  N   UNL     1      10.274  -5.564  25.372  0.00  0.00    -0.329 NA
ATOM      3  H   UNL     1      10.697  -5.634  26.299  0.00  0.00    +0.118 HD
ATOM      4  H   UNL     1      10.311  -6.504  24.977  0.00  0.00    +0.118 HD
ENDBRANCH   1   2
BRANCH   1   5
ATOM      5  C   UNL     1       8.286  -4.761  24.144  0.00  0.00    +0.080 C 
BRANCH   5   6
ATOM      6  S   UNL     1       8.619  -3.012  23.772  0.00  0.00    -0.177 S 
ATOM      7  H   UNL     1       7.810  -2.928  22.706  0.00  0.00    +0.102 HD
ENDBRANCH   5   6
ENDBRANCH   1   5
TORSDOF 3
ENDMDL
MODEL 6
REMARK VINA RESULT:      -2.1      6.844      6.991
REMARK  Name = 
REMARK  3 active torsions:
REMARK  status: ('A' for Active; 'I' for Inactive)
REMARK    1  A    between atoms: N_1  and  C_2
REMARK    2  A    between atoms: C_2  and  C_3
REMARK    3  A    between atoms: C_3  and  S_4
REMARK                            x       y       z     vdW  Elec       q    Type
REMARK                         _______ _______ _______ _____ _____    ______ ____
ROOT
ATOM      1  C   UNL     1      10.256  -1.718  22.949  0.00  0.00    +0.088 C 
ENDROOT
BRANCH   1   2
ATOM      2  N   UNL     1      10.060  -1.463  21.520  0.00  0.00    -0.329 NA
ATOM      3  H   UNL     1       9.263  -2.002  21.183  0.00  0.00    +0.118 HD
ATOM      4  H   UNL     1       9.810  -0.482  21.387  0.00  0.00    +0.118 HD
ENDBRANCH   1   2
BRANCH   1   5
ATOM      5  C   UNL     1       9.516  -0.688  23.803  0.00  0.00    +0.080 C 
BRANCH   5   6
ATOM      6  S   UNL     1      10.673   0.537  24.490  0.00  0.00    -0.177 S 
ATOM      7  H   UNL     1      11.790  -0.016  23.993  0.00  0.00    +0.102 HD
ENDBRANCH   5   6
ENDBRANCH   1   5
TORSDOF 3
ENDMDL
MODEL 7
REMARK VINA RESULT:      -2.0     11.668     11.815
REMARK  Name = 
REMARK  3 active torsions:
REMARK  status: ('A' for Active; 'I' for Inactive)
REMARK    1  A    between atoms: N_1  and  C_2
REMARK    2  A    between atoms: C_2  and  C_3
REMARK    3  A    between atoms: C_3  and  S_4
REMARK                            x       y       z     vdW  Elec       q    Type
REMARK                         _______ _______ _______ _____ _____    ______ ____
ROOT
ATOM      1  C   UNL     1       7.587  -5.215  26.568  0.00  0.00    +0.088 C 
ENDROOT
BRANCH   1   2
ATOM      2  N   UNL     1       7.504  -6.025  27.786  0.00  0.00    -0.329 NA
ATOM      3  H   UNL     1       6.563  -6.409  27.878  0.00  0.00    +0.118 HD
ATOM      4  H   UNL     1       8.126  -6.829  27.695  0.00  0.00    +0.118 HD
ENDBRANCH   1   2
BRANCH   1   5
ATOM      5  C   UNL     1       8.965  -4.566  26.427  0.00  0.00    +0.080 C 
BRANCH   5   6
ATOM      6  S   UNL     1       9.169  -3.833  24.774  0.00  0.00    -0.177 S 
ATOM      7  H   UNL     1       9.684  -2.666  25.189  0.00  0.00    +0.102 HD
ENDBRANCH   5   6
ENDBRANCH   1   5
TORSDOF 3
ENDMDL
MODEL 8
REMARK VINA RESULT:      -2.0      5.422      5.592
REMARK  Name = 
REMARK  3 active torsions:
REMARK  status: ('A' for Active; 'I' for Inactive)
REMARK    1  A    between atoms: N_1  and  C_2
REMARK    2  A    between atoms: C_2  and  C_3
REMARK    3  A    between atoms: C_3  and  S_4
REMARK                            x       y       z     vdW  Elec       q    Type
REMARK                         _______ _______ _______ _____ _____    ______ ____
ROOT
ATOM      1  C   UNL     1       9.754   0.836  21.834  0.00  0.00    +0.088 C 
ENDROOT
BRANCH   1   2
ATOM      2  N   UNL     1      10.151   2.238  21.687  0.00  0.00    -0.329 NA
ATOM      3  H   UNL     1       9.652   2.653  20.899  0.00  0.00    +0.118 HD
ATOM      4  H   UNL     1       9.852   2.758  22.512  0.00  0.00    +0.118 HD
ENDBRANCH   1   2
BRANCH   1   5
ATOM      5  C   UNL     1       8.298   0.717  22.288  0.00  0.00    +0.080 C 
BRANCH   5   6
ATOM      6  S   UNL     1       7.405   2.279  22.017  0.00  0.00    -0.177 S 
ATOM      7  H   UNL     1       6.269   1.910  22.627  0.00  0.00    +0.102 HD
ENDBRANCH   5   6
ENDBRANCH   1   5
TORSDOF 3
ENDMDL
MODEL 9
REMARK VINA RESULT:      -1.9     12.798     12.871
REMARK  Name = 
REMARK  3 active torsions:
REMARK  status: ('A' for Active; 'I' for Inactive)
REMARK    1  A    between atoms: N_1  and  C_2
REMARK    2  A    between atoms: C_2  and  C_3
REMARK    3  A    between atoms: C_3  and  S_4
REMARK                            x       y       z     vdW  Elec       q    Type
REMARK                         _______ _______ _______ _____ _____    ______ ____
ROOT
ATOM      1  C   UNL     1       7.879  -5.227  26.478  0.00  0.00    +0.088 C 
ENDROOT
BRANCH   1   2
ATOM      2  N   UNL     1       7.575  -5.977  27.698  0.00  0.00    -0.329 NA
ATOM      3  H   UNL     1       6.685  -5.659  28.082  0.00  0.00    +0.118 HD
ATOM      4  H   UNL     1       7.442  -6.960  27.462  0.00  0.00    +0.118 HD
ENDBRANCH   1   2
BRANCH   1   5
ATOM      5  C   UNL     1       6.687  -5.221  25.519  0.00  0.00    +0.080 C 
BRANCH   5   6
ATOM      6  S   UNL     1       5.311  -6.204  26.191  0.00  0.00    -0.177 S 
ATOM      7  H   UNL     1       5.416  -7.222  25.323  0.00  0.00    +0.102 HD
ENDBRANCH   5   6
ENDBRANCH   1   5
TORSDOF 3
ENDMDL
