MODEL 1
REMARK VINA RESULT:      -6.9      0.000      0.000
REMARK  Name = 
REMARK  5 active torsions:
REMARK  status: ('A' for Active; 'I' for Inactive)
REMARK    1  A    between atoms: C_1  and  C_2
REMARK    2  A    between atoms: C_8  and  S_21
REMARK    3  A    between atoms: N_13  and  C_14
REMARK    4  A    between atoms: C_19  and  C_20
REMARK    5  A    between atoms: S_21  and  N_22
REMARK                            x       y       z     vdW  Elec       q    Type
REMARK                         _______ _______ _______ _____ _____    ______ ____
ROOT
ATOM      1  C   UNL     1       5.958   2.195  22.577  0.00  0.00    +0.050 C 
ATOM      2  C   UNL     1       6.489   1.044  23.423  0.00  0.00    +0.163 C 
ATOM      3  N   UNL     1       7.815   1.142  23.992  0.00  0.00    -0.249 N 
ATOM      4  C   UNL     1       8.111   0.157  24.931  0.00  0.00    +0.254 C 
ATOM      5  O   UNL     1       8.774   0.293  25.956  0.00  0.00    -0.270 OA
ATOM      6  C   UNL     1       7.693  -1.202  24.498  0.00  0.00    +0.060 A 
ATOM      7  C   UNL     1       7.011  -1.315  23.276  0.00  0.00    +0.042 A 
ATOM      8  C   UNL     1       6.883  -2.580  22.700  0.00  0.00    +0.045 A 
ATOM      9  C   UNL     1       7.365  -3.722  23.355  0.00  0.00    +0.069 A 
ATOM     10  C   UNL     1       7.958  -3.598  24.617  0.00  0.00    +0.124 A 
ATOM     11 CL   UNL     1       7.173  -5.224  22.523  0.00  0.00    -0.081 Cl
ATOM     12  C   UNL     1       8.144  -2.332  25.184  0.00  0.00    +0.045 A 
ATOM     13  N   UNL     1       6.426  -0.200  22.652  0.00  0.00    -0.325 N 
ATOM     14  H   UNL     1       6.709  -0.102  21.681  0.00  0.00    +0.148 HD
ENDROOT
BRANCH   3  15
ATOM     15  C   UNL     1       8.554   2.348  23.971  0.00  0.00    +0.041 A 
ATOM     16  C   UNL     1       9.700   2.448  23.155  0.00  0.00    -0.029 A 
ATOM     17  C   UNL     1      10.155   1.345  22.236  0.00  0.00    +0.045 C 
ATOM     18  C   UNL     1      10.487   3.611  23.221  0.00  0.00    +0.005 A 
ATOM     19  C   UNL     1      10.175   4.631  24.118  0.00  0.00    +0.000 A 
ATOM     20  C   UNL     1       9.063   4.512  24.947  0.00  0.00    +0.002 A 
ATOM     21  C   UNL     1       8.255   3.374  24.875  0.00  0.00    +0.024 A 
ENDBRANCH   3  15
BRANCH  10  22
ATOM     22  S   UNL     1       8.488  -5.007  25.535  0.00  0.00    +0.057 S 
ATOM     23  O   UNL     1       9.598  -5.623  24.846  0.00  0.00    -0.153 OA
ATOM     24  O   UNL     1       7.339  -5.759  25.964  0.00  0.00    -0.153 OA
BRANCH  22  25
ATOM     25  N   UNL     1       9.177  -4.309  26.899  0.00  0.00    -0.203 NA
ATOM     26  H   UNL     1      10.189  -4.445  26.889  0.00  0.00    +0.144 HD
ATOM     27  H   UNL     1       8.713  -4.657  27.739  0.00  0.00    +0.144 HD
ENDBRANCH  22  25
ENDBRANCH  10  22
TORSDOF 3
ENDMDL
MODEL 2
REMARK VINA RESULT:      -6.8      3.460      7.316
REMARK  Name = 
REMARK  5 active torsions:
REMARK  status: ('A' for Active; 'I' for Inactive)
REMARK    1  A    between atoms: C_1  and  C_2
REMARK    2  A    between atoms: C_8  and  S_21
REMARK    3  A    between atoms: N_13  and  C_14
REMARK    4  A    between atoms: C_19  and  C_20
REMARK    5  A    between atoms: S_21  and  N_22
REMARK                            x       y       z     vdW  Elec       q    Type
REMARK                         _______ _______ _______ _____ _____    ______ ____
ROOT
ATOM      1  C   UNL     1       9.346  -5.192  25.229  0.00  0.00    +0.050 C 
ATOM      2  C   UNL     1       8.720  -3.809  25.096  0.00  0.00    +0.163 C 
ATOM      3  N   UNL     1       7.330  -3.701  24.708  0.00  0.00    -0.249 N 
ATOM      4  C   UNL     1       6.795  -2.422  24.843  0.00  0.00    +0.254 C 
ATOM      5  O   UNL     1       5.656  -2.136  25.201  0.00  0.00    -0.270 OA
ATOM      6  C   UNL     1       7.695  -1.359  24.325  0.00  0.00    +0.060 A 
ATOM      7  C   UNL     1       8.956  -1.748  23.849  0.00  0.00    +0.042 A 
ATOM      8  C   UNL     1       9.689  -0.840  23.083  0.00  0.00    +0.045 A 
ATOM      9  C   UNL     1       9.207   0.456  22.848  0.00  0.00    +0.069 A 
ATOM     10  C   UNL     1       7.991   0.855  23.412  0.00  0.00    +0.124 A 
ATOM     11 CL   UNL     1      10.193   1.475  21.860  0.00  0.00    -0.081 Cl
ATOM     12  C   UNL     1       7.217  -0.060  24.136  0.00  0.00    +0.045 A 
ATOM     13  N   UNL     1       9.507  -3.003  24.160  0.00  0.00    -0.325 N 
ATOM     14  H   UNL     1       9.818  -3.509  23.335  0.00  0.00    +0.148 HD
ENDROOT
BRANCH   3  15
ATOM     15  C   UNL     1       6.475  -4.827  24.655  0.00  0.00    +0.041 A 
ATOM     16  C   UNL     1       6.079  -5.341  23.402  0.00  0.00    -0.029 A 
ATOM     17  C   UNL     1       6.576  -4.790  22.092  0.00  0.00    +0.045 C 
ATOM     18  C   UNL     1       5.146  -6.392  23.360  0.00  0.00    +0.005 A 
ATOM     19  C   UNL     1       4.576  -6.885  24.531  0.00  0.00    +0.000 A 
ATOM     20  C   UNL     1       4.943  -6.350  25.763  0.00  0.00    +0.002 A 
ATOM     21  C   UNL     1       5.889  -5.324  25.825  0.00  0.00    +0.024 A 
ENDBRANCH   3  15
BRANCH  10  22
ATOM     22  S   UNL     1       7.384   2.502  23.239  0.00  0.00    +0.057 S 
ATOM     23  O   UNL     1       7.014   2.722  21.860  0.00  0.00    -0.153 OA
ATOM     24  O   UNL     1       8.245   3.406  23.956  0.00  0.00    -0.153 OA
BRANCH  22  25
ATOM     25  N   UNL     1       5.921   2.436  24.061  0.00  0.00    -0.203 NA
ATOM     26  H   UNL     1       5.648   3.370  24.368  0.00  0.00    +0.144 HD
ATOM     27  H   UNL     1       5.974   1.745  24.810  0.00  0.00    +0.144 HD
ENDBRANCH  22  25
ENDBRANCH  10  22
TORSDOF 3
ENDMDL
MODEL 3
REMARK VINA RESULT:      -6.7      2.369      3.370
REMARK  Name = 
REMARK  5 active torsions:
REMARK  status: ('A' for Active; 'I' for Inactive)
REMARK    1  A    between atoms: C_1  and  C_2
REMARK    2  A    between atoms: C_8  and  S_21
REMARK    3  A    between atoms: N_13  and  C_14
REMARK    4  A    between atoms: C_19  and  C_20
REMARK    5  A    between atoms: S_21  and  N_22
REMARK                            x       y       z     vdW  Elec       q    Type
REMARK                         _______ _______ _______ _____ _____    ______ ____
ROOT
ATOM      1  C   UNL     1      10.992   1.918  23.749  0.00  0.00    +0.050 C 
ATOM      2  C   UNL     1      10.003   0.846  23.307  0.00  0.00    +0.163 C 
ATOM      3  N   UNL     1       8.585   1.113  23.406  0.00  0.00    -0.249 N 
ATOM      4  C   UNL     1       7.778   0.175  22.764  0.00  0.00    +0.254 C 
ATOM      5  O   UNL     1       6.738   0.397  22.152  0.00  0.00    -0.270 OA
ATOM      6  C   UNL     1       8.192  -1.226  23.034  0.00  0.00    +0.060 A 
ATOM      7  C   UNL     1       9.343  -1.428  23.812  0.00  0.00    +0.042 A 
ATOM      8  C   UNL     1       9.579  -2.700  24.336  0.00  0.00    +0.045 A 
ATOM      9  C   UNL     1       8.722  -3.770  24.041  0.00  0.00    +0.069 A 
ATOM     10  C   UNL     1       7.632  -3.569  23.187  0.00  0.00    +0.124 A 
ATOM     11 CL   UNL     1       9.105  -5.286  24.776  0.00  0.00    -0.081 Cl
ATOM     12  C   UNL     1       7.349  -2.288  22.697  0.00  0.00    +0.045 A 
ATOM     13  N   UNL     1      10.274  -0.398  24.033  0.00  0.00    -0.325 N 
ATOM     14  H   UNL     1      10.484  -0.267  25.019  0.00  0.00    +0.148 HD
ENDROOT
BRANCH   3  15
ATOM     15  C   UNL     1       8.082   2.404  23.695  0.00  0.00    +0.041 A 
ATOM     16  C   UNL     1       7.545   2.671  24.971  0.00  0.00    -0.029 A 
ATOM     17  C   UNL     1       7.535   1.662  26.088  0.00  0.00    +0.045 C 
ATOM     18  C   UNL     1       6.952   3.923  25.214  0.00  0.00    +0.005 A 
ATOM     19  C   UNL     1       6.843   4.868  24.196  0.00  0.00    +0.000 A 
ATOM     20  C   UNL     1       7.343   4.585  22.928  0.00  0.00    +0.002 A 
ATOM     21  C   UNL     1       7.959   3.357  22.677  0.00  0.00    +0.024 A 
ENDBRANCH   3  15
BRANCH  10  22
ATOM     22  S   UNL     1       6.581  -4.897  22.696  0.00  0.00    +0.057 S 
ATOM     23  O   UNL     1       5.864  -5.379  23.855  0.00  0.00    -0.153 OA
ATOM     24  O   UNL     1       7.303  -5.780  21.820  0.00  0.00    -0.153 OA
BRANCH  22  25
ATOM     25  N   UNL     1       5.414  -4.112  21.778  0.00  0.00    -0.203 NA
ATOM     26  H   UNL     1       5.430  -3.110  21.972  0.00  0.00    +0.144 HD
ATOM     27  H   UNL     1       4.505  -4.554  21.919  0.00  0.00    +0.144 HD
ENDBRANCH  22  25
ENDBRANCH  10  22
TORSDOF 3
ENDMDL
MODEL 4
REMARK VINA RESULT:      -6.7      3.460      5.127
REMARK  Name = 
REMARK  5 active torsions:
REMARK  status: ('A' for Active; 'I' for Inactive)
REMARK    1  A    between atoms: C_1  and  C_2
REMARK    2  A    between atoms: C_8  and  S_21
REMARK    3  A    between atoms: N_13  and  C_14
REMARK    4  A    between atoms: C_19  and  C_20
REMARK    5  A    between atoms: S_21  and  N_22
REMARK                            x       y       z     vdW  Elec       q    Type
REMARK                         _______ _______ _______ _____ _____    ______ ____
ROOT
ATOM      1  C   UNL     1      10.189  -2.814  24.129  0.00  0.00    +0.050 C 
ATOM      2  C   UNL     1       8.852  -3.463  23.792  0.00  0.00    +0.163 C 
ATOM      3  N   UNL     1       7.799  -2.651  23.224  0.00  0.00    -0.249 N 
ATOM      4  C   UNL     1       6.713  -3.376  22.738  0.00  0.00    +0.254 C 
ATOM      5  O   UNL     1       6.048  -3.122  21.738  0.00  0.00    -0.270 OA
ATOM      6  C   UNL     1       6.273  -4.450  23.666  0.00  0.00    +0.060 A 
ATOM      7  C   UNL     1       7.018  -4.645  24.839  0.00  0.00    +0.042 A 
ATOM      8  C   UNL     1       6.463  -5.417  25.861  0.00  0.00    +0.045 A 
ATOM      9  C   UNL     1       5.216  -6.039  25.697  0.00  0.00    +0.069 A 
ATOM     10  C   UNL     1       4.532  -5.909  24.484  0.00  0.00    +0.124 A 
ATOM     11 CL   UNL     1       4.624  -6.941  27.047  0.00  0.00    -0.081 Cl
ATOM     12  C   UNL     1       5.048  -5.094  23.469  0.00  0.00    +0.045 A 
ATOM     13  N   UNL     1       8.314  -4.121  24.985  0.00  0.00    -0.325 N 
ATOM     14  H   UNL     1       8.424  -3.584  25.841  0.00  0.00    +0.148 HD
ENDROOT
BRANCH   3  15
ATOM     15  C   UNL     1       8.030  -1.330  22.773  0.00  0.00    +0.041 A 
ATOM     16  C   UNL     1       7.248  -0.273  23.285  0.00  0.00    -0.029 A 
ATOM     17  C   UNL     1       6.205  -0.464  24.354  0.00  0.00    +0.045 C 
ATOM     18  C   UNL     1       7.412   1.018  22.754  0.00  0.00    +0.005 A 
ATOM     19  C   UNL     1       8.293   1.246  21.698  0.00  0.00    +0.000 A 
ATOM     20  C   UNL     1       9.036   0.193  21.172  0.00  0.00    +0.002 A 
ATOM     21  C   UNL     1       8.905  -1.091  21.707  0.00  0.00    +0.024 A 
ENDBRANCH   3  15
BRANCH  10  22
ATOM     22  S   UNL     1       3.013  -6.752  24.181  0.00  0.00    +0.057 S 
ATOM     23  O   UNL     1       1.939  -6.024  24.817  0.00  0.00    -0.153 OA
ATOM     24  O   UNL     1       3.202  -8.165  24.376  0.00  0.00    -0.153 OA
BRANCH  22  25
ATOM     25  N   UNL     1       2.779  -6.493  22.537  0.00  0.00    -0.203 NA
ATOM     26  H   UNL     1       3.300  -5.669  22.235  0.00  0.00    +0.144 HD
ATOM     27  H   UNL     1       1.781  -6.460  22.329  0.00  0.00    +0.144 HD
ENDBRANCH  22  25
ENDBRANCH  10  22
TORSDOF 3
ENDMDL
MODEL 5
REMARK VINA RESULT:      -6.5      3.764      6.997
REMARK  Name = 
REMARK  5 active torsions:
REMARK  status: ('A' for Active; 'I' for Inactive)
REMARK    1  A    between atoms: C_1  and  C_2
REMARK    2  A    between atoms: C_8  and  S_21
REMARK    3  A    between atoms: N_13  and  C_14
REMARK    4  A    between atoms: C_19  and  C_20
REMARK    5  A    between atoms: S_21  and  N_22
REMARK                            x       y       z     vdW  Elec       q    Type
REMARK                         _______ _______ _______ _____ _____    ______ ____
ROOT
ATOM      1  C   UNL     1       6.296  -2.324  22.631  0.00  0.00    +0.050 C 
ATOM      2  C   UNL     1       7.231  -1.144  22.871  0.00  0.00    +0.163 C 
ATOM      3  N   UNL     1       8.176  -1.208  23.963  0.00  0.00    -0.249 N 
ATOM      4  C   UNL     1       9.134  -0.195  23.953  0.00  0.00    +0.254 C 
ATOM      5  O   UNL     1      10.314  -0.296  24.276  0.00  0.00    -0.270 OA
ATOM      6  C   UNL     1       8.557   1.145  23.674  0.00  0.00    +0.060 A 
ATOM      7  C   UNL     1       7.184   1.218  23.393  0.00  0.00    +0.042 A 
ATOM      8  C   UNL     1       6.560   2.467  23.434  0.00  0.00    +0.045 A 
ATOM      9  C   UNL     1       7.299   3.632  23.687  0.00  0.00    +0.069 A 
ATOM     10  C   UNL     1       8.683   3.548  23.870  0.00  0.00    +0.124 A 
ATOM     11 CL   UNL     1       6.406   5.110  23.742  0.00  0.00    -0.081 Cl
ATOM     12  C   UNL     1       9.316   2.299  23.887  0.00  0.00    +0.045 A 
ATOM     13  N   UNL     1       6.443   0.079  23.033  0.00  0.00    -0.325 N 
ATOM     14  H   UNL     1       5.606  -0.037  23.598  0.00  0.00    +0.148 HD
ENDROOT
BRANCH   3  15
ATOM     15  C   UNL     1       8.413  -2.402  24.684  0.00  0.00    +0.041 A 
ATOM     16  C   UNL     1       7.894  -2.542  25.988  0.00  0.00    -0.029 A 
ATOM     17  C   UNL     1       7.028  -1.501  26.646  0.00  0.00    +0.045 C 
ATOM     18  C   UNL     1       8.224  -3.687  26.735  0.00  0.00    +0.005 A 
ATOM     19  C   UNL     1       9.095  -4.644  26.222  0.00  0.00    +0.000 A 
ATOM     20  C   UNL     1       9.634  -4.483  24.948  0.00  0.00    +0.002 A 
ATOM     21  C   UNL     1       9.296  -3.365  24.182  0.00  0.00    +0.024 A 
ENDBRANCH   3  15
BRANCH  10  22
ATOM     22  S   UNL     1       9.679   4.987  24.086  0.00  0.00    +0.057 S 
ATOM     23  O   UNL     1      11.044   4.668  23.735  0.00  0.00    -0.153 OA
ATOM     24  O   UNL     1       9.336   5.624  25.330  0.00  0.00    -0.153 OA
BRANCH  22  25
ATOM     25  N   UNL     1       9.148   5.983  22.842  0.00  0.00    -0.203 NA
ATOM     26  H   UNL     1       9.397   6.953  23.039  0.00  0.00    +0.144 HD
ATOM     27  H   UNL     1       8.153   5.830  22.675  0.00  0.00    +0.144 HD
ENDBRANCH  22  25
ENDBRANCH  10  22
TORSDOF 3
ENDMDL
MODEL 6
REMARK VINA RESULT:      -6.5      3.532      7.240
REMARK  Name = 
REMARK  5 active torsions:
REMARK  status: ('A' for Active; 'I' for Inactive)
REMARK    1  A    between atoms: C_1  and  C_2
REMARK    2  A    between atoms: C_8  and  S_21
REMARK    3  A    between atoms: N_13  and  C_14
REMARK    4  A    between atoms: C_19  and  C_20
REMARK    5  A    between atoms: S_21  and  N_22
REMARK                            x       y       z     vdW  Elec       q    Type
REMARK                         _______ _______ _______ _____ _____    ______ ____
ROOT
ATOM      1  C   UNL     1       6.555  -6.501  22.301  0.00  0.00    +0.050 C 
ATOM      2  C   UNL     1       7.194  -5.345  23.061  0.00  0.00    +0.163 C 
ATOM      3  N   UNL     1       6.524  -4.815  24.228  0.00  0.00    -0.249 N 
ATOM      4  C   UNL     1       7.295  -3.931  24.980  0.00  0.00    +0.254 C 
ATOM      5  O   UNL     1       7.309  -3.824  26.202  0.00  0.00    -0.270 OA
ATOM      6  C   UNL     1       8.019  -2.938  24.143  0.00  0.00    +0.060 A 
ATOM      7  C   UNL     1       7.902  -3.052  22.749  0.00  0.00    +0.042 A 
ATOM      8  C   UNL     1       8.303  -1.975  21.957  0.00  0.00    +0.045 A 
ATOM      9  C   UNL     1       8.870  -0.829  22.534  0.00  0.00    +0.069 A 
ATOM     10  C   UNL     1       9.064  -0.774  23.918  0.00  0.00    +0.124 A 
ATOM     11 CL   UNL     1       9.296   0.447  21.448  0.00  0.00    -0.081 Cl
ATOM     12  C   UNL     1       8.618  -1.822  24.732  0.00  0.00    +0.045 A 
ATOM     13  N   UNL     1       7.436  -4.230  22.142  0.00  0.00    -0.325 N 
ATOM     14  H   UNL     1       6.678  -4.059  21.487  0.00  0.00    +0.148 HD
ENDROOT
BRANCH   3  15
ATOM     15  C   UNL     1       5.412  -5.463  24.815  0.00  0.00    +0.041 A 
ATOM     16  C   UNL     1       4.107  -5.083  24.438  0.00  0.00    -0.029 A 
ATOM     17  C   UNL     1       3.824  -4.053  23.378  0.00  0.00    +0.045 C 
ATOM     18  C   UNL     1       3.009  -5.657  25.103  0.00  0.00    +0.005 A 
ATOM     19  C   UNL     1       3.202  -6.547  26.158  0.00  0.00    +0.000 A 
ATOM     20  C   UNL     1       4.493  -6.892  26.550  0.00  0.00    +0.002 A 
ATOM     21  C   UNL     1       5.595  -6.351  25.882  0.00  0.00    +0.024 A 
ENDBRANCH   3  15
BRANCH  10  22
ATOM     22  S   UNL     1       9.867   0.594  24.688  0.00  0.00    +0.057 S 
ATOM     23  O   UNL     1       9.029   1.763  24.556  0.00  0.00    -0.153 OA
ATOM     24  O   UNL     1      11.258   0.602  24.320  0.00  0.00    -0.153 OA
BRANCH  22  25
ATOM     25  N   UNL     1       9.775   0.194  26.318  0.00  0.00    -0.203 NA
ATOM     26  H   UNL     1       9.795  -0.820  26.431  0.00  0.00    +0.144 HD
ATOM     27  H   UNL     1       8.966   0.650  26.742  0.00  0.00    +0.144 HD
ENDBRANCH  22  25
ENDBRANCH  10  22
TORSDOF 3
ENDMDL
MODEL 7
REMARK VINA RESULT:      -6.5      3.087      4.228
REMARK  Name = 
REMARK  5 active torsions:
REMARK  status: ('A' for Active; 'I' for Inactive)
REMARK    1  A    between atoms: C_1  and  C_2
REMARK    2  A    between atoms: C_8  and  S_21
REMARK    3  A    between atoms: N_13  and  C_14
REMARK    4  A    between atoms: C_19  and  C_20
REMARK    5  A    between atoms: S_21  and  N_22
REMARK                            x       y       z     vdW  Elec       q    Type
REMARK                         _______ _______ _______ _____ _____    ______ ____
ROOT
ATOM      1  C   UNL     1       9.199  -0.432  26.276  0.00  0.00    +0.050 C 
ATOM      2  C   UNL     1       8.458  -1.520  25.509  0.00  0.00    +0.163 C 
ATOM      3  N   UNL     1       7.972  -1.235  24.177  0.00  0.00    -0.249 N 
ATOM      4  C   UNL     1       7.523  -2.355  23.479  0.00  0.00    +0.254 C 
ATOM      5  O   UNL     1       7.653  -2.572  22.278  0.00  0.00    -0.270 OA
ATOM      6  C   UNL     1       6.666  -3.247  24.303  0.00  0.00    +0.060 A 
ATOM      7  C   UNL     1       6.479  -2.907  25.651  0.00  0.00    +0.042 A 
ATOM      8  C   UNL     1       5.453  -3.533  26.360  0.00  0.00    +0.045 A 
ATOM      9  C   UNL     1       4.665  -4.526  25.759  0.00  0.00    +0.069 A 
ATOM     10  C   UNL     1       4.929  -4.917  24.442  0.00  0.00    +0.124 A 
ATOM     11 CL   UNL     1       3.407  -5.202  26.732  0.00  0.00    -0.081 Cl
ATOM     12  C   UNL     1       5.919  -4.261  23.699  0.00  0.00    +0.045 A 
ATOM     13  N   UNL     1       7.323  -1.994  26.306  0.00  0.00    -0.325 N 
ATOM     14  H   UNL     1       6.809  -1.255  26.777  0.00  0.00    +0.148 HD
ENDROOT
BRANCH   3  15
ATOM     15  C   UNL     1       8.340  -0.062  23.478  0.00  0.00    +0.041 A 
ATOM     16  C   UNL     1       7.433   1.015  23.399  0.00  0.00    -0.029 A 
ATOM     17  C   UNL     1       6.094   1.015  24.086  0.00  0.00    +0.045 C 
ATOM     18  C   UNL     1       7.766   2.132  22.614  0.00  0.00    +0.005 A 
ATOM     19  C   UNL     1       8.948   2.157  21.877  0.00  0.00    +0.000 A 
ATOM     20  C   UNL     1       9.823   1.076  21.929  0.00  0.00    +0.002 A 
ATOM     21  C   UNL     1       9.521  -0.031  22.726  0.00  0.00    +0.024 A 
ENDBRANCH   3  15
BRANCH  10  22
ATOM     22  S   UNL     1       4.043  -6.231  23.669  0.00  0.00    +0.057 S 
ATOM     23  O   UNL     1       2.682  -5.804  23.436  0.00  0.00    -0.153 OA
ATOM     24  O   UNL     1       4.355  -7.471  24.327  0.00  0.00    -0.153 OA
BRANCH  22  25
ATOM     25  N   UNL     1       4.735  -6.280  22.138  0.00  0.00    -0.203 NA
ATOM     26  H   UNL     1       4.037  -6.044  21.431  0.00  0.00    +0.144 HD
ATOM     27  H   UNL     1       5.194  -7.179  21.993  0.00  0.00    +0.144 HD
ENDBRANCH  22  25
ENDBRANCH  10  22
TORSDOF 3
ENDMDL
MODEL 8
REMARK VINA RESULT:      -6.4      3.566      7.330
REMARK  Name = 
REMARK  5 active torsions:
REMARK  status: ('A' for Active; 'I' for Inactive)
REMARK    1  A    between atoms: C_1  and  C_2
REMARK    2  A    between atoms: C_8  and  S_21
REMARK    3  A    between atoms: N_13  and  C_14
REMARK    4  A    between atoms: C_19  and  C_20
REMARK    5  A    between atoms: S_21  and  N_22
REMARK                            x       y       z     vdW  Elec       q    Type
REMARK                         _______ _______ _______ _____ _____    ______ ____
ROOT
ATOM      1  C   UNL     1       9.445  -4.467  24.885  0.00  0.00    +0.050 C 
ATOM      2  C   UNL     1       8.824  -3.076  24.844  0.00  0.00    +0.163 C 
ATOM      3  N   UNL     1       7.651  -2.854  24.027  0.00  0.00    -0.249 N 
ATOM      4  C   UNL     1       7.028  -1.625  24.240  0.00  0.00    +0.254 C 
ATOM      5  O   UNL     1       5.821  -1.401  24.229  0.00  0.00    -0.270 OA
ATOM      6  C   UNL     1       7.988  -0.494  24.314  0.00  0.00    +0.060 A 
ATOM      7  C   UNL     1       9.357  -0.795  24.237  0.00  0.00    +0.042 A 
ATOM      8  C   UNL     1      10.255   0.246  23.993  0.00  0.00    +0.045 A 
ATOM      9  C   UNL     1       9.810   1.571  23.890  0.00  0.00    +0.069 A 
ATOM     10  C   UNL     1       8.453   1.861  24.064  0.00  0.00    +0.124 A 
ATOM     11 CL   UNL     1      11.016   2.763  23.556  0.00  0.00    -0.081 Cl
ATOM     12  C   UNL     1       7.531   0.825  24.255  0.00  0.00    +0.045 A 
ATOM     13  N   UNL     1       9.838  -2.099  24.442  0.00  0.00    -0.325 N 
ATOM     14  H   UNL     1      10.444  -2.415  23.689  0.00  0.00    +0.148 HD
ENDROOT
BRANCH   3  15
ATOM     15  C   UNL     1       6.934  -3.920  23.435  0.00  0.00    +0.041 A 
ATOM     16  C   UNL     1       6.112  -4.737  24.240  0.00  0.00    -0.029 A 
ATOM     17  C   UNL     1       5.897  -4.495  25.710  0.00  0.00    +0.045 C 
ATOM     18  C   UNL     1       5.488  -5.857  23.662  0.00  0.00    +0.005 A 
ATOM     19  C   UNL     1       5.720  -6.193  22.330  0.00  0.00    +0.000 A 
ATOM     20  C   UNL     1       6.560  -5.404  21.550  0.00  0.00    +0.002 A 
ATOM     21  C   UNL     1       7.167  -4.272  22.101  0.00  0.00    +0.024 A 
ENDBRANCH   3  15
BRANCH  10  22
ATOM     22  S   UNL     1       7.849   3.518  24.052  0.00  0.00    +0.057 S 
ATOM     23  O   UNL     1       8.725   4.342  24.853  0.00  0.00    -0.153 OA
ATOM     24  O   UNL     1       6.422   3.509  24.238  0.00  0.00    -0.153 OA
BRANCH  22  25
ATOM     25  N   UNL     1       8.151   4.000  22.471  0.00  0.00    -0.203 NA
ATOM     26  H   UNL     1       9.146   4.195  22.348  0.00  0.00    +0.144 HD
ATOM     27  H   UNL     1       7.536   4.774  22.220  0.00  0.00    +0.144 HD
ENDBRANCH  22  25
ENDBRANCH  10  22
TORSDOF 3
ENDMDL
MODEL 9
REMARK VINA RESULT:      -6.4      2.112      2.747
REMARK  Name = 
REMARK  5 active torsions:
REMARK  status: ('A' for Active; 'I' for Inactive)
REMARK    1  A    between atoms: C_1  and  C_2
REMARK    2  A    between atoms: C_8  and  S_21
REMARK    3  A    between atoms: N_13  and  C_14
REMARK    4  A    between atoms: C_19  and  C_20
REMARK    5  A    between atoms: S_21  and  N_22
REMARK                            x       y       z     vdW  Elec       q    Type
REMARK                         _______ _______ _______ _____ _____    ______ ____
ROOT
ATOM      1  C   UNL     1       9.319   0.017  21.129  0.00  0.00    +0.050 C 
ATOM      2  C   UNL     1       8.456  -0.744  22.128  0.00  0.00    +0.163 C 
ATOM      3  N   UNL     1       7.828  -0.018  23.210  0.00  0.00    -0.249 N 
ATOM      4  C   UNL     1       6.881  -0.753  23.920  0.00  0.00    +0.254 C 
ATOM      5  O   UNL     1       5.827  -0.335  24.391  0.00  0.00    -0.270 OA
ATOM      6  C   UNL     1       7.339  -2.129  24.244  0.00  0.00    +0.060 A 
ATOM      7  C   UNL     1       8.591  -2.532  23.753  0.00  0.00    +0.042 A 
ATOM      8  C   UNL     1       9.179  -3.679  24.287  0.00  0.00    +0.045 A 
ATOM      9  C   UNL     1       8.508  -4.451  25.247  0.00  0.00    +0.069 A 
ATOM     10  C   UNL     1       7.221  -4.084  25.654  0.00  0.00    +0.124 A 
ATOM     11 CL   UNL     1       9.355  -5.830  25.853  0.00  0.00    -0.081 Cl
ATOM     12  C   UNL     1       6.639  -2.907  25.170  0.00  0.00    +0.045 A 
ATOM     13  N   UNL     1       9.235  -1.835  22.716  0.00  0.00    -0.325 N 
ATOM     14  H   UNL     1      10.192  -1.585  22.949  0.00  0.00    +0.148 HD
ENDROOT
BRANCH   3  15
ATOM     15  C   UNL     1       7.810   1.396  23.256  0.00  0.00    +0.041 A 
ATOM     16  C   UNL     1       8.776   2.079  24.025  0.00  0.00    -0.029 A 
ATOM     17  C   UNL     1       9.887   1.380  24.760  0.00  0.00    +0.045 C 
ATOM     18  C   UNL     1       8.685   3.477  24.149  0.00  0.00    +0.005 A 
ATOM     19  C   UNL     1       7.627   4.176  23.572  0.00  0.00    +0.000 A 
ATOM     20  C   UNL     1       6.657   3.492  22.844  0.00  0.00    +0.002 A 
ATOM     21  C   UNL     1       6.746   2.107  22.688  0.00  0.00    +0.024 A 
ENDBRANCH   3  15
BRANCH  10  22
ATOM     22  S   UNL     1       6.287  -5.071  26.778  0.00  0.00    +0.057 S 
ATOM     23  O   UNL     1       6.916  -5.023  28.078  0.00  0.00    -0.153 OA
ATOM     24  O   UNL     1       5.933  -6.314  26.144  0.00  0.00    -0.153 OA
BRANCH  22  25
ATOM     25  N   UNL     1       4.878  -4.175  26.960  0.00  0.00    -0.203 NA
ATOM     26  H   UNL     1       5.089  -3.177  26.911  0.00  0.00    +0.144 HD
ATOM     27  H   UNL     1       4.391  -4.460  27.810  0.00  0.00    +0.144 HD
ENDBRANCH  22  25
ENDBRANCH  10  22
TORSDOF 3
ENDMDL
