MODEL 1
REMARK VINA RESULT:      -6.5      0.000      0.000
REMARK  Name = 
REMARK  19 active torsions:
REMARK  status: ('A' for Active; 'I' for Inactive)
REMARK    1  A    between atoms: C_1  and  C_2
REMARK    2  A    between atoms: C_2  and  C_3
REMARK    3  A    between atoms: C_3  and  O_4
REMARK    4  A    between atoms: C_6  and  O_8
REMARK    5  A    between atoms: O_8  and  C_9
REMARK    6  A    between atoms: C_12  and  N_44
REMARK    7  A    between atoms: C_14  and  O_16
REMARK    8  A    between atoms: O_16  and  C_17
REMARK    9  A    between atoms: C_20  and  O_22
REMARK   10  A    between atoms: C_23  and  O_25
REMARK   11  A    between atoms: O_25  and  C_26
REMARK   12  A    between atoms: C_32  and  C_34
REMARK   13  A    between atoms: C_36  and  C_38
REMARK   14  A    between atoms: C_40  and  C_42
REMARK   15  A    between atoms: N_44  and  C_45
REMARK   16  A    between atoms: N_44  and  C_46
REMARK   17  A    between atoms: C_48  and  O_49
REMARK   18  A    between atoms: C_54  and  O_56
REMARK   19  A    between atoms: C_63  and  O_64
REMARK                            x       y       z     vdW  Elec       q    Type
REMARK                         _______ _______ _______ _____ _____    ______ ____
ROOT
ATOM      1  C   UNL     1       8.961  -2.044  23.928  0.00  0.00    +0.098 C 
ATOM      2  C   UNL     1       8.593  -3.436  24.509  0.00  0.00    +0.177 C 
ATOM      3  C   UNL     1       7.313  -3.403  25.323  0.00  0.00    -0.007 A 
ATOM      4  C   UNL     1       6.336  -2.400  25.141  0.00  0.00    +0.029 A 
ATOM      5  C   UNL     1       5.176  -2.444  25.953  0.00  0.00    +0.134 A 
ATOM      6  C   UNL     1       4.973  -3.437  26.924  0.00  0.00    +0.075 A 
ATOM      7  C   UNL     1       3.844  -3.401  27.899  0.00  0.00    +0.202 C 
ATOM      8  O   UNL     1       3.232  -2.350  28.075  0.00  0.00    -0.286 OA
ATOM      9  C   UNL     1       3.547  -4.605  28.717  0.00  0.00    +0.075 A 
ATOM     10  C   UNL     1       4.474  -5.649  28.755  0.00  0.00    +0.037 A 
ATOM     11  C   UNL     1       4.245  -6.784  29.549  0.00  0.00    +0.012 A 
ATOM     12  C   UNL     1       3.085  -6.877  30.313  0.00  0.00    +0.004 A 
ATOM     13  C   UNL     1       2.157  -5.840  30.290  0.00  0.00    +0.046 A 
ATOM     14  C   UNL     1       5.714  -5.580  27.964  0.00  0.00    +0.195 C 
ATOM     15  O   UNL     1       6.560  -6.462  28.056  0.00  0.00    -0.287 OA
ATOM     16  C   UNL     1       2.383  -4.716  29.490  0.00  0.00    +0.128 A 
ATOM     17  C   UNL     1       5.909  -4.458  27.030  0.00  0.00    +0.037 A 
ATOM     18  C   UNL     1       6.475  -1.297  24.090  0.00  0.00    +0.158 C 
ATOM     19  C   UNL     1       7.063  -4.441  26.240  0.00  0.00    +0.019 A 
ATOM     20  C   UNL     1       7.733  -1.439  23.220  0.00  0.00    +0.074 C 
ENDROOT
BRANCH   1  22
ATOM     21  C   UNL     1      10.238  -1.085  21.865  0.00  0.00    +0.007 C 
ATOM     22  C   UNL     1      10.183  -2.124  22.975  0.00  0.00    +0.034 C 
ENDBRANCH   1  22
BRANCH   1  23
ATOM     23  O   UNL     1       9.411  -1.186  24.991  0.00  0.00    -0.386 OA
ATOM     24  H   UNL     1       9.778  -0.371  24.605  0.00  0.00    +0.210 HD
ENDBRANCH   1  23
BRANCH   2  25
ATOM     25  O   UNL     1       9.680  -3.890  25.320  0.00  0.00    -0.384 OA
ATOM     26  H   UNL     1      10.114  -4.632  24.871  0.00  0.00    +0.210 HD
ENDBRANCH   2  25
BRANCH  16  27
ATOM     27  O   UNL     1       1.429  -3.740  29.461  0.00  0.00    -0.506 OA
ATOM     28  H   UNL     1       1.815  -2.890  29.196  0.00  0.00    +0.292 HD
ENDBRANCH  16  27
BRANCH   5  29
ATOM     29  O   UNL     1       4.229  -1.472  25.774  0.00  0.00    -0.506 OA
ATOM     30  H   UNL     1       4.199  -1.301  24.810  0.00  0.00    +0.292 HD
ENDBRANCH   5  29
BRANCH  18  31
ATOM     31  O   UNL     1       6.363  -0.032  24.767  0.00  0.00    -0.343 OA
BRANCH  31  32
ATOM     32  C   UNL     1       5.787   1.049  24.015  0.00  0.00    +0.253 C 
ATOM     33  O   UNL     1       6.747   1.860  23.349  0.00  0.00    -0.346 OA
ATOM     34  C   UNL     1       7.497   2.776  24.169  0.00  0.00    +0.149 C 
ATOM     35  C   UNL     1       8.657   2.079  24.854  0.00  0.00    +0.041 C 
ATOM     36  C   UNL     1       6.628   3.628  25.137  0.00  0.00    +0.167 C 
ATOM     37  C   UNL     1       5.641   2.723  25.952  0.00  0.00    +0.092 C 
ATOM     38  C   UNL     1       4.860   1.923  24.884  0.00  0.00    +0.083 C 
BRANCH  37  39
ATOM     39  N   UNL     1       6.242   1.805  26.956  0.00  0.00    -0.303 NA
ATOM     40  C   UNL     1       7.195   2.383  27.899  0.00  0.00    +0.105 C 
ATOM     41  C   UNL     1       5.271   0.994  27.696  0.00  0.00    +0.105 C 
ENDBRANCH  37  39
BRANCH  36  42
ATOM     42  O   UNL     1       5.966   4.610  24.281  0.00  0.00    -0.344 OA
BRANCH  42  43
ATOM     43  C   UNL     1       5.122   5.597  24.870  0.00  0.00    +0.254 C 
ATOM     44  O   UNL     1       3.734   5.213  24.786  0.00  0.00    -0.346 OA
ATOM     45  C   UNL     1       3.127   5.189  23.476  0.00  0.00    +0.150 C 
ATOM     46  C   UNL     1       3.400   3.848  22.801  0.00  0.00    +0.041 C 
ATOM     47  C   UNL     1       3.369   6.475  22.638  0.00  0.00    +0.178 C 
ATOM     48  C   UNL     1       4.813   7.000  22.818  0.00  0.00    +0.151 C 
ATOM     49  C   UNL     1       5.243   6.996  24.282  0.00  0.00    +0.095 C 
BRANCH  48  50
ATOM     50  O   UNL     1       5.753   6.256  22.040  0.00  0.00    -0.389 OA
ATOM     51  H   UNL     1       6.602   6.265  22.521  0.00  0.00    +0.210 HD
ENDBRANCH  48  50
BRANCH  47  52
ATOM     52  O   UNL     1       3.095   6.411  21.226  0.00  0.00    -0.343 OA
BRANCH  52  53
ATOM     53  C   UNL     1       1.747   6.394  20.769  0.00  0.00    +0.252 C 
ATOM     54  O   UNL     1       1.269   5.034  20.683  0.00  0.00    -0.341 OA
ATOM     55  C   UNL     1       1.851   4.260  19.627  0.00  0.00    +0.184 C 
ATOM     56  C   UNL     1       1.161   2.901  19.548  0.00  0.00    +0.046 C 
ATOM     57  C   UNL     1       1.717   4.994  18.293  0.00  0.00    +0.162 C 
ATOM     58  O   UNL     1       1.214   4.517  17.279  0.00  0.00    -0.295 OA
ATOM     59  C   UNL     1       2.261   6.394  18.316  0.00  0.00    +0.082 C 
ATOM     60  C   UNL     1       1.521   7.108  19.433  0.00  0.00    +0.069 C 
ENDBRANCH  52  53
ENDBRANCH  47  52
ENDBRANCH  42  43
ENDBRANCH  36  42
ENDBRANCH  31  32
ENDBRANCH  18  31
TORSDOF 13
ENDMDL
MODEL 2
REMARK VINA RESULT:      -6.4      3.007      7.919
REMARK  Name = 
REMARK  19 active torsions:
REMARK  status: ('A' for Active; 'I' for Inactive)
REMARK    1  A    between atoms: C_1  and  C_2
REMARK    2  A    between atoms: C_2  and  C_3
REMARK    3  A    between atoms: C_3  and  O_4
REMARK    4  A    between atoms: C_6  and  O_8
REMARK    5  A    between atoms: O_8  and  C_9
REMARK    6  A    between atoms: C_12  and  N_44
REMARK    7  A    between atoms: C_14  and  O_16
REMARK    8  A    between atoms: O_16  and  C_17
REMARK    9  A    between atoms: C_20  and  O_22
REMARK   10  A    between atoms: C_23  and  O_25
REMARK   11  A    between atoms: O_25  and  C_26
REMARK   12  A    between atoms: C_32  and  C_34
REMARK   13  A    between atoms: C_36  and  C_38
REMARK   14  A    between atoms: C_40  and  C_42
REMARK   15  A    between atoms: N_44  and  C_45
REMARK   16  A    between atoms: N_44  and  C_46
REMARK   17  A    between atoms: C_48  and  O_49
REMARK   18  A    between atoms: C_54  and  O_56
REMARK   19  A    between atoms: C_63  and  O_64
REMARK                            x       y       z     vdW  Elec       q    Type
REMARK                         _______ _______ _______ _____ _____    ______ ____
ROOT
ATOM      1  C   UNL     1       2.859   5.233  22.485  0.00  0.00    +0.098 C 
ATOM      2  C   UNL     1       1.836   4.356  23.255  0.00  0.00    +0.177 C 
ATOM      3  C   UNL     1       2.424   3.756  24.519  0.00  0.00    -0.007 A 
ATOM      4  C   UNL     1       3.541   4.326  25.168  0.00  0.00    +0.029 A 
ATOM      5  C   UNL     1       4.028   3.693  26.338  0.00  0.00    +0.134 A 
ATOM      6  C   UNL     1       3.445   2.527  26.861  0.00  0.00    +0.075 A 
ATOM      7  C   UNL     1       4.046   1.755  27.987  0.00  0.00    +0.202 C 
ATOM      8  O   UNL     1       5.221   1.948  28.294  0.00  0.00    -0.286 OA
ATOM      9  C   UNL     1       3.247   0.692  28.652  0.00  0.00    +0.075 A 
ATOM     10  C   UNL     1       2.064   0.255  28.053  0.00  0.00    +0.037 A 
ATOM     11  C   UNL     1       1.305  -0.776  28.631  0.00  0.00    +0.012 A 
ATOM     12  C   UNL     1       1.732  -1.377  29.812  0.00  0.00    +0.004 A 
ATOM     13  C   UNL     1       2.914  -0.957  30.414  0.00  0.00    +0.046 A 
ATOM     14  C   UNL     1       1.586   0.865  26.801  0.00  0.00    +0.195 C 
ATOM     15  O   UNL     1       0.588   0.430  26.238  0.00  0.00    -0.287 OA
ATOM     16  C   UNL     1       3.662   0.077  29.841  0.00  0.00    +0.128 A 
ATOM     17  C   UNL     1       2.300   2.030  26.252  0.00  0.00    +0.037 A 
ATOM     18  C   UNL     1       4.217   5.606  24.672  0.00  0.00    +0.158 C 
ATOM     19  C   UNL     1       1.796   2.636  25.097  0.00  0.00    +0.019 A 
ATOM     20  C   UNL     1       3.517   6.233  23.456  0.00  0.00    +0.074 C 
ENDROOT
BRANCH   1  22
ATOM     21  C   UNL     1       3.052   7.012  20.586  0.00  0.00    +0.007 C 
ATOM     22  C   UNL     1       2.201   5.961  21.282  0.00  0.00    +0.034 C 
ENDBRANCH   1  22
BRANCH   1  23
ATOM     23  O   UNL     1       3.849   4.389  21.874  0.00  0.00    -0.386 OA
ATOM     24  H   UNL     1       4.733   4.754  22.057  0.00  0.00    +0.210 HD
ENDBRANCH   1  23
BRANCH   2  25
ATOM     25  O   UNL     1       1.382   3.317  22.383  0.00  0.00    -0.384 OA
ATOM     26  H   UNL     1       1.218   3.697  21.506  0.00  0.00    +0.210 HD
ENDBRANCH   2  25
BRANCH  16  27
ATOM     27  O   UNL     1       4.792   0.491  30.485  0.00  0.00    -0.506 OA
ATOM     28  H   UNL     1       4.668   1.377  30.861  0.00  0.00    +0.292 HD
ENDBRANCH  16  27
BRANCH   5  29
ATOM     29  O   UNL     1       5.109   4.248  26.968  0.00  0.00    -0.506 OA
ATOM     30  H   UNL     1       5.324   5.059  26.464  0.00  0.00    +0.292 HD
ENDBRANCH   5  29
BRANCH  18  31
ATOM     31  O   UNL     1       5.610   5.311  24.466  0.00  0.00    -0.343 OA
BRANCH  31  32
ATOM     32  C   UNL     1       5.929   3.968  24.065  0.00  0.00    +0.253 C 
ATOM     33  O   UNL     1       6.701   3.251  25.021  0.00  0.00    -0.346 OA
ATOM     34  C   UNL     1       8.095   3.597  25.113  0.00  0.00    +0.149 C 
ATOM     35  C   UNL     1       8.301   4.832  25.970  0.00  0.00    +0.041 C 
ATOM     36  C   UNL     1       8.831   3.665  23.744  0.00  0.00    +0.167 C 
ATOM     37  C   UNL     1       8.034   4.543  22.719  0.00  0.00    +0.092 C 
ATOM     38  C   UNL     1       6.616   3.929  22.685  0.00  0.00    +0.083 C 
BRANCH  37  39
ATOM     39  N   UNL     1       7.964   6.003  22.996  0.00  0.00    -0.303 NA
ATOM     40  C   UNL     1       9.211   6.673  23.354  0.00  0.00    +0.105 C 
ATOM     41  C   UNL     1       7.283   6.786  21.961  0.00  0.00    +0.105 C 
ENDBRANCH  37  39
BRANCH  36  42
ATOM     42  O   UNL     1       8.990   2.271  23.335  0.00  0.00    -0.344 OA
BRANCH  42  43
ATOM     43  C   UNL     1       9.960   1.455  23.988  0.00  0.00    +0.254 C 
ATOM     44  O   UNL     1      10.607   0.567  23.054  0.00  0.00    -0.346 OA
ATOM     45  C   UNL     1       9.811  -0.492  22.481  0.00  0.00    +0.150 C 
ATOM     46  C   UNL     1       9.058   0.026  21.259  0.00  0.00    +0.041 C 
ATOM     47  C   UNL     1       9.006  -1.319  23.522  0.00  0.00    +0.178 C 
ATOM     48  C   UNL     1       8.414  -0.410  24.625  0.00  0.00    +0.151 C 
ATOM     49  C   UNL     1       9.434   0.604  25.135  0.00  0.00    +0.095 C 
BRANCH  48  50
ATOM     50  O   UNL     1       7.239   0.272  24.182  0.00  0.00    -0.389 OA
ATOM     51  H   UNL     1       6.752   0.560  24.976  0.00  0.00    +0.210 HD
ENDBRANCH  48  50
BRANCH  47  52
ATOM     52  O   UNL     1       7.947  -2.161  23.028  0.00  0.00    -0.343 OA
BRANCH  52  53
ATOM     53  C   UNL     1       7.631  -3.370  23.709  0.00  0.00    +0.252 C 
ATOM     54  O   UNL     1       7.540  -4.462  22.768  0.00  0.00    -0.341 OA
ATOM     55  C   UNL     1       6.399  -4.413  21.903  0.00  0.00    +0.184 C 
ATOM     56  C   UNL     1       6.335  -5.687  21.066  0.00  0.00    +0.046 C 
ATOM     57  C   UNL     1       5.117  -4.260  22.721  0.00  0.00    +0.162 C 
ATOM     58  O   UNL     1       4.141  -5.002  22.640  0.00  0.00    -0.295 OA
ATOM     59  C   UNL     1       5.140  -3.095  23.670  0.00  0.00    +0.082 C 
ATOM     60  C   UNL     1       6.356  -3.306  24.555  0.00  0.00    +0.069 C 
ENDBRANCH  52  53
ENDBRANCH  47  52
ENDBRANCH  42  43
ENDBRANCH  36  42
ENDBRANCH  31  32
ENDBRANCH  18  31
TORSDOF 13
ENDMDL
MODEL 3
REMARK VINA RESULT:      -5.7      2.980      6.365
REMARK  Name = 
REMARK  19 active torsions:
REMARK  status: ('A' for Active; 'I' for Inactive)
REMARK    1  A    between atoms: C_1  and  C_2
REMARK    2  A    between atoms: C_2  and  C_3
REMARK    3  A    between atoms: C_3  and  O_4
REMARK    4  A    between atoms: C_6  and  O_8
REMARK    5  A    between atoms: O_8  and  C_9
REMARK    6  A    between atoms: C_12  and  N_44
REMARK    7  A    between atoms: C_14  and  O_16
REMARK    8  A    between atoms: O_16  and  C_17
REMARK    9  A    between atoms: C_20  and  O_22
REMARK   10  A    between atoms: C_23  and  O_25
REMARK   11  A    between atoms: O_25  and  C_26
REMARK   12  A    between atoms: C_32  and  C_34
REMARK   13  A    between atoms: C_36  and  C_38
REMARK   14  A    between atoms: C_40  and  C_42
REMARK   15  A    between atoms: N_44  and  C_45
REMARK   16  A    between atoms: N_44  and  C_46
REMARK   17  A    between atoms: C_48  and  O_49
REMARK   18  A    between atoms: C_54  and  O_56
REMARK   19  A    between atoms: C_63  and  O_64
REMARK                            x       y       z     vdW  Elec       q    Type
REMARK                         _______ _______ _______ _____ _____    ______ ____
ROOT
ATOM      1  C   UNL     1      10.266   2.121  23.558  0.00  0.00    +0.098 C 
ATOM      2  C   UNL     1      10.535   0.684  24.078  0.00  0.00    +0.177 C 
ATOM      3  C   UNL     1       9.263  -0.135  24.198  0.00  0.00    -0.007 A 
ATOM      4  C   UNL     1       8.101   0.175  23.458  0.00  0.00    +0.029 A 
ATOM      5  C   UNL     1       6.957  -0.641  23.641  0.00  0.00    +0.134 A 
ATOM      6  C   UNL     1       6.941  -1.729  24.528  0.00  0.00    +0.075 A 
ATOM      7  C   UNL     1       5.701  -2.488  24.858  0.00  0.00    +0.202 C 
ATOM      8  O   UNL     1       4.604  -1.999  24.595  0.00  0.00    -0.286 OA
ATOM      9  C   UNL     1       5.807  -3.775  25.594  0.00  0.00    +0.075 A 
ATOM     10  C   UNL     1       7.021  -4.121  26.190  0.00  0.00    +0.037 A 
ATOM     11  C   UNL     1       7.147  -5.309  26.928  0.00  0.00    +0.012 A 
ATOM     12  C   UNL     1       6.052  -6.156  27.075  0.00  0.00    +0.004 A 
ATOM     13  C   UNL     1       4.833  -5.819  26.493  0.00  0.00    +0.046 A 
ATOM     14  C   UNL     1       8.198  -3.245  26.058  0.00  0.00    +0.195 C 
ATOM     15  O   UNL     1       9.241  -3.513  26.644  0.00  0.00    -0.287 OA
ATOM     16  C   UNL     1       4.715  -4.640  25.750  0.00  0.00    +0.128 A 
ATOM     17  C   UNL     1       8.119  -2.062  25.184  0.00  0.00    +0.037 A 
ATOM     18  C   UNL     1       8.046   1.331  22.457  0.00  0.00    +0.158 C 
ATOM     19  C   UNL     1       9.264  -1.277  25.021  0.00  0.00    +0.019 A 
ATOM     20  C   UNL     1       9.390   2.058  22.292  0.00  0.00    +0.074 C 
ENDROOT
BRANCH   1  22
ATOM     21  C   UNL     1      11.517   4.408  23.426  0.00  0.00    +0.007 C 
ATOM     22  C   UNL     1      11.586   2.894  23.295  0.00  0.00    +0.034 C 
ENDBRANCH   1  22
BRANCH   1  23
ATOM     23  O   UNL     1       9.619   2.889  24.588  0.00  0.00    -0.386 OA
ATOM     24  H   UNL     1       9.270   3.710  24.198  0.00  0.00    +0.210 HD
ENDBRANCH   1  23
BRANCH   2  25
ATOM     25  O   UNL     1      11.183   0.775  25.350  0.00  0.00    -0.384 OA
ATOM     26  H   UNL     1      10.519   0.654  26.046  0.00  0.00    +0.210 HD
ENDBRANCH   2  25
BRANCH  16  27
ATOM     27  O   UNL     1       3.515  -4.366  25.159  0.00  0.00    -0.506 OA
ATOM     28  H   UNL     1       2.842  -4.162  25.827  0.00  0.00    +0.292 HD
ENDBRANCH  16  27
BRANCH   5  29
ATOM     29  O   UNL     1       5.832  -0.340  22.921  0.00  0.00    -0.506 OA
ATOM     30  H   UNL     1       5.997   0.537  22.519  0.00  0.00    +0.292 HD
ENDBRANCH   5  29
BRANCH  18  31
ATOM     31  O   UNL     1       6.953   2.185  22.837  0.00  0.00    -0.343 OA
BRANCH  31  32
ATOM     32  C   UNL     1       6.436   2.011  24.167  0.00  0.00    +0.253 C 
ATOM     33  O   UNL     1       5.035   1.764  24.212  0.00  0.00    -0.346 OA
ATOM     34  C   UNL     1       4.175   2.894  23.981  0.00  0.00    +0.149 C 
ATOM     35  C   UNL     1       4.013   3.171  22.498  0.00  0.00    +0.041 C 
ATOM     36  C   UNL     1       4.541   4.159  24.810  0.00  0.00    +0.167 C 
ATOM     37  C   UNL     1       6.066   4.496  24.678  0.00  0.00    +0.092 C 
ATOM     38  C   UNL     1       6.799   3.197  25.083  0.00  0.00    +0.083 C 
BRANCH  37  39
ATOM     39  N   UNL     1       6.538   4.968  23.348  0.00  0.00    -0.303 NA
ATOM     40  C   UNL     1       5.734   5.988  22.680  0.00  0.00    +0.105 C 
ATOM     41  C   UNL     1       7.947   5.372  23.312  0.00  0.00    +0.105 C 
ENDBRANCH  37  39
BRANCH  36  42
ATOM     42  O   UNL     1       4.117   3.849  26.173  0.00  0.00    -0.344 OA
BRANCH  42  43
ATOM     43  C   UNL     1       2.739   3.971  26.523  0.00  0.00    +0.254 C 
ATOM     44  O   UNL     1       2.579   4.171  27.942  0.00  0.00    -0.346 OA
ATOM     45  C   UNL     1       2.908   3.067  28.812  0.00  0.00    +0.150 C 
ATOM     46  C   UNL     1       4.403   3.071  29.117  0.00  0.00    +0.041 C 
ATOM     47  C   UNL     1       2.265   1.715  28.396  0.00  0.00    +0.178 C 
ATOM     48  C   UNL     1       2.291   1.530  26.860  0.00  0.00    +0.151 C 
ATOM     49  C   UNL     1       1.857   2.796  26.127  0.00  0.00    +0.095 C 
BRANCH  48  50
ATOM     50  O   UNL     1       3.578   1.122  26.391  0.00  0.00    -0.389 OA
ATOM     51  H   UNL     1       3.473   0.247  25.974  0.00  0.00    +0.210 HD
ENDBRANCH  48  50
BRANCH  47  52
ATOM     52  O   UNL     1       2.793   0.515  28.994  0.00  0.00    -0.343 OA
BRANCH  52  53
ATOM     53  C   UNL     1       1.904  -0.432  29.577  0.00  0.00    +0.252 C 
ATOM     54  O   UNL     1       2.650  -1.540  30.127  0.00  0.00    -0.341 OA
ATOM     55  C   UNL     1       3.251  -2.400  29.152  0.00  0.00    +0.184 C 
ATOM     56  C   UNL     1       3.877  -3.605  29.848  0.00  0.00    +0.046 C 
ATOM     57  C   UNL     1       2.206  -2.866  28.138  0.00  0.00    +0.162 C 
ATOM     58  O   UNL     1       1.978  -4.040  27.857  0.00  0.00    -0.295 OA
ATOM     59  C   UNL     1       1.448  -1.742  27.490  0.00  0.00    +0.082 C 
ATOM     60  C   UNL     1       0.823  -0.955  28.627  0.00  0.00    +0.069 C 
ENDBRANCH  52  53
ENDBRANCH  47  52
ENDBRANCH  42  43
ENDBRANCH  36  42
ENDBRANCH  31  32
ENDBRANCH  18  31
TORSDOF 13
ENDMDL
MODEL 4
REMARK VINA RESULT:      -5.4      3.012      7.708
REMARK  Name = 
REMARK  19 active torsions:
REMARK  status: ('A' for Active; 'I' for Inactive)
REMARK    1  A    between atoms: C_1  and  C_2
REMARK    2  A    between atoms: C_2  and  C_3
REMARK    3  A    between atoms: C_3  and  O_4
REMARK    4  A    between atoms: C_6  and  O_8
REMARK    5  A    between atoms: O_8  and  C_9
REMARK    6  A    between atoms: C_12  and  N_44
REMARK    7  A    between atoms: C_14  and  O_16
REMARK    8  A    between atoms: O_16  and  C_17
REMARK    9  A    between atoms: C_20  and  O_22
REMARK   10  A    between atoms: C_23  and  O_25
REMARK   11  A    between atoms: O_25  and  C_26
REMARK   12  A    between atoms: C_32  and  C_34
REMARK   13  A    between atoms: C_36  and  C_38
REMARK   14  A    between atoms: C_40  and  C_42
REMARK   15  A    between atoms: N_44  and  C_45
REMARK   16  A    between atoms: N_44  and  C_46
REMARK   17  A    between atoms: C_48  and  O_49
REMARK   18  A    between atoms: C_54  and  O_56
REMARK   19  A    between atoms: C_63  and  O_64
REMARK                            x       y       z     vdW  Elec       q    Type
REMARK                         _______ _______ _______ _____ _____    ______ ____
ROOT
ATOM      1  C   UNL     1       9.912   3.310  23.753  0.00  0.00    +0.098 C 
ATOM      2  C   UNL     1      10.421   1.877  23.442  0.00  0.00    +0.177 C 
ATOM      3  C   UNL     1       9.289   0.874  23.326  0.00  0.00    -0.007 A 
ATOM      4  C   UNL     1       7.968   1.268  23.020  0.00  0.00    +0.029 A 
ATOM      5  C   UNL     1       6.973   0.263  22.941  0.00  0.00    +0.134 A 
ATOM      6  C   UNL     1       7.255  -1.095  23.160  0.00  0.00    +0.075 A 
ATOM      7  C   UNL     1       6.195  -2.140  23.248  0.00  0.00    +0.202 C 
ATOM      8  O   UNL     1       5.027  -1.803  23.430  0.00  0.00    -0.286 OA
ATOM      9  C   UNL     1       6.580  -3.576  23.221  0.00  0.00    +0.075 A 
ATOM     10  C   UNL     1       7.923  -3.923  23.377  0.00  0.00    +0.037 A 
ATOM     11  C   UNL     1       8.319  -5.270  23.398  0.00  0.00    +0.012 A 
ATOM     12  C   UNL     1       7.367  -6.278  23.264  0.00  0.00    +0.004 A 
ATOM     13  C   UNL     1       6.024  -5.945  23.117  0.00  0.00    +0.046 A 
ATOM     14  C   UNL     1       8.955  -2.883  23.526  0.00  0.00    +0.195 C 
ATOM     15  O   UNL     1      10.123  -3.192  23.738  0.00  0.00    -0.287 OA
ATOM     16  C   UNL     1       5.635  -4.602  23.086  0.00  0.00    +0.128 A 
ATOM     17  C   UNL     1       8.575  -1.468  23.379  0.00  0.00    +0.037 A 
ATOM     18  C   UNL     1       7.585   2.725  22.748  0.00  0.00    +0.158 C 
ATOM     19  C   UNL     1       9.578  -0.497  23.461  0.00  0.00    +0.019 A 
ATOM     20  C   UNL     1       8.786   3.684  22.769  0.00  0.00    +0.074 C 
ENDROOT
BRANCH   1  22
ATOM     21  C   UNL     1      10.649   5.813  23.735  0.00  0.00    +0.007 C 
ATOM     22  C   UNL     1      11.063   4.350  23.716  0.00  0.00    +0.034 C 
ENDBRANCH   1  22
BRANCH   1  23
ATOM     23  O   UNL     1       9.443   3.367  25.111  0.00  0.00    -0.386 OA
ATOM     24  H   UNL     1       8.825   4.113  25.202  0.00  0.00    +0.210 HD
ENDBRANCH   1  23
BRANCH   2  25
ATOM     25  O   UNL     1      11.324   1.482  24.478  0.00  0.00    -0.384 OA
ATOM     26  H   UNL     1      10.915   1.671  25.336  0.00  0.00    +0.210 HD
ENDBRANCH   2  25
BRANCH  16  27
ATOM     27  O   UNL     1       4.314  -4.315  22.895  0.00  0.00    -0.506 OA
ATOM     28  H   UNL     1       3.943  -3.873  23.675  0.00  0.00    +0.292 HD
ENDBRANCH  16  27
BRANCH   5  29
ATOM     29  O   UNL     1       5.693   0.646  22.643  0.00  0.00    -0.506 OA
ATOM     30  H   UNL     1       5.233   0.734  23.502  0.00  0.00    +0.292 HD
ENDBRANCH   5  29
BRANCH  18  31
ATOM     31  O   UNL     1       6.530   3.076  23.661  0.00  0.00    -0.343 OA
BRANCH  31  32
ATOM     32  C   UNL     1       6.302   2.172  24.756  0.00  0.00    +0.253 C 
ATOM     33  O   UNL     1       4.988   1.627  24.787  0.00  0.00    -0.346 OA
ATOM     34  C   UNL     1       3.938   2.503  25.238  0.00  0.00    +0.149 C 
ATOM     35  C   UNL     1       3.463   3.414  24.122  0.00  0.00    +0.041 C 
ATOM     36  C   UNL     1       4.257   3.258  26.560  0.00  0.00    +0.167 C 
ATOM     37  C   UNL     1       5.661   3.950  26.489  0.00  0.00    +0.092 C 
ATOM     38  C   UNL     1       6.645   2.818  26.113  0.00  0.00    +0.083 C 
BRANCH  37  39
ATOM     39  N   UNL     1       5.801   5.095  25.551  0.00  0.00    -0.303 NA
ATOM     40  C   UNL     1       4.782   6.138  25.619  0.00  0.00    +0.105 C 
ATOM     41  C   UNL     1       7.126   5.722  25.549  0.00  0.00    +0.105 C 
ENDBRANCH  37  39
BRANCH  36  42
ATOM     42  O   UNL     1       4.146   2.244  27.606  0.00  0.00    -0.344 OA
BRANCH  42  43
ATOM     43  C   UNL     1       2.855   1.773  27.992  0.00  0.00    +0.254 C 
ATOM     44  O   UNL     1       2.866   1.276  29.346  0.00  0.00    -0.346 OA
ATOM     45  C   UNL     1       3.606   0.063  29.605  0.00  0.00    +0.150 C 
ATOM     46  C   UNL     1       5.074   0.392  29.857  0.00  0.00    +0.041 C 
ATOM     47  C   UNL     1       3.290  -1.098  28.620  0.00  0.00    +0.178 C 
ATOM     48  C   UNL     1       3.129  -0.578  27.172  0.00  0.00    +0.151 C 
ATOM     49  C   UNL     1       2.268   0.680  27.110  0.00  0.00    +0.095 C 
BRANCH  48  50
ATOM     50  O   UNL     1       4.391  -0.326  26.551  0.00  0.00    -0.389 OA
ATOM     51  H   UNL     1       5.054  -0.883  26.999  0.00  0.00    +0.210 HD
ENDBRANCH  48  50
BRANCH  47  52
ATOM     52  O   UNL     1       4.202  -2.212  28.591  0.00  0.00    -0.343 OA
BRANCH  52  53
ATOM     53  C   UNL     1       3.822  -3.418  27.939  0.00  0.00    +0.252 C 
ATOM     54  O   UNL     1       3.964  -4.537  28.840  0.00  0.00    -0.341 OA
ATOM     55  C   UNL     1       5.318  -4.891  29.146  0.00  0.00    +0.184 C 
ATOM     56  C   UNL     1       5.338  -6.169  29.980  0.00  0.00    +0.046 C 
ATOM     57  C   UNL     1       6.119  -5.093  27.860  0.00  0.00    +0.162 C 
ATOM     58  O   UNL     1       6.764  -6.103  27.588  0.00  0.00    -0.295 OA
ATOM     59  C   UNL     1       6.054  -3.925  26.918  0.00  0.00    +0.082 C 
ATOM     60  C   UNL     1       4.578  -3.701  26.637  0.00  0.00    +0.069 C 
ENDBRANCH  52  53
ENDBRANCH  47  52
ENDBRANCH  42  43
ENDBRANCH  36  42
ENDBRANCH  31  32
ENDBRANCH  18  31
TORSDOF 13
ENDMDL
MODEL 5
REMARK VINA RESULT:      -5.3      2.891      7.456
REMARK  Name = 
REMARK  19 active torsions:
REMARK  status: ('A' for Active; 'I' for Inactive)
REMARK    1  A    between atoms: C_1  and  C_2
REMARK    2  A    between atoms: C_2  and  C_3
REMARK    3  A    between atoms: C_3  and  O_4
REMARK    4  A    between atoms: C_6  and  O_8
REMARK    5  A    between atoms: O_8  and  C_9
REMARK    6  A    between atoms: C_12  and  N_44
REMARK    7  A    between atoms: C_14  and  O_16
REMARK    8  A    between atoms: O_16  and  C_17
REMARK    9  A    between atoms: C_20  and  O_22
REMARK   10  A    between atoms: C_23  and  O_25
REMARK   11  A    between atoms: O_25  and  C_26
REMARK   12  A    between atoms: C_32  and  C_34
REMARK   13  A    between atoms: C_36  and  C_38
REMARK   14  A    between atoms: C_40  and  C_42
REMARK   15  A    between atoms: N_44  and  C_45
REMARK   16  A    between atoms: N_44  and  C_46
REMARK   17  A    between atoms: C_48  and  O_49
REMARK   18  A    between atoms: C_54  and  O_56
REMARK   19  A    between atoms: C_63  and  O_64
REMARK                            x       y       z     vdW  Elec       q    Type
REMARK                         _______ _______ _______ _____ _____    ______ ____
ROOT
ATOM      1  C   UNL     1       7.098  -4.912  22.878  0.00  0.00    +0.098 C 
ATOM      2  C   UNL     1       7.611  -3.611  22.205  0.00  0.00    +0.177 C 
ATOM      3  C   UNL     1       7.669  -2.443  23.172  0.00  0.00    -0.007 A 
ATOM      4  C   UNL     1       7.754  -2.632  24.569  0.00  0.00    +0.029 A 
ATOM      5  C   UNL     1       7.794  -1.482  25.396  0.00  0.00    +0.134 A 
ATOM      6  C   UNL     1       7.747  -0.179  24.877  0.00  0.00    +0.075 A 
ATOM      7  C   UNL     1       7.617   1.033  25.737  0.00  0.00    +0.202 C 
ATOM      8  O   UNL     1       7.248   0.910  26.903  0.00  0.00    -0.286 OA
ATOM      9  C   UNL     1       7.835   2.377  25.142  0.00  0.00    +0.075 A 
ATOM     10  C   UNL     1       7.895   2.506  23.753  0.00  0.00    +0.037 A 
ATOM     11  C   UNL     1       8.058   3.766  23.154  0.00  0.00    +0.012 A 
ATOM     12  C   UNL     1       8.158   4.906  23.947  0.00  0.00    +0.004 A 
ATOM     13  C   UNL     1       8.090   4.792  25.333  0.00  0.00    +0.046 A 
ATOM     14  C   UNL     1       7.788   1.322  22.885  0.00  0.00    +0.195 C 
ATOM     15  O   UNL     1       7.767   1.445  21.665  0.00  0.00    -0.287 OA
ATOM     16  C   UNL     1       7.938   3.535  25.926  0.00  0.00    +0.128 A 
ATOM     17  C   UNL     1       7.745  -0.017  23.497  0.00  0.00    +0.037 A 
ATOM     18  C   UNL     1       7.830  -4.020  25.209  0.00  0.00    +0.158 C 
ATOM     19  C   UNL     1       7.707  -1.134  22.656  0.00  0.00    +0.019 A 
ATOM     20  C   UNL     1       7.880  -5.162  24.182  0.00  0.00    +0.074 C 
ENDROOT
BRANCH   1  22
ATOM     21  C   UNL     1       6.110  -6.229  20.853  0.00  0.00    +0.007 C 
ATOM     22  C   UNL     1       7.189  -6.130  21.920  0.00  0.00    +0.034 C 
ENDBRANCH   1  22
BRANCH   1  23
ATOM     23  O   UNL     1       5.689  -4.790  23.142  0.00  0.00    -0.386 OA
ATOM     24  H   UNL     1       5.543  -4.029  23.732  0.00  0.00    +0.210 HD
ENDBRANCH   1  23
BRANCH   2  25
ATOM     25  O   UNL     1       6.750  -3.298  21.107  0.00  0.00    -0.384 OA
ATOM     26  H   UNL     1       7.292  -2.993  20.363  0.00  0.00    +0.210 HD
ENDBRANCH   2  25
BRANCH  16  27
ATOM     27  O   UNL     1       7.920   3.460  27.289  0.00  0.00    -0.506 OA
ATOM     28  H   UNL     1       8.348   4.238  27.681  0.00  0.00    +0.292 HD
ENDBRANCH  16  27
BRANCH   5  29
ATOM     29  O   UNL     1       7.878  -1.667  26.750  0.00  0.00    -0.506 OA
ATOM     30  H   UNL     1       8.826  -1.573  26.975  0.00  0.00    +0.292 HD
ENDBRANCH   5  29
BRANCH  18  31
ATOM     31  O   UNL     1       6.754  -4.121  26.158  0.00  0.00    -0.343 OA
BRANCH  31  32
ATOM     32  C   UNL     1       5.746  -3.098  26.097  0.00  0.00    +0.253 C 
ATOM     33  O   UNL     1       5.424  -2.533  27.362  0.00  0.00    -0.346 OA
ATOM     34  C   UNL     1       4.612  -3.337  28.238  0.00  0.00    +0.149 C 
ATOM     35  C   UNL     1       5.450  -4.361  28.982  0.00  0.00    +0.041 C 
ATOM     36  C   UNL     1       3.348  -3.944  27.564  0.00  0.00    +0.167 C 
ATOM     37  C   UNL     1       3.717  -4.660  26.219  0.00  0.00    +0.092 C 
ATOM     38  C   UNL     1       4.468  -3.592  25.391  0.00  0.00    +0.083 C 
BRANCH  37  39
ATOM     39  N   UNL     1       4.524  -5.905  26.320  0.00  0.00    -0.303 NA
ATOM     40  C   UNL     1       4.261  -6.778  27.460  0.00  0.00    +0.105 C 
ATOM     41  C   UNL     1       4.549  -6.713  25.097  0.00  0.00    +0.105 C 
ENDBRANCH  37  39
BRANCH  36  42
ATOM     42  O   UNL     1       2.431  -2.817  27.406  0.00  0.00    -0.344 OA
BRANCH  42  43
ATOM     43  C   UNL     1       2.074  -2.038  28.546  0.00  0.00    +0.254 C 
ATOM     44  O   UNL     1       0.791  -1.406  28.364  0.00  0.00    -0.346 OA
ATOM     45  C   UNL     1       0.698  -0.361  27.372  0.00  0.00    +0.150 C 
ATOM     46  C   UNL     1       0.443  -0.969  25.996  0.00  0.00    +0.041 C 
ATOM     47  C   UNL     1       1.807   0.722  27.483  0.00  0.00    +0.178 C 
ATOM     48  C   UNL     1       3.178   0.091  27.822  0.00  0.00    +0.151 C 
ATOM     49  C   UNL     1       3.067  -0.950  28.932  0.00  0.00    +0.095 C 
BRANCH  48  50
ATOM     50  O   UNL     1       3.794  -0.497  26.674  0.00  0.00    -0.389 OA
ATOM     51  H   UNL     1       4.257  -1.302  26.971  0.00  0.00    +0.210 HD
ENDBRANCH  48  50
BRANCH  47  52
ATOM     52  O   UNL     1       1.992   1.603  26.358  0.00  0.00    -0.343 OA
BRANCH  52  53
ATOM     53  C   UNL     1       2.580   2.884  26.554  0.00  0.00    +0.252 C 
ATOM     54  O   UNL     1       1.857   3.883  25.804  0.00  0.00    -0.341 OA
ATOM     55  C   UNL     1       2.021   3.801  24.383  0.00  0.00    +0.184 C 
ATOM     56  C   UNL     1       1.336   4.990  23.718  0.00  0.00    +0.046 C 
ATOM     57  C   UNL     1       3.506   3.781  24.019  0.00  0.00    +0.162 C 
ATOM     58  O   UNL     1       4.043   4.553  23.229  0.00  0.00    -0.295 OA
ATOM     59  C   UNL     1       4.289   2.713  24.728  0.00  0.00    +0.082 C 
ATOM     60  C   UNL     1       4.071   2.956  26.212  0.00  0.00    +0.069 C 
ENDBRANCH  52  53
ENDBRANCH  47  52
ENDBRANCH  42  43
ENDBRANCH  36  42
ENDBRANCH  31  32
ENDBRANCH  18  31
TORSDOF 13
ENDMDL
MODEL 6
REMARK VINA RESULT:      -5.2      3.683      7.980
REMARK  Name = 
REMARK  19 active torsions:
REMARK  status: ('A' for Active; 'I' for Inactive)
REMARK    1  A    between atoms: C_1  and  C_2
REMARK    2  A    between atoms: C_2  and  C_3
REMARK    3  A    between atoms: C_3  and  O_4
REMARK    4  A    between atoms: C_6  and  O_8
REMARK    5  A    between atoms: O_8  and  C_9
REMARK    6  A    between atoms: C_12  and  N_44
REMARK    7  A    between atoms: C_14  and  O_16
REMARK    8  A    between atoms: O_16  and  C_17
REMARK    9  A    between atoms: C_20  and  O_22
REMARK   10  A    between atoms: C_23  and  O_25
REMARK   11  A    between atoms: O_25  and  C_26
REMARK   12  A    between atoms: C_32  and  C_34
REMARK   13  A    between atoms: C_36  and  C_38
REMARK   14  A    between atoms: C_40  and  C_42
REMARK   15  A    between atoms: N_44  and  C_45
REMARK   16  A    between atoms: N_44  and  C_46
REMARK   17  A    between atoms: C_48  and  O_49
REMARK   18  A    between atoms: C_54  and  O_56
REMARK   19  A    between atoms: C_63  and  O_64
REMARK                            x       y       z     vdW  Elec       q    Type
REMARK                         _______ _______ _______ _____ _____    ______ ____
ROOT
ATOM      1  C   UNL     1       7.095  -4.794  22.877  0.00  0.00    +0.098 C 
ATOM      2  C   UNL     1       7.502  -3.423  22.274  0.00  0.00    +0.177 C 
ATOM      3  C   UNL     1       7.511  -2.315  23.310  0.00  0.00    -0.007 A 
ATOM      4  C   UNL     1       7.650  -2.582  24.690  0.00  0.00    +0.029 A 
ATOM      5  C   UNL     1       7.639  -1.484  25.586  0.00  0.00    +0.134 A 
ATOM      6  C   UNL     1       7.490  -0.158  25.151  0.00  0.00    +0.075 A 
ATOM      7  C   UNL     1       7.306   0.988  26.087  0.00  0.00    +0.202 C 
ATOM      8  O   UNL     1       6.981   0.770  27.252  0.00  0.00    -0.286 OA
ATOM      9  C   UNL     1       7.416   2.378  25.572  0.00  0.00    +0.075 A 
ATOM     10  C   UNL     1       7.427   2.594  24.193  0.00  0.00    +0.037 A 
ATOM     11  C   UNL     1       7.488   3.895  23.670  0.00  0.00    +0.012 A 
ATOM     12  C   UNL     1       7.536   4.989  24.530  0.00  0.00    +0.004 A 
ATOM     13  C   UNL     1       7.517   4.788  25.907  0.00  0.00    +0.046 A 
ATOM     14  C   UNL     1       7.373   1.460  23.255  0.00  0.00    +0.195 C 
ATOM     15  O   UNL     1       7.306   1.654  22.046  0.00  0.00    -0.287 OA
ATOM     16  C   UNL     1       7.467   3.490  26.424  0.00  0.00    +0.128 A 
ATOM     17  C   UNL     1       7.436   0.086  23.784  0.00  0.00    +0.037 A 
ATOM     18  C   UNL     1       7.837  -3.997  25.240  0.00  0.00    +0.158 C 
ATOM     19  C   UNL     1       7.447  -0.977  22.876  0.00  0.00    +0.019 A 
ATOM     20  C   UNL     1       7.931  -5.070  24.143  0.00  0.00    +0.074 C 
ENDROOT
BRANCH   1  22
ATOM     21  C   UNL     1       6.072  -6.137  20.887  0.00  0.00    +0.007 C 
ATOM     22  C   UNL     1       7.239  -5.943  21.843  0.00  0.00    +0.034 C 
ENDBRANCH   1  22
BRANCH   1  23
ATOM     23  O   UNL     1       5.691  -4.784  23.185  0.00  0.00    -0.386 OA
ATOM     24  H   UNL     1       5.277  -4.019  22.749  0.00  0.00    +0.210 HD
ENDBRANCH   1  23
BRANCH   2  25
ATOM     25  O   UNL     1       6.589  -3.104  21.220  0.00  0.00    -0.384 OA
ATOM     26  H   UNL     1       6.159  -2.259  21.426  0.00  0.00    +0.210 HD
ENDBRANCH   2  25
BRANCH  16  27
ATOM     27  O   UNL     1       7.494   3.332  27.779  0.00  0.00    -0.506 OA
ATOM     28  H   UNL     1       6.684   2.898  28.091  0.00  0.00    +0.292 HD
ENDBRANCH  16  27
BRANCH   5  29
ATOM     29  O   UNL     1       7.775  -1.745  26.923  0.00  0.00    -0.506 OA
ATOM     30  H   UNL     1       8.269  -0.986  27.294  0.00  0.00    +0.292 HD
ENDBRANCH   5  29
BRANCH  18  31
ATOM     31  O   UNL     1       6.798  -4.229  26.208  0.00  0.00    -0.343 OA
BRANCH  31  32
ATOM     32  C   UNL     1       5.750  -3.247  26.271  0.00  0.00    +0.253 C 
ATOM     33  O   UNL     1       5.413  -2.852  27.596  0.00  0.00    -0.346 OA
ATOM     34  C   UNL     1       4.639  -3.787  28.370  0.00  0.00    +0.149 C 
ATOM     35  C   UNL     1       5.521  -4.858  28.984  0.00  0.00    +0.041 C 
ATOM     36  C   UNL     1       3.397  -4.359  27.629  0.00  0.00    +0.167 C 
ATOM     37  C   UNL     1       3.785  -4.894  26.208  0.00  0.00    +0.092 C 
ATOM     38  C   UNL     1       4.488  -3.705  25.513  0.00  0.00    +0.083 C 
BRANCH  37  39
ATOM     39  N   UNL     1       4.642  -6.108  26.157  0.00  0.00    -0.303 NA
ATOM     40  C   UNL     1       4.509  -7.063  27.253  0.00  0.00    +0.105 C 
ATOM     41  C   UNL     1       4.593  -6.834  24.884  0.00  0.00    +0.105 C 
ENDBRANCH  37  39
BRANCH  36  42
ATOM     42  O   UNL     1       2.434  -3.260  27.608  0.00  0.00    -0.344 OA
BRANCH  42  43
ATOM     43  C   UNL     1       1.940  -2.738  28.840  0.00  0.00    +0.254 C 
ATOM     44  O   UNL     1       0.636  -2.147  28.669  0.00  0.00    -0.346 OA
ATOM     45  C   UNL     1       0.551  -0.933  27.891  0.00  0.00    +0.150 C 
ATOM     46  C   UNL     1       0.444  -1.273  26.407  0.00  0.00    +0.041 C 
ATOM     47  C   UNL     1       1.575   0.161  28.304  0.00  0.00    +0.178 C 
ATOM     48  C   UNL     1       2.954  -0.457  28.635  0.00  0.00    +0.151 C 
ATOM     49  C   UNL     1       2.826  -1.699  29.513  0.00  0.00    +0.095 C 
BRANCH  48  50
ATOM     50  O   UNL     1       3.694  -0.777  27.456  0.00  0.00    -0.389 OA
ATOM     51  H   UNL     1       4.147   0.036  27.165  0.00  0.00    +0.210 HD
ENDBRANCH  48  50
BRANCH  47  52
ATOM     52  O   UNL     1       1.788   1.252  27.388  0.00  0.00    -0.343 OA
BRANCH  52  53
ATOM     53  C   UNL     1       1.541   2.588  27.813  0.00  0.00    +0.252 C 
ATOM     54  O   UNL     1       1.988   3.520  26.805  0.00  0.00    -0.341 OA
ATOM     55  C   UNL     1       3.411   3.613  26.665  0.00  0.00    +0.184 C 
ATOM     56  C   UNL     1       3.758   4.730  25.685  0.00  0.00    +0.046 C 
ATOM     57  C   UNL     1       4.063   3.885  28.020  0.00  0.00    +0.162 C 
ATOM     58  O   UNL     1       4.832   4.814  28.253  0.00  0.00    -0.295 OA
ATOM     59  C   UNL     1       3.677   2.899  29.086  0.00  0.00    +0.082 C 
ATOM     60  C   UNL     1       2.162   2.948  29.166  0.00  0.00    +0.069 C 
ENDBRANCH  52  53
ENDBRANCH  47  52
ENDBRANCH  42  43
ENDBRANCH  36  42
ENDBRANCH  31  32
ENDBRANCH  18  31
TORSDOF 13
ENDMDL
MODEL 7
REMARK VINA RESULT:      -4.7      2.732      6.985
REMARK  Name = 
REMARK  19 active torsions:
REMARK  status: ('A' for Active; 'I' for Inactive)
REMARK    1  A    between atoms: C_1  and  C_2
REMARK    2  A    between atoms: C_2  and  C_3
REMARK    3  A    between atoms: C_3  and  O_4
REMARK    4  A    between atoms: C_6  and  O_8
REMARK    5  A    between atoms: O_8  and  C_9
REMARK    6  A    between atoms: C_12  and  N_44
REMARK    7  A    between atoms: C_14  and  O_16
REMARK    8  A    between atoms: O_16  and  C_17
REMARK    9  A    between atoms: C_20  and  O_22
REMARK   10  A    between atoms: C_23  and  O_25
REMARK   11  A    between atoms: O_25  and  C_26
REMARK   12  A    between atoms: C_32  and  C_34
REMARK   13  A    between atoms: C_36  and  C_38
REMARK   14  A    between atoms: C_40  and  C_42
REMARK   15  A    between atoms: N_44  and  C_45
REMARK   16  A    between atoms: N_44  and  C_46
REMARK   17  A    between atoms: C_48  and  O_49
REMARK   18  A    between atoms: C_54  and  O_56
REMARK   19  A    between atoms: C_63  and  O_64
REMARK                            x       y       z     vdW  Elec       q    Type
REMARK                         _______ _______ _______ _____ _____    ______ ____
ROOT
ATOM      1  C   UNL     1       7.428  -3.587  24.074  0.00  0.00    +0.098 C 
ATOM      2  C   UNL     1       8.273  -2.464  23.415  0.00  0.00    +0.177 C 
ATOM      3  C   UNL     1       8.176  -1.150  24.168  0.00  0.00    -0.007 A 
ATOM      4  C   UNL     1       7.813  -1.094  25.531  0.00  0.00    +0.029 A 
ATOM      5  C   UNL     1       7.739   0.179  26.149  0.00  0.00    +0.134 A 
ATOM      6  C   UNL     1       8.007   1.370  25.456  0.00  0.00    +0.075 A 
ATOM      7  C   UNL     1       7.770   2.721  26.042  0.00  0.00    +0.202 C 
ATOM      8  O   UNL     1       7.054   2.832  27.035  0.00  0.00    -0.286 OA
ATOM      9  C   UNL     1       8.317   3.921  25.356  0.00  0.00    +0.075 A 
ATOM     10  C   UNL     1       8.808   3.796  24.055  0.00  0.00    +0.037 A 
ATOM     11  C   UNL     1       9.294   4.916  23.360  0.00  0.00    +0.012 A 
ATOM     12  C   UNL     1       9.286   6.169  23.967  0.00  0.00    +0.004 A 
ATOM     13  C   UNL     1       8.790   6.308  25.260  0.00  0.00    +0.046 A 
ATOM     14  C   UNL     1       8.827   2.487  23.382  0.00  0.00    +0.195 C 
ATOM     15  O   UNL     1       9.189   2.393  22.214  0.00  0.00    -0.287 OA
ATOM     16  C   UNL     1       8.317   5.189  25.952  0.00  0.00    +0.128 A 
ATOM     17  C   UNL     1       8.441   1.284  24.139  0.00  0.00    +0.037 A 
ATOM     18  C   UNL     1       7.525  -2.348  26.359  0.00  0.00    +0.158 C 
ATOM     19  C   UNL     1       8.525   0.041  23.504  0.00  0.00    +0.019 A 
ATOM     20  C   UNL     1       7.744  -3.655  25.581  0.00  0.00    +0.074 C 
ENDROOT
BRANCH   1  22
ATOM     21  C   UNL     1       6.414  -5.675  22.882  0.00  0.00    +0.007 C 
ATOM     22  C   UNL     1       7.658  -4.959  23.386  0.00  0.00    +0.034 C 
ENDBRANCH   1  22
BRANCH   1  23
ATOM     23  O   UNL     1       6.031  -3.325  23.857  0.00  0.00    -0.386 OA
ATOM     24  H   UNL     1       5.927  -2.832  23.024  0.00  0.00    +0.210 HD
ENDBRANCH   1  23
BRANCH   2  25
ATOM     25  O   UNL     1       7.827  -2.293  22.067  0.00  0.00    -0.384 OA
ATOM     26  H   UNL     1       7.054  -2.860  21.921  0.00  0.00    +0.210 HD
ENDBRANCH   2  25
BRANCH  16  27
ATOM     27  O   UNL     1       7.880   5.359  27.234  0.00  0.00    -0.506 OA
ATOM     28  H   UNL     1       6.960   5.064  27.325  0.00  0.00    +0.292 HD
ENDBRANCH  16  27
BRANCH   5  29
ATOM     29  O   UNL     1       7.388   0.232  27.471  0.00  0.00    -0.506 OA
ATOM     30  H   UNL     1       8.180  -0.053  27.970  0.00  0.00    +0.292 HD
ENDBRANCH   5  29
BRANCH  18  31
ATOM     31  O   UNL     1       6.209  -2.206  26.921  0.00  0.00    -0.343 OA
BRANCH  31  32
ATOM     32  C   UNL     1       5.433  -1.086  26.463  0.00  0.00    +0.253 C 
ATOM     33  O   UNL     1       5.012  -0.213  27.506  0.00  0.00    -0.346 OA
ATOM     34  C   UNL     1       3.931  -0.676  28.335  0.00  0.00    +0.149 C 
ATOM     35  C   UNL     1       4.427  -1.620  29.414  0.00  0.00    +0.041 C 
ATOM     36  C   UNL     1       2.708  -1.226  27.547  0.00  0.00    +0.167 C 
ATOM     37  C   UNL     1       3.158  -2.269  26.467  0.00  0.00    +0.092 C 
ATOM     38  C   UNL     1       4.222  -1.533  25.620  0.00  0.00    +0.083 C 
BRANCH  37  39
ATOM     39  N   UNL     1       3.692  -3.565  26.964  0.00  0.00    -0.303 NA
ATOM     40  C   UNL     1       2.935  -4.236  28.017  0.00  0.00    +0.105 C 
ATOM     41  C   UNL     1       4.009  -4.536  25.912  0.00  0.00    +0.105 C 
ENDBRANCH  37  39
BRANCH  36  42
ATOM     42  O   UNL     1       2.055  -0.042  26.994  0.00  0.00    -0.344 OA
BRANCH  42  43
ATOM     43  C   UNL     1       1.574   0.970  27.877  0.00  0.00    +0.254 C 
ATOM     44  O   UNL     1       0.443   1.662  27.310  0.00  0.00    -0.346 OA
ATOM     45  C   UNL     1       0.683   2.500  26.159  0.00  0.00    +0.150 C 
ATOM     46  C   UNL     1       0.638   1.661  24.885  0.00  0.00    +0.041 C 
ATOM     47  C   UNL     1       1.872   3.486  26.326  0.00  0.00    +0.178 C 
ATOM     48  C   UNL     1       3.057   2.818  27.063  0.00  0.00    +0.151 C 
ATOM     49  C   UNL     1       2.596   2.024  28.282  0.00  0.00    +0.095 C 
BRANCH  48  50
ATOM     50  O   UNL     1       3.815   1.970  26.197  0.00  0.00    -0.389 OA
ATOM     51  H   UNL     1       4.754   2.212  26.299  0.00  0.00    +0.210 HD
ENDBRANCH  48  50
BRANCH  47  52
ATOM     52  O   UNL     1       2.389   4.114  25.137  0.00  0.00    -0.343 OA
BRANCH  52  53
ATOM     53  C   UNL     1       2.972   5.409  25.220  0.00  0.00    +0.252 C 
ATOM     54  O   UNL     1       2.579   6.205  24.081  0.00  0.00    -0.341 OA
ATOM     55  C   UNL     1       3.162   5.799  22.836  0.00  0.00    +0.184 C 
ATOM     56  C   UNL     1       2.791   6.800  21.746  0.00  0.00    +0.046 C 
ATOM     57  C   UNL     1       4.682   5.706  22.967  0.00  0.00    +0.162 C 
ATOM     58  O   UNL     1       5.484   6.280  22.233  0.00  0.00    -0.295 OA
ATOM     59  C   UNL     1       5.140   4.834  24.101  0.00  0.00    +0.082 C 
ATOM     60  C   UNL     1       4.498   5.410  25.351  0.00  0.00    +0.069 C 
ENDBRANCH  52  53
ENDBRANCH  47  52
ENDBRANCH  42  43
ENDBRANCH  36  42
ENDBRANCH  31  32
ENDBRANCH  18  31
TORSDOF 13
ENDMDL
MODEL 8
REMARK VINA RESULT:      -4.1      3.308     10.087
REMARK  Name = 
REMARK  19 active torsions:
REMARK  status: ('A' for Active; 'I' for Inactive)
REMARK    1  A    between atoms: C_1  and  C_2
REMARK    2  A    between atoms: C_2  and  C_3
REMARK    3  A    between atoms: C_3  and  O_4
REMARK    4  A    between atoms: C_6  and  O_8
REMARK    5  A    between atoms: O_8  and  C_9
REMARK    6  A    between atoms: C_12  and  N_44
REMARK    7  A    between atoms: C_14  and  O_16
REMARK    8  A    between atoms: O_16  and  C_17
REMARK    9  A    between atoms: C_20  and  O_22
REMARK   10  A    between atoms: C_23  and  O_25
REMARK   11  A    between atoms: O_25  and  C_26
REMARK   12  A    between atoms: C_32  and  C_34
REMARK   13  A    between atoms: C_36  and  C_38
REMARK   14  A    between atoms: C_40  and  C_42
REMARK   15  A    between atoms: N_44  and  C_45
REMARK   16  A    between atoms: N_44  and  C_46
REMARK   17  A    between atoms: C_48  and  O_49
REMARK   18  A    between atoms: C_54  and  O_56
REMARK   19  A    between atoms: C_63  and  O_64
REMARK                            x       y       z     vdW  Elec       q    Type
REMARK                         _______ _______ _______ _____ _____    ______ ____
ROOT
ATOM      1  C   UNL     1       8.706  -2.976  24.872  0.00  0.00    +0.098 C 
ATOM      2  C   UNL     1       9.226  -1.776  24.036  0.00  0.00    +0.177 C 
ATOM      3  C   UNL     1       8.476  -0.492  24.338  0.00  0.00    -0.007 A 
ATOM      4  C   UNL     1       7.786  -0.297  25.554  0.00  0.00    +0.029 A 
ATOM      5  C   UNL     1       7.106   0.932  25.745  0.00  0.00    +0.134 A 
ATOM      6  C   UNL     1       7.092   1.944  24.773  0.00  0.00    +0.075 A 
ATOM      7  C   UNL     1       6.245   3.167  24.886  0.00  0.00    +0.202 C 
ATOM      8  O   UNL     1       5.312   3.183  25.686  0.00  0.00    -0.286 OA
ATOM      9  C   UNL     1       6.476   4.304  23.958  0.00  0.00    +0.075 A 
ATOM     10  C   UNL     1       7.290   4.115  22.839  0.00  0.00    +0.037 A 
ATOM     11  C   UNL     1       7.497   5.155  21.918  0.00  0.00    +0.012 A 
ATOM     12  C   UNL     1       6.886   6.390  22.113  0.00  0.00    +0.004 A 
ATOM     13  C   UNL     1       6.065   6.588  23.220  0.00  0.00    +0.046 A 
ATOM     14  C   UNL     1       7.948   2.820  22.599  0.00  0.00    +0.195 C 
ATOM     15  O   UNL     1       8.601   2.633  21.578  0.00  0.00    -0.287 OA
ATOM     16  C   UNL     1       5.869   5.554  24.140  0.00  0.00    +0.128 A 
ATOM     17  C   UNL     1       7.844   1.762  23.619  0.00  0.00    +0.037 A 
ATOM     18  C   UNL     1       7.771  -1.344  26.669  0.00  0.00    +0.158 C 
ATOM     19  C   UNL     1       8.527   0.561  23.404  0.00  0.00    +0.019 A 
ATOM     20  C   UNL     1       8.635  -2.576  26.359  0.00  0.00    +0.074 C 
ENDROOT
BRANCH   1  22
ATOM     21  C   UNL     1       9.494  -5.301  25.755  0.00  0.00    +0.007 C 
ATOM     22  C   UNL     1       9.580  -4.242  24.667  0.00  0.00    +0.034 C 
ENDBRANCH   1  22
BRANCH   1  23
ATOM     23  O   UNL     1       7.411  -3.371  24.388  0.00  0.00    -0.386 OA
ATOM     24  H   UNL     1       7.435  -4.316  24.156  0.00  0.00    +0.210 HD
ENDBRANCH   1  23
BRANCH   2  25
ATOM     25  O   UNL     1       9.103  -2.104  22.649  0.00  0.00    -0.384 OA
ATOM     26  H   UNL     1       9.413  -3.013  22.515  0.00  0.00    +0.210 HD
ENDBRANCH   2  25
BRANCH  16  27
ATOM     27  O   UNL     1       5.093   5.802  25.235  0.00  0.00    -0.506 OA
ATOM     28  H   UNL     1       5.470   6.520  25.768  0.00  0.00    +0.292 HD
ENDBRANCH  16  27
BRANCH   5  29
ATOM     29  O   UNL     1       6.439   1.120  26.925  0.00  0.00    -0.506 OA
ATOM     30  H   UNL     1       6.025   0.259  27.139  0.00  0.00    +0.292 HD
ENDBRANCH   5  29
BRANCH  18  31
ATOM     31  O   UNL     1       6.396  -1.643  26.968  0.00  0.00    -0.343 OA
BRANCH  31  32
ATOM     32  C   UNL     1       6.137  -2.916  27.585  0.00  0.00    +0.253 C 
ATOM     33  O   UNL     1       5.533  -3.864  26.713  0.00  0.00    -0.346 OA
ATOM     34  C   UNL     1       4.136  -3.674  26.422  0.00  0.00    +0.149 C 
ATOM     35  C   UNL     1       3.936  -2.639  25.331  0.00  0.00    +0.041 C 
ATOM     36  C   UNL     1       3.248  -3.430  27.676  0.00  0.00    +0.167 C 
ATOM     37  C   UNL     1       3.856  -2.309  28.587  0.00  0.00    +0.092 C 
ATOM     38  C   UNL     1       5.304  -2.770  28.874  0.00  0.00    +0.083 C 
BRANCH  37  39
ATOM     39  N   UNL     1       3.847  -0.924  28.047  0.00  0.00    -0.303 NA
ATOM     40  C   UNL     1       2.582  -0.427  27.513  0.00  0.00    +0.105 C 
ATOM     41  C   UNL     1       4.413   0.084  28.948  0.00  0.00    +0.105 C 
ENDBRANCH  37  39
BRANCH  36  42
ATOM     42  O   UNL     1       3.150  -4.736  28.324  0.00  0.00    -0.344 OA
BRANCH  42  43
ATOM     43  C   UNL     1       2.020  -5.028  29.145  0.00  0.00    +0.254 C 
ATOM     44  O   UNL     1       2.021  -6.409  29.559  0.00  0.00    -0.346 OA
ATOM     45  C   UNL     1       1.792  -7.409  28.543  0.00  0.00    +0.150 C 
ATOM     46  C   UNL     1       3.105  -7.757  27.849  0.00  0.00    +0.041 C 
ATOM     47  C   UNL     1       0.557  -7.130  27.641  0.00  0.00    +0.178 C 
ATOM     48  C   UNL     1       0.443  -5.627  27.293  0.00  0.00    +0.151 C 
ATOM     49  C   UNL     1       0.664  -4.741  28.516  0.00  0.00    +0.095 C 
BRANCH  48  50
ATOM     50  O   UNL     1       1.350  -5.248  26.257  0.00  0.00    -0.389 OA
ATOM     51  H   UNL     1       1.177  -4.312  26.044  0.00  0.00    +0.210 HD
ENDBRANCH  48  50
BRANCH  47  52
ATOM     52  O   UNL     1       0.446  -7.877  26.414  0.00  0.00    -0.343 OA
BRANCH  52  53
ATOM     53  C   UNL     1       1.613  -8.151  25.648  0.00  0.00    +0.252 C 
ATOM     54  O   UNL     1       1.752  -7.179  24.589  0.00  0.00    -0.341 OA
ATOM     55  C   UNL     1       0.787  -7.296  23.537  0.00  0.00    +0.184 C 
ATOM     56  C   UNL     1       1.128  -6.319  22.416  0.00  0.00    +0.046 C 
ATOM     57  C   UNL     1       0.761  -8.725  22.995  0.00  0.00    +0.162 C 
ATOM     58  O   UNL     1       0.898  -9.029  21.813  0.00  0.00    -0.295 OA
ATOM     59  C   UNL     1       0.552  -9.770  24.055  0.00  0.00    +0.082 C 
ATOM     60  C   UNL     1       1.669  -9.566  25.063  0.00  0.00    +0.069 C 
ENDBRANCH  52  53
ENDBRANCH  47  52
ENDBRANCH  42  43
ENDBRANCH  36  42
ENDBRANCH  31  32
ENDBRANCH  18  31
TORSDOF 13
ENDMDL
MODEL 9
REMARK VINA RESULT:      -4.1      2.564      8.072
REMARK  Name = 
REMARK  19 active torsions:
REMARK  status: ('A' for Active; 'I' for Inactive)
REMARK    1  A    between atoms: C_1  and  C_2
REMARK    2  A    between atoms: C_2  and  C_3
REMARK    3  A    between atoms: C_3  and  O_4
REMARK    4  A    between atoms: C_6  and  O_8
REMARK    5  A    between atoms: O_8  and  C_9
REMARK    6  A    between atoms: C_12  and  N_44
REMARK    7  A    between atoms: C_14  and  O_16
REMARK    8  A    between atoms: O_16  and  C_17
REMARK    9  A    between atoms: C_20  and  O_22
REMARK   10  A    between atoms: C_23  and  O_25
REMARK   11  A    between atoms: O_25  and  C_26
REMARK   12  A    between atoms: C_32  and  C_34
REMARK   13  A    between atoms: C_36  and  C_38
REMARK   14  A    between atoms: C_40  and  C_42
REMARK   15  A    between atoms: N_44  and  C_45
REMARK   16  A    between atoms: N_44  and  C_46
REMARK   17  A    between atoms: C_48  and  O_49
REMARK   18  A    between atoms: C_54  and  O_56
REMARK   19  A    between atoms: C_63  and  O_64
REMARK                            x       y       z     vdW  Elec       q    Type
REMARK                         _______ _______ _______ _____ _____    ______ ____
ROOT
ATOM      1  C   UNL     1       1.818   4.892  24.139  0.00  0.00    +0.098 C 
ATOM      2  C   UNL     1       0.971   3.684  24.620  0.00  0.00    +0.177 C 
ATOM      3  C   UNL     1       1.690   2.853  25.666  0.00  0.00    -0.007 A 
ATOM      4  C   UNL     1       2.729   3.385  26.460  0.00  0.00    +0.029 A 
ATOM      5  C   UNL     1       3.350   2.532  27.405  0.00  0.00    +0.134 A 
ATOM      6  C   UNL     1       2.972   1.190  27.571  0.00  0.00    +0.075 A 
ATOM      7  C   UNL     1       3.725   0.236  28.436  0.00  0.00    +0.202 C 
ATOM      8  O   UNL     1       4.867   0.516  28.794  0.00  0.00    -0.286 OA
ATOM      9  C   UNL     1       3.123  -1.082  28.765  0.00  0.00    +0.075 A 
ATOM     10  C   UNL     1       1.999  -1.513  28.058  0.00  0.00    +0.037 A 
ATOM     11  C   UNL     1       1.428  -2.771  28.313  0.00  0.00    +0.012 A 
ATOM     12  C   UNL     1       1.985  -3.605  29.278  0.00  0.00    +0.004 A 
ATOM     13  C   UNL     1       3.111  -3.191  29.984  0.00  0.00    +0.046 A 
ATOM     14  C   UNL     1       1.387  -0.658  27.027  0.00  0.00    +0.195 C 
ATOM     15  O   UNL     1       0.447  -1.068  26.356  0.00  0.00    -0.287 OA
ATOM     16  C   UNL     1       3.670  -1.934  29.735  0.00  0.00    +0.128 A 
ATOM     17  C   UNL     1       1.895   0.712  26.837  0.00  0.00    +0.037 A 
ATOM     18  C   UNL     1       3.184   4.842  26.352  0.00  0.00    +0.158 C 
ATOM     19  C   UNL     1       1.262   1.532  25.898  0.00  0.00    +0.019 A 
ATOM     20  C   UNL     1       2.351   5.668  25.359  0.00  0.00    +0.074 C 
ENDROOT
BRANCH   1  22
ATOM     21  C   UNL     1       1.831   6.707  22.264  0.00  0.00    +0.007 C 
ATOM     22  C   UNL     1       1.013   5.817  23.188  0.00  0.00    +0.034 C 
ENDBRANCH   1  22
BRANCH   1  23
ATOM     23  O   UNL     1       2.902   4.420  23.321  0.00  0.00    -0.386 OA
ATOM     24  H   UNL     1       3.741   4.758  23.681  0.00  0.00    +0.210 HD
ENDBRANCH   1  23
BRANCH   2  25
ATOM     25  O   UNL     1       0.648   2.876  23.485  0.00  0.00    -0.384 OA
ATOM     26  H   UNL     1      -0.252   2.531  23.594  0.00  0.00    +0.210 HD
ENDBRANCH   2  25
BRANCH  16  27
ATOM     27  O   UNL     1       4.748  -1.547  30.478  0.00  0.00    -0.506 OA
ATOM     28  H   UNL     1       5.571  -1.883  30.090  0.00  0.00    +0.292 HD
ENDBRANCH  16  27
BRANCH   5  29
ATOM     29  O   UNL     1       4.357   3.050  28.175  0.00  0.00    -0.506 OA
ATOM     30  H   UNL     1       5.159   2.538  27.945  0.00  0.00    +0.292 HD
ENDBRANCH   5  29
BRANCH  18  31
ATOM     31  O   UNL     1       4.597   4.839  26.082  0.00  0.00    -0.343 OA
BRANCH  31  32
ATOM     32  C   UNL     1       5.208   3.554  25.881  0.00  0.00    +0.253 C 
ATOM     33  O   UNL     1       6.319   3.305  26.735  0.00  0.00    -0.346 OA
ATOM     34  C   UNL     1       7.545   3.986  26.411  0.00  0.00    +0.149 C 
ATOM     35  C   UNL     1       7.543   5.409  26.936  0.00  0.00    +0.041 C 
ATOM     36  C   UNL     1       7.962   3.878  24.916  0.00  0.00    +0.167 C 
ATOM     37  C   UNL     1       6.769   4.255  23.971  0.00  0.00    +0.092 C 
ATOM     38  C   UNL     1       5.608   3.333  24.408  0.00  0.00    +0.083 C 
BRANCH  37  39
ATOM     39  N   UNL     1       6.334   5.677  23.970  0.00  0.00    -0.303 NA
ATOM     40  C   UNL     1       7.370   6.689  24.157  0.00  0.00    +0.105 C 
ATOM     41  C   UNL     1       5.497   6.056  22.828  0.00  0.00    +0.105 C 
ENDBRANCH  37  39
BRANCH  36  42
ATOM     42  O   UNL     1       8.436   2.506  24.757  0.00  0.00    -0.344 OA
BRANCH  42  43
ATOM     43  C   UNL     1       9.046   2.113  23.528  0.00  0.00    +0.254 C 
ATOM     44  O   UNL     1       8.215   1.177  22.811  0.00  0.00    -0.346 OA
ATOM     45  C   UNL     1       8.049  -0.139  23.381  0.00  0.00    +0.150 C 
ATOM     46  C   UNL     1       6.917  -0.126  24.404  0.00  0.00    +0.041 C 
ATOM     47  C   UNL     1       9.381  -0.827  23.794  0.00  0.00    +0.178 C 
ATOM     48  C   UNL     1      10.358   0.183  24.440  0.00  0.00    +0.151 C 
ATOM     49  C   UNL     1      10.429   1.490  23.654  0.00  0.00    +0.095 C 
BRANCH  48  50
ATOM     50  O   UNL     1      10.019   0.461  25.801  0.00  0.00    -0.389 OA
ATOM     51  H   UNL     1       9.048   0.403  25.878  0.00  0.00    +0.210 HD
ENDBRANCH  48  50
BRANCH  47  52
ATOM     52  O   UNL     1       9.296  -1.975  24.660  0.00  0.00    -0.343 OA
BRANCH  52  53
ATOM     53  C   UNL     1       8.442  -3.059  24.312  0.00  0.00    +0.252 C 
ATOM     54  O   UNL     1       7.228  -3.004  25.091  0.00  0.00    -0.341 OA
ATOM     55  C   UNL     1       7.392  -3.313  26.480  0.00  0.00    +0.184 C 
ATOM     56  C   UNL     1       6.027  -3.368  27.159  0.00  0.00    +0.046 C 
ATOM     57  C   UNL     1       8.113  -4.651  26.646  0.00  0.00    +0.162 C 
ATOM     58  O   UNL     1       7.694  -5.595  27.312  0.00  0.00    -0.295 OA
ATOM     59  C   UNL     1       9.417  -4.732  25.904  0.00  0.00    +0.082 C 
ATOM     60  C   UNL     1       9.085  -4.442  24.451  0.00  0.00    +0.069 C 
ENDBRANCH  52  53
ENDBRANCH  47  52
ENDBRANCH  42  43
ENDBRANCH  36  42
ENDBRANCH  31  32
ENDBRANCH  18  31
TORSDOF 13
ENDMDL
