MODEL 1
REMARK VINA RESULT:      -6.3      0.000      0.000
REMARK  Name = 
REMARK  4 active torsions:
REMARK  status: ('A' for Active; 'I' for Inactive)
REMARK    1  A    between atoms: C_1  and  N_2
REMARK    2  A    between atoms: C_3  and  C_4
REMARK    3  A    between atoms: C_11  and  S_17
REMARK    4  A    between atoms: S_17  and  N_18
REMARK                            x       y       z     vdW  Elec       q    Type
REMARK                         _______ _______ _______ _____ _____    ______ ____
ROOT
ATOM      1  C   UNL     1       9.628   2.581  23.925  0.00  0.00    +0.134 C 
ATOM      2  N   UNL     1       9.210   1.210  23.556  0.00  0.00    -0.158 NA
ATOM      3  S   UNL     1       9.180   0.191  24.914  0.00  0.00    +0.064 S 
ATOM      4  O   UNL     1       8.144   0.680  25.799  0.00  0.00    -0.153 OA
ATOM      5  O   UNL     1      10.541   0.027  25.372  0.00  0.00    -0.153 OA
ATOM      6  C   UNL     1       8.625  -1.339  24.272  0.00  0.00    +0.128 A 
ATOM      7  C   UNL     1       7.995  -1.360  23.033  0.00  0.00    +0.056 A 
ATOM      8  C   UNL     1       7.607  -2.614  22.539  0.00  0.00    +0.047 A 
ATOM      9  C   UNL     1       7.779  -3.793  23.288  0.00  0.00    +0.069 A 
ATOM     10  C   UNL     1       8.382  -3.726  24.544  0.00  0.00    +0.125 A 
ATOM     11 CL   UNL     1       7.203  -5.256  22.573  0.00  0.00    -0.081 Cl
ATOM     12  N   UNL     1       7.873  -0.236  22.220  0.00  0.00    -0.325 N 
ATOM     13  H   UNL     1       7.128  -0.313  21.528  0.00  0.00    +0.148 HD
ATOM     14  C   UNL     1       8.821  -2.493  25.037  0.00  0.00    +0.060 A 
ATOM     15  C   UNL     1       7.941   1.103  22.811  0.00  0.00    +0.177 C 
ENDROOT
BRANCH  10  16
ATOM     16  S   UNL     1       8.650  -5.156  25.540  0.00  0.00    +0.057 S 
ATOM     17  O   UNL     1       9.671  -5.970  24.920  0.00  0.00    -0.153 OA
ATOM     18  O   UNL     1       7.379  -5.705  25.941  0.00  0.00    -0.153 OA
BRANCH  16  19
ATOM     19  N   UNL     1       9.386  -4.539  26.916  0.00  0.00    -0.203 NA
ATOM     20  H   UNL     1      10.297  -4.147  26.674  0.00  0.00    +0.144 HD
ATOM     21  H   UNL     1       9.428  -5.262  27.637  0.00  0.00    +0.144 HD
ENDBRANCH  16  19
ENDBRANCH  10  16
BRANCH  15  22
ATOM     22  C   UNL     1       7.833   2.139  21.666  0.00  0.00    +0.148 C 
ATOM     23 CL   UNL     1       6.579   3.371  22.017  0.00  0.00    -0.122 Cl
ENDBRANCH  15  22
TORSDOF 3
ENDMDL
MODEL 2
REMARK VINA RESULT:      -6.3      2.320      2.597
REMARK  Name = 
REMARK  4 active torsions:
REMARK  status: ('A' for Active; 'I' for Inactive)
REMARK    1  A    between atoms: C_1  and  N_2
REMARK    2  A    between atoms: C_3  and  C_4
REMARK    3  A    between atoms: C_11  and  S_17
REMARK    4  A    between atoms: S_17  and  N_18
REMARK                            x       y       z     vdW  Elec       q    Type
REMARK                         _______ _______ _______ _____ _____    ______ ____
ROOT
ATOM      1  C   UNL     1       9.829   0.125  21.947  0.00  0.00    +0.134 C 
ATOM      2  N   UNL     1       8.686  -0.527  22.624  0.00  0.00    -0.158 NA
ATOM      3  S   UNL     1       9.214  -1.559  23.865  0.00  0.00    +0.064 S 
ATOM      4  O   UNL     1       9.838  -0.735  24.877  0.00  0.00    -0.153 OA
ATOM      5  O   UNL     1       9.925  -2.658  23.250  0.00  0.00    -0.153 OA
ATOM      6  C   UNL     1       7.729  -2.177  24.551  0.00  0.00    +0.128 A 
ATOM      7  C   UNL     1       6.538  -1.509  24.291  0.00  0.00    +0.056 A 
ATOM      8  C   UNL     1       5.367  -2.065  24.826  0.00  0.00    +0.047 A 
ATOM      9  C   UNL     1       5.396  -3.207  25.647  0.00  0.00    +0.069 A 
ATOM     10  C   UNL     1       6.615  -3.829  25.916  0.00  0.00    +0.125 A 
ATOM     11 CL   UNL     1       3.880  -3.747  26.277  0.00  0.00    -0.081 Cl
ATOM     12  N   UNL     1       6.446  -0.424  23.422  0.00  0.00    -0.325 N 
ATOM     13  H   UNL     1       5.621   0.154  23.579  0.00  0.00    +0.148 HD
ATOM     14  C   UNL     1       7.790  -3.320  25.354  0.00  0.00    +0.060 A 
ATOM     15  C   UNL     1       7.636   0.379  23.128  0.00  0.00    +0.177 C 
ENDROOT
BRANCH  10  16
ATOM     16  S   UNL     1       6.738  -5.272  26.921  0.00  0.00    +0.057 S 
ATOM     17  O   UNL     1       6.026  -6.352  26.274  0.00  0.00    -0.153 OA
ATOM     18  O   UNL     1       6.495  -4.919  28.298  0.00  0.00    -0.153 OA
BRANCH  16  19
ATOM     19  N   UNL     1       8.355  -5.700  26.791  0.00  0.00    -0.203 NA
ATOM     20  H   UNL     1       8.883  -4.932  26.373  0.00  0.00    +0.144 HD
ATOM     21  H   UNL     1       8.437  -6.581  26.281  0.00  0.00    +0.144 HD
ENDBRANCH  16  19
ENDBRANCH  10  16
BRANCH  15  22
ATOM     22  C   UNL     1       7.240   1.464  22.098  0.00  0.00    +0.148 C 
ATOM     23 CL   UNL     1       7.817   3.085  22.604  0.00  0.00    -0.122 Cl
ENDBRANCH  15  22
TORSDOF 3
ENDMDL
MODEL 3
REMARK VINA RESULT:      -6.2      2.492      5.970
REMARK  Name = 
REMARK  4 active torsions:
REMARK  status: ('A' for Active; 'I' for Inactive)
REMARK    1  A    between atoms: C_1  and  N_2
REMARK    2  A    between atoms: C_3  and  C_4
REMARK    3  A    between atoms: C_11  and  S_17
REMARK    4  A    between atoms: S_17  and  N_18
REMARK                            x       y       z     vdW  Elec       q    Type
REMARK                         _______ _______ _______ _____ _____    ______ ____
ROOT
ATOM      1  C   UNL     1       5.448  -5.923  24.656  0.00  0.00    +0.134 C 
ATOM      2  N   UNL     1       6.162  -4.821  23.973  0.00  0.00    -0.158 NA
ATOM      3  S   UNL     1       6.752  -3.686  25.091  0.00  0.00    +0.064 S 
ATOM      4  O   UNL     1       7.755  -4.350  25.895  0.00  0.00    -0.153 OA
ATOM      5  O   UNL     1       5.613  -3.035  25.700  0.00  0.00    -0.153 OA
ATOM      6  C   UNL     1       7.587  -2.516  24.094  0.00  0.00    +0.128 A 
ATOM      7  C   UNL     1       7.940  -2.868  22.796  0.00  0.00    +0.056 A 
ATOM      8  C   UNL     1       8.568  -1.884  22.019  0.00  0.00    +0.047 A 
ATOM      9  C   UNL     1       8.894  -0.620  22.544  0.00  0.00    +0.069 A 
ATOM     10  C   UNL     1       8.556  -0.316  23.863  0.00  0.00    +0.125 A 
ATOM     11 CL   UNL     1       9.715   0.470  21.485  0.00  0.00    -0.081 Cl
ATOM     12  N   UNL     1       7.570  -4.074  22.206  0.00  0.00    -0.325 N 
ATOM     13  H   UNL     1       8.155  -4.335  21.412  0.00  0.00    +0.148 HD
ATOM     14  C   UNL     1       7.886  -1.265  24.642  0.00  0.00    +0.060 A 
ATOM     15  C   UNL     1       7.236  -5.227  23.047  0.00  0.00    +0.177 C 
ENDROOT
BRANCH  10  16
ATOM     16  S   UNL     1       8.913   1.248  24.593  0.00  0.00    +0.057 S 
ATOM     17  O   UNL     1       8.068   2.250  23.982  0.00  0.00    -0.153 OA
ATOM     18  O   UNL     1      10.342   1.415  24.692  0.00  0.00    -0.153 OA
BRANCH  16  19
ATOM     19  N   UNL     1       8.317   1.094  26.154  0.00  0.00    -0.203 NA
ATOM     20  H   UNL     1       7.482   0.506  26.149  0.00  0.00    +0.144 HD
ATOM     21  H   UNL     1       8.166   2.020  26.557  0.00  0.00    +0.144 HD
ENDBRANCH  16  19
ENDBRANCH  10  16
BRANCH  15  22
ATOM     22  C   UNL     1       6.814  -6.392  22.119  0.00  0.00    +0.148 C 
ATOM     23 CL   UNL     1       6.068  -5.784  20.606  0.00  0.00    -0.122 Cl
ENDBRANCH  15  22
TORSDOF 3
ENDMDL
MODEL 4
REMARK VINA RESULT:      -6.1      2.836      6.498
REMARK  Name = 
REMARK  4 active torsions:
REMARK  status: ('A' for Active; 'I' for Inactive)
REMARK    1  A    between atoms: C_1  and  N_2
REMARK    2  A    between atoms: C_3  and  C_4
REMARK    3  A    between atoms: C_11  and  S_17
REMARK    4  A    between atoms: S_17  and  N_18
REMARK                            x       y       z     vdW  Elec       q    Type
REMARK                         _______ _______ _______ _____ _____    ______ ____
ROOT
ATOM      1  C   UNL     1       9.199  -5.107  24.810  0.00  0.00    +0.134 C 
ATOM      2  N   UNL     1       8.939  -3.686  25.132  0.00  0.00    -0.158 NA
ATOM      3  S   UNL     1       9.100  -2.705  23.755  0.00  0.00    +0.064 S 
ATOM      4  O   UNL     1       8.055  -3.083  22.829  0.00  0.00    -0.153 OA
ATOM      5  O   UNL     1      10.492  -2.722  23.363  0.00  0.00    -0.153 OA
ATOM      6  C   UNL     1       8.711  -1.102  24.339  0.00  0.00    +0.128 A 
ATOM      7  C   UNL     1       8.031  -0.973  25.545  0.00  0.00    +0.056 A 
ATOM      8  C   UNL     1       7.780   0.332  25.995  0.00  0.00    +0.047 A 
ATOM      9  C   UNL     1       8.133   1.461  25.234  0.00  0.00    +0.069 A 
ATOM     10  C   UNL     1       8.782   1.289  24.011  0.00  0.00    +0.125 A 
ATOM     11 CL   UNL     1       7.711   3.002  25.892  0.00  0.00    -0.081 Cl
ATOM     12  N   UNL     1       7.731  -2.052  26.372  0.00  0.00    -0.325 N 
ATOM     13  H   UNL     1       6.970  -1.866  27.024  0.00  0.00    +0.148 HD
ATOM     14  C   UNL     1       9.086  -0.000  23.564  0.00  0.00    +0.060 A 
ATOM     15  C   UNL     1       7.660  -3.404  25.811  0.00  0.00    +0.177 C 
ENDROOT
BRANCH  10  16
ATOM     16  S   UNL     1       9.273   2.649  23.003  0.00  0.00    +0.057 S 
ATOM     17  O   UNL     1      10.390   3.316  23.633  0.00  0.00    -0.153 OA
ATOM     18  O   UNL     1       8.103   3.372  22.570  0.00  0.00    -0.153 OA
BRANCH  16  19
ATOM     19  N   UNL     1       9.935   1.912  21.650  0.00  0.00    -0.203 NA
ATOM     20  H   UNL     1      10.562   1.159  21.939  0.00  0.00    +0.144 HD
ATOM     21  H   UNL     1      10.383   2.615  21.059  0.00  0.00    +0.144 HD
ENDBRANCH  16  19
ENDBRANCH  10  16
BRANCH  15  22
ATOM     22  C   UNL     1       7.369  -4.390  26.968  0.00  0.00    +0.148 C 
ATOM     23 CL   UNL     1       6.085  -5.559  26.522  0.00  0.00    -0.122 Cl
ENDBRANCH  15  22
TORSDOF 3
ENDMDL
MODEL 5
REMARK VINA RESULT:      -5.9      3.539      6.418
REMARK  Name = 
REMARK  4 active torsions:
REMARK  status: ('A' for Active; 'I' for Inactive)
REMARK    1  A    between atoms: C_1  and  N_2
REMARK    2  A    between atoms: C_3  and  C_4
REMARK    3  A    between atoms: C_11  and  S_17
REMARK    4  A    between atoms: S_17  and  N_18
REMARK                            x       y       z     vdW  Elec       q    Type
REMARK                         _______ _______ _______ _____ _____    ______ ____
ROOT
ATOM      1  C   UNL     1       4.821  -6.552  23.694  0.00  0.00    +0.134 C 
ATOM      2  N   UNL     1       5.218  -5.146  23.927  0.00  0.00    -0.158 NA
ATOM      3  S   UNL     1       6.350  -4.628  22.772  0.00  0.00    +0.064 S 
ATOM      4  O   UNL     1       5.688  -4.629  21.486  0.00  0.00    -0.153 OA
ATOM      5  O   UNL     1       7.571  -5.372  22.988  0.00  0.00    -0.153 OA
ATOM      6  C   UNL     1       6.641  -2.956  23.197  0.00  0.00    +0.128 A 
ATOM      7  C   UNL     1       5.730  -2.302  24.019  0.00  0.00    +0.056 A 
ATOM      8  C   UNL     1       6.027  -0.977  24.369  0.00  0.00    +0.047 A 
ATOM      9  C   UNL     1       7.156  -0.309  23.858  0.00  0.00    +0.069 A 
ATOM     10  C   UNL     1       8.028  -0.988  23.007  0.00  0.00    +0.125 A 
ATOM     11 CL   UNL     1       7.363   1.338  24.335  0.00  0.00    -0.081 Cl
ATOM     12  N   UNL     1       4.644  -2.940  24.612  0.00  0.00    -0.325 N 
ATOM     13  H   UNL     1       3.903  -2.301  24.899  0.00  0.00    +0.148 HD
ATOM     14  C   UNL     1       7.778  -2.325  22.683  0.00  0.00    +0.060 A 
ATOM     15  C   UNL     1       4.112  -4.174  24.027  0.00  0.00    +0.177 C 
ENDROOT
BRANCH  10  16
ATOM     16  S   UNL     1       9.472  -0.232  22.336  0.00  0.00    +0.057 S 
ATOM     17  O   UNL     1      10.381   0.075  23.418  0.00  0.00    -0.153 OA
ATOM     18  O   UNL     1       9.086   0.760  21.363  0.00  0.00    -0.153 OA
BRANCH  16  19
ATOM     19  N   UNL     1      10.218  -1.485  21.506  0.00  0.00    -0.203 NA
ATOM     20  H   UNL     1      10.750  -2.063  22.159  0.00  0.00    +0.144 HD
ATOM     21  H   UNL     1      10.779  -1.104  20.742  0.00  0.00    +0.144 HD
ENDBRANCH  16  19
ENDBRANCH  10  16
BRANCH  15  22
ATOM     22  C   UNL     1       2.958  -4.675  24.928  0.00  0.00    +0.148 C 
ATOM     23 CL   UNL     1       1.515  -5.112  23.958  0.00  0.00    -0.122 Cl
ENDBRANCH  15  22
TORSDOF 3
ENDMDL
MODEL 6
REMARK VINA RESULT:      -5.8      3.409      7.081
REMARK  Name = 
REMARK  4 active torsions:
REMARK  status: ('A' for Active; 'I' for Inactive)
REMARK    1  A    between atoms: C_1  and  N_2
REMARK    2  A    between atoms: C_3  and  C_4
REMARK    3  A    between atoms: C_11  and  S_17
REMARK    4  A    between atoms: S_17  and  N_18
REMARK                            x       y       z     vdW  Elec       q    Type
REMARK                         _______ _______ _______ _____ _____    ______ ____
ROOT
ATOM      1  C   UNL     1       9.924  -1.772  23.809  0.00  0.00    +0.134 C 
ATOM      2  N   UNL     1       8.895  -0.717  23.671  0.00  0.00    -0.158 NA
ATOM      3  S   UNL     1       9.587   0.756  23.184  0.00  0.00    +0.064 S 
ATOM      4  O   UNL     1      10.119   0.565  21.852  0.00  0.00    -0.153 OA
ATOM      5  O   UNL     1      10.424   1.228  24.266  0.00  0.00    -0.153 OA
ATOM      6  C   UNL     1       8.215   1.831  23.039  0.00  0.00    +0.128 A 
ATOM      7  C   UNL     1       6.939   1.286  22.949  0.00  0.00    +0.056 A 
ATOM      8  C   UNL     1       5.866   2.187  22.878  0.00  0.00    +0.047 A 
ATOM      9  C   UNL     1       6.068   3.578  22.828  0.00  0.00    +0.069 A 
ATOM     10  C   UNL     1       7.366   4.087  22.884  0.00  0.00    +0.125 A 
ATOM     11 CL   UNL     1       4.654   4.561  22.687  0.00  0.00    -0.081 Cl
ATOM     12  N   UNL     1       6.682  -0.077  23.074  0.00  0.00    -0.325 N 
ATOM     13  H   UNL     1       5.791  -0.362  22.668  0.00  0.00    +0.148 HD
ATOM     14  C   UNL     1       8.448   3.209  23.003  0.00  0.00    +0.060 A 
ATOM     15  C   UNL     1       7.746  -1.049  22.808  0.00  0.00    +0.177 C 
ENDROOT
BRANCH  10  16
ATOM     16  S   UNL     1       7.706   5.816  22.842  0.00  0.00    +0.057 S 
ATOM     17  O   UNL     1       7.235   6.412  24.073  0.00  0.00    -0.153 OA
ATOM     18  O   UNL     1       7.339   6.346  21.553  0.00  0.00    -0.153 OA
BRANCH  16  19
ATOM     19  N   UNL     1       9.378   5.887  22.956  0.00  0.00    -0.203 NA
ATOM     20  H   UNL     1       9.652   6.703  23.506  0.00  0.00    +0.144 HD
ATOM     21  H   UNL     1       9.787   5.864  22.021  0.00  0.00    +0.144 HD
ENDBRANCH  16  19
ENDBRANCH  10  16
BRANCH  15  22
ATOM     22  C   UNL     1       7.183  -2.464  23.082  0.00  0.00    +0.148 C 
ATOM     23 CL   UNL     1       5.665  -2.751  22.172  0.00  0.00    -0.122 Cl
ENDBRANCH  15  22
TORSDOF 3
ENDMDL
MODEL 7
REMARK VINA RESULT:      -5.7      2.136      5.989
REMARK  Name = 
REMARK  4 active torsions:
REMARK  status: ('A' for Active; 'I' for Inactive)
REMARK    1  A    between atoms: C_1  and  N_2
REMARK    2  A    between atoms: C_3  and  C_4
REMARK    3  A    between atoms: C_11  and  S_17
REMARK    4  A    between atoms: S_17  and  N_18
REMARK                            x       y       z     vdW  Elec       q    Type
REMARK                         _______ _______ _______ _____ _____    ______ ____
ROOT
ATOM      1  C   UNL     1       7.255  -5.195  25.717  0.00  0.00    +0.134 C 
ATOM      2  N   UNL     1       7.110  -3.883  25.047  0.00  0.00    -0.158 NA
ATOM      3  S   UNL     1       8.595  -3.062  24.979  0.00  0.00    +0.064 S 
ATOM      4  O   UNL     1       9.477  -3.830  24.127  0.00  0.00    -0.153 OA
ATOM      5  O   UNL     1       8.971  -2.719  26.333  0.00  0.00    -0.153 OA
ATOM      6  C   UNL     1       8.213  -1.585  24.122  0.00  0.00    +0.128 A 
ATOM      7  C   UNL     1       7.038  -1.521  23.382  0.00  0.00    +0.056 A 
ATOM      8  C   UNL     1       6.751  -0.303  22.748  0.00  0.00    +0.047 A 
ATOM      9  C   UNL     1       7.642   0.785  22.795  0.00  0.00    +0.069 A 
ATOM     10  C   UNL     1       8.829   0.671  23.518  0.00  0.00    +0.125 A 
ATOM     11 CL   UNL     1       7.180   2.202  21.922  0.00  0.00    -0.081 Cl
ATOM     12  N   UNL     1       6.088  -2.540  23.369  0.00  0.00    -0.325 N 
ATOM     13  H   UNL     1       5.469  -2.509  22.559  0.00  0.00    +0.148 HD
ATOM     14  C   UNL     1       9.113  -0.518  24.198  0.00  0.00    +0.060 A 
ATOM     15  C   UNL     1       6.481  -3.909  23.713  0.00  0.00    +0.177 C 
ENDROOT
BRANCH  10  16
ATOM     16  S   UNL     1       9.992   1.990  23.641  0.00  0.00    +0.057 S 
ATOM     17  O   UNL     1      11.228   1.472  24.182  0.00  0.00    -0.153 OA
ATOM     18  O   UNL     1       9.343   3.149  24.203  0.00  0.00    -0.153 OA
BRANCH  16  19
ATOM     19  N   UNL     1      10.351   2.344  22.041  0.00  0.00    -0.203 NA
ATOM     20  H   UNL     1       9.630   1.954  21.431  0.00  0.00    +0.144 HD
ATOM     21  H   UNL     1      11.294   2.020  21.821  0.00  0.00    +0.144 HD
ENDBRANCH  16  19
ENDBRANCH  10  16
BRANCH  15  22
ATOM     22  C   UNL     1       5.215  -4.798  23.667  0.00  0.00    +0.148 C 
ATOM     23 CL   UNL     1       5.311  -6.003  22.344  0.00  0.00    -0.122 Cl
ENDBRANCH  15  22
TORSDOF 3
ENDMDL
MODEL 8
REMARK VINA RESULT:      -5.7      3.075      3.499
REMARK  Name = 
REMARK  4 active torsions:
REMARK  status: ('A' for Active; 'I' for Inactive)
REMARK    1  A    between atoms: C_1  and  N_2
REMARK    2  A    between atoms: C_3  and  C_4
REMARK    3  A    between atoms: C_11  and  S_17
REMARK    4  A    between atoms: S_17  and  N_18
REMARK                            x       y       z     vdW  Elec       q    Type
REMARK                         _______ _______ _______ _____ _____    ______ ____
ROOT
ATOM      1  C   UNL     1       9.056   0.350  25.243  0.00  0.00    +0.134 C 
ATOM      2  N   UNL     1       8.605  -0.827  24.467  0.00  0.00    -0.158 NA
ATOM      3  S   UNL     1       7.034  -1.291  24.913  0.00  0.00    +0.064 S 
ATOM      4  O   UNL     1       6.140  -0.218  24.533  0.00  0.00    -0.153 OA
ATOM      5  O   UNL     1       7.087  -1.775  26.275  0.00  0.00    -0.153 OA
ATOM      6  C   UNL     1       6.685  -2.644  23.860  0.00  0.00    +0.128 A 
ATOM      7  C   UNL     1       7.461  -2.826  22.721  0.00  0.00    +0.056 A 
ATOM      8  C   UNL     1       7.174  -3.949  21.930  0.00  0.00    +0.047 A 
ATOM      9  C   UNL     1       6.107  -4.815  22.231  0.00  0.00    +0.069 A 
ATOM     10  C   UNL     1       5.328  -4.578  23.363  0.00  0.00    +0.125 A 
ATOM     11 CL   UNL     1       5.841  -6.125  21.136  0.00  0.00    -0.081 Cl
ATOM     12  N   UNL     1       8.575  -2.046  22.423  0.00  0.00    -0.325 N 
ATOM     13  H   UNL     1       8.835  -2.066  21.437  0.00  0.00    +0.148 HD
ATOM     14  C   UNL     1       5.625  -3.493  24.193  0.00  0.00    +0.060 A 
ATOM     15  C   UNL     1       8.702  -0.704  23.000  0.00  0.00    +0.177 C 
ENDROOT
BRANCH  10  16
ATOM     16  S   UNL     1       3.984  -5.623  23.821  0.00  0.00    +0.057 S 
ATOM     17  O   UNL     1       3.059  -5.703  22.711  0.00  0.00    -0.153 OA
ATOM     18  O   UNL     1       3.546  -5.285  25.152  0.00  0.00    -0.153 OA
BRANCH  16  19
ATOM     19  N   UNL     1       4.682  -7.146  23.895  0.00  0.00    -0.203 NA
ATOM     20  H   UNL     1       5.504  -7.179  23.290  0.00  0.00    +0.144 HD
ATOM     21  H   UNL     1       3.981  -7.856  23.675  0.00  0.00    +0.144 HD
ENDBRANCH  16  19
ENDBRANCH  10  16
BRANCH  15  22
ATOM     22  C   UNL     1      10.055  -0.110  22.539  0.00  0.00    +0.148 C 
ATOM     23 CL   UNL     1       9.844   1.528  21.842  0.00  0.00    -0.122 Cl
ENDBRANCH  15  22
TORSDOF 3
ENDMDL
MODEL 9
REMARK VINA RESULT:      -5.6      1.761      1.864
REMARK  Name = 
REMARK  4 active torsions:
REMARK  status: ('A' for Active; 'I' for Inactive)
REMARK    1  A    between atoms: C_1  and  N_2
REMARK    2  A    between atoms: C_3  and  C_4
REMARK    3  A    between atoms: C_11  and  S_17
REMARK    4  A    between atoms: S_17  and  N_18
REMARK                            x       y       z     vdW  Elec       q    Type
REMARK                         _______ _______ _______ _____ _____    ______ ____
ROOT
ATOM      1  C   UNL     1       8.172   2.533  24.726  0.00  0.00    +0.134 C 
ATOM      2  N   UNL     1       8.160   1.115  24.304  0.00  0.00    -0.158 NA
ATOM      3  S   UNL     1       7.281   0.156  25.396  0.00  0.00    +0.064 S 
ATOM      4  O   UNL     1       5.900   0.584  25.334  0.00  0.00    -0.153 OA
ATOM      5  O   UNL     1       8.004   0.139  26.648  0.00  0.00    -0.153 OA
ATOM      6  C   UNL     1       7.353  -1.445  24.695  0.00  0.00    +0.128 A 
ATOM      7  C   UNL     1       7.702  -1.578  23.356  0.00  0.00    +0.056 A 
ATOM      8  C   UNL     1       7.790  -2.882  22.848  0.00  0.00    +0.047 A 
ATOM      9  C   UNL     1       7.472  -4.007  23.632  0.00  0.00    +0.069 A 
ATOM     10  C   UNL     1       7.090  -3.831  24.962  0.00  0.00    +0.125 A 
ATOM     11 CL   UNL     1       7.575  -5.546  22.856  0.00  0.00    -0.081 Cl
ATOM     12  N   UNL     1       8.102  -0.506  22.562  0.00  0.00    -0.325 N 
ATOM     13  H   UNL     1       8.005  -0.681  21.562  0.00  0.00    +0.148 HD
ATOM     14  C   UNL     1       7.042  -2.542  25.504  0.00  0.00    +0.060 A 
ATOM     15  C   UNL     1       7.707   0.859  22.924  0.00  0.00    +0.177 C 
ENDROOT
BRANCH  10  16
ATOM     16  S   UNL     1       6.691  -5.185  26.018  0.00  0.00    +0.057 S 
ATOM     17  O   UNL     1       7.916  -5.848  26.408  0.00  0.00    -0.153 OA
ATOM     18  O   UNL     1       5.577  -5.912  25.463  0.00  0.00    -0.153 OA
BRANCH  16  19
ATOM     19  N   UNL     1       6.154  -4.440  27.421  0.00  0.00    -0.203 NA
ATOM     20  H   UNL     1       6.624  -4.847  28.231  0.00  0.00    +0.144 HD
ATOM     21  H   UNL     1       5.134  -4.492  27.469  0.00  0.00    +0.144 HD
ENDBRANCH  16  19
ENDBRANCH  10  16
BRANCH  15  22
ATOM     22  C   UNL     1       8.341   1.830  21.898  0.00  0.00    +0.148 C 
ATOM     23 CL   UNL     1      10.129   1.695  21.891  0.00  0.00    -0.122 Cl
ENDBRANCH  15  22
TORSDOF 3
ENDMDL
