MODEL 1
REMARK VINA RESULT:      -4.3      0.000      0.000
REMARK  Name = 
REMARK  3 active torsions:
REMARK  status: ('A' for Active; 'I' for Inactive)
REMARK    1  A    between atoms: O_1  and  C_2
REMARK    2  A    between atoms: C_2  and  C_4
REMARK    3  A    between atoms: C_8  and  O_9
REMARK                            x       y       z     vdW  Elec       q    Type
REMARK                         _______ _______ _______ _____ _____    ______ ____
ROOT
ATOM      1  C   UNL     1      10.284   0.056  23.018  0.00  0.00    +0.160 A 
ATOM      2  C   UNL     1       9.897   1.206  22.332  0.00  0.00    +0.266 A 
ATOM      3  N   UNL     1      10.158   2.342  22.963  0.00  0.00    -0.039 NA
ATOM      4  O   UNL     1      10.760   1.933  24.154  0.00  0.00    -0.359 OA
ATOM      5  C   UNL     1      10.828   0.574  24.172  0.00  0.00    +0.249 A 
ENDROOT
BRANCH   1   6
ATOM      6  C   UNL     1      10.173  -1.333  22.670  0.00  0.00    +0.345 C 
ATOM      7  O   UNL     1      10.186  -2.234  23.497  0.00  0.00    -0.245 OA
BRANCH   6   8
ATOM      8  O   UNL     1      10.049  -1.583  21.341  0.00  0.00    -0.477 OA
ATOM      9  H   UNL     1       9.496  -0.920  20.875  0.00  0.00    +0.295 HD
ENDBRANCH   6   8
ENDBRANCH   1   6
BRANCH   2  10
ATOM     10  O   UNL     1       9.306   1.301  21.138  0.00  0.00    -0.490 OA
ATOM     11  H   UNL     1       9.781   0.673  20.560  0.00  0.00    +0.294 HD
ENDBRANCH   2  10
TORSDOF 3
ENDMDL
MODEL 2
REMARK VINA RESULT:      -4.2      5.660      7.086
REMARK  Name = 
REMARK  3 active torsions:
REMARK  status: ('A' for Active; 'I' for Inactive)
REMARK    1  A    between atoms: O_1  and  C_2
REMARK    2  A    between atoms: C_2  and  C_4
REMARK    3  A    between atoms: C_8  and  O_9
REMARK                            x       y       z     vdW  Elec       q    Type
REMARK                         _______ _______ _______ _____ _____    ______ ____
ROOT
ATOM      1  C   UNL     1       8.162  -4.974  25.160  0.00  0.00    +0.160 A 
ATOM      2  C   UNL     1       7.491  -5.472  26.276  0.00  0.00    +0.266 A 
ATOM      3  N   UNL     1       6.185  -5.626  26.115  0.00  0.00    -0.039 NA
ATOM      4  O   UNL     1       5.958  -5.204  24.804  0.00  0.00    -0.359 OA
ATOM      5  C   UNL     1       7.141  -4.821  24.250  0.00  0.00    +0.249 A 
ENDROOT
BRANCH   1   6
ATOM      6  C   UNL     1       9.552  -4.677  24.949  0.00  0.00    +0.345 C 
ATOM      7  O   UNL     1       9.940  -3.694  24.335  0.00  0.00    -0.245 OA
BRANCH   6   8
ATOM      8  O   UNL     1      10.418  -5.575  25.486  0.00  0.00    -0.477 OA
ATOM      9  H   UNL     1      10.908  -6.088  24.808  0.00  0.00    +0.295 HD
ENDBRANCH   6   8
ENDBRANCH   1   6
BRANCH   2  10
ATOM     10  O   UNL     1       7.995  -5.806  27.468  0.00  0.00    -0.490 OA
ATOM     11  H   UNL     1       7.605  -5.175  28.103  0.00  0.00    +0.294 HD
ENDBRANCH   2  10
TORSDOF 3
ENDMDL
MODEL 3
REMARK VINA RESULT:      -4.2      1.632      3.101
REMARK  Name = 
REMARK  3 active torsions:
REMARK  status: ('A' for Active; 'I' for Inactive)
REMARK    1  A    between atoms: O_1  and  C_2
REMARK    2  A    between atoms: C_2  and  C_4
REMARK    3  A    between atoms: C_8  and  O_9
REMARK                            x       y       z     vdW  Elec       q    Type
REMARK                         _______ _______ _______ _____ _____    ______ ____
ROOT
ATOM      1  C   UNL     1      10.133   0.426  23.090  0.00  0.00    +0.160 A 
ATOM      2  C   UNL     1       9.912  -0.732  22.346  0.00  0.00    +0.266 A 
ATOM      3  N   UNL     1       9.869  -1.849  23.057  0.00  0.00    -0.039 NA
ATOM      4  O   UNL     1      10.075  -1.418  24.369  0.00  0.00    -0.359 OA
ATOM      5  C   UNL     1      10.230  -0.066  24.373  0.00  0.00    +0.249 A 
ENDROOT
BRANCH   1   6
ATOM      6  C   UNL     1      10.243   1.800  22.688  0.00  0.00    +0.345 C 
ATOM      7  O   UNL     1      10.681   2.678  23.417  0.00  0.00    -0.245 OA
BRANCH   6   8
ATOM      8  O   UNL     1       9.820   2.064  21.424  0.00  0.00    -0.477 OA
ATOM      9  H   UNL     1       9.235   1.365  21.061  0.00  0.00    +0.295 HD
ENDBRANCH   6   8
ENDBRANCH   1   6
BRANCH   2  10
ATOM     10  O   UNL     1       9.742  -0.850  21.026  0.00  0.00    -0.490 OA
ATOM     11  H   UNL     1       9.916   0.038  20.659  0.00  0.00    +0.294 HD
ENDBRANCH   2  10
TORSDOF 3
ENDMDL
MODEL 4
REMARK VINA RESULT:      -4.2      0.977      1.937
REMARK  Name = 
REMARK  3 active torsions:
REMARK  status: ('A' for Active; 'I' for Inactive)
REMARK    1  A    between atoms: O_1  and  C_2
REMARK    2  A    between atoms: C_2  and  C_4
REMARK    3  A    between atoms: C_8  and  O_9
REMARK                            x       y       z     vdW  Elec       q    Type
REMARK                         _______ _______ _______ _____ _____    ______ ____
ROOT
ATOM      1  C   UNL     1      10.189   0.183  22.953  0.00  0.00    +0.160 A 
ATOM      2  C   UNL     1      10.413   0.918  24.115  0.00  0.00    +0.266 A 
ATOM      3  N   UNL     1      10.354   2.233  23.960  0.00  0.00    -0.039 NA
ATOM      4  O   UNL     1      10.072   2.396  22.603  0.00  0.00    -0.359 OA
ATOM      5  C   UNL     1       9.976   1.171  22.018  0.00  0.00    +0.249 A 
ENDROOT
BRANCH   1   6
ATOM      6  C   UNL     1      10.170  -1.235  22.721  0.00  0.00    +0.345 C 
ATOM      7  O   UNL     1      10.137  -2.060  23.623  0.00  0.00    -0.245 OA
BRANCH   6   8
ATOM      8  O   UNL     1      10.190  -1.603  21.414  0.00  0.00    -0.477 OA
ATOM      9  H   UNL     1      10.679  -0.972  20.844  0.00  0.00    +0.295 HD
ENDBRANCH   6   8
ENDBRANCH   1   6
BRANCH   2  10
ATOM     10  O   UNL     1      10.676   0.467  25.345  0.00  0.00    -0.490 OA
ATOM     11  H   UNL     1      11.591   0.752  25.538  0.00  0.00    +0.294 HD
ENDBRANCH   2  10
TORSDOF 3
ENDMDL
MODEL 5
REMARK VINA RESULT:      -4.2      1.394      3.107
REMARK  Name = 
REMARK  3 active torsions:
REMARK  status: ('A' for Active; 'I' for Inactive)
REMARK    1  A    between atoms: O_1  and  C_2
REMARK    2  A    between atoms: C_2  and  C_4
REMARK    3  A    between atoms: C_8  and  O_9
REMARK                            x       y       z     vdW  Elec       q    Type
REMARK                         _______ _______ _______ _____ _____    ______ ____
ROOT
ATOM      1  C   UNL     1      10.199   0.366  23.076  0.00  0.00    +0.160 A 
ATOM      2  C   UNL     1       9.686   0.691  21.821  0.00  0.00    +0.266 A 
ATOM      3  N   UNL     1       9.346  -0.350  21.074  0.00  0.00    -0.039 NA
ATOM      4  O   UNL     1       9.650  -1.450  21.877  0.00  0.00    -0.359 OA
ATOM      5  C   UNL     1      10.155  -1.010  23.061  0.00  0.00    +0.249 A 
ENDROOT
BRANCH   1   6
ATOM      6  C   UNL     1      10.668   1.198  24.148  0.00  0.00    +0.345 C 
ATOM      7  O   UNL     1      10.982   2.370  23.998  0.00  0.00    -0.245 OA
BRANCH   6   8
ATOM      8  O   UNL     1      10.742   0.587  25.359  0.00  0.00    -0.477 OA
ATOM      9  H   UNL     1      11.663   0.448  25.664  0.00  0.00    +0.295 HD
ENDBRANCH   6   8
ENDBRANCH   1   6
BRANCH   2  10
ATOM     10  O   UNL     1       9.498   1.902  21.289  0.00  0.00    -0.490 OA
ATOM     11  H   UNL     1       8.610   1.874  20.882  0.00  0.00    +0.294 HD
ENDBRANCH   2  10
TORSDOF 3
ENDMDL
MODEL 6
REMARK VINA RESULT:      -4.1      4.937      6.314
REMARK  Name = 
REMARK  3 active torsions:
REMARK  status: ('A' for Active; 'I' for Inactive)
REMARK    1  A    between atoms: O_1  and  C_2
REMARK    2  A    between atoms: C_2  and  C_4
REMARK    3  A    between atoms: C_8  and  O_9
REMARK                            x       y       z     vdW  Elec       q    Type
REMARK                         _______ _______ _______ _____ _____    ______ ____
ROOT
ATOM      1  C   UNL     1       8.371  -4.167  25.994  0.00  0.00    +0.160 A 
ATOM      2  C   UNL     1       9.402  -4.704  25.224  0.00  0.00    +0.266 A 
ATOM      3  N   UNL     1       9.969  -3.850  24.384  0.00  0.00    -0.039 NA
ATOM      4  O   UNL     1       9.276  -2.658  24.600  0.00  0.00    -0.359 OA
ATOM      5  C   UNL     1       8.331  -2.862  25.558  0.00  0.00    +0.249 A 
ENDROOT
BRANCH   1   6
ATOM      6  C   UNL     1       7.531  -4.764  26.995  0.00  0.00    +0.345 C 
ATOM      7  O   UNL     1       6.495  -4.250  27.393  0.00  0.00    -0.245 OA
BRANCH   6   8
ATOM      8  O   UNL     1       7.972  -5.954  27.479  0.00  0.00    -0.477 OA
ATOM      9  H   UNL     1       7.250  -6.602  27.622  0.00  0.00    +0.295 HD
ENDBRANCH   6   8
ENDBRANCH   1   6
BRANCH   2  10
ATOM     10  O   UNL     1       9.878  -5.952  25.229  0.00  0.00    -0.490 OA
ATOM     11  H   UNL     1      10.642  -5.943  24.620  0.00  0.00    +0.294 HD
ENDBRANCH   2  10
TORSDOF 3
ENDMDL
MODEL 7
REMARK VINA RESULT:      -4.1      1.723      3.569
REMARK  Name = 
REMARK  3 active torsions:
REMARK  status: ('A' for Active; 'I' for Inactive)
REMARK    1  A    between atoms: O_1  and  C_2
REMARK    2  A    between atoms: C_2  and  C_4
REMARK    3  A    between atoms: C_8  and  O_9
REMARK                            x       y       z     vdW  Elec       q    Type
REMARK                         _______ _______ _______ _____ _____    ______ ____
ROOT
ATOM      1  C   UNL     1      10.117   0.501  23.006  0.00  0.00    +0.160 A 
ATOM      2  C   UNL     1      10.156  -0.170  24.227  0.00  0.00    +0.266 A 
ATOM      3  N   UNL     1       9.994  -1.483  24.144  0.00  0.00    -0.039 NA
ATOM      4  O   UNL     1       9.834  -1.714  22.777  0.00  0.00    -0.359 OA
ATOM      5  C   UNL     1       9.910  -0.527  22.114  0.00  0.00    +0.249 A 
ENDROOT
BRANCH   1   6
ATOM      6  C   UNL     1      10.251   1.896  22.691  0.00  0.00    +0.345 C 
ATOM      7  O   UNL     1      10.659   2.727  23.490  0.00  0.00    -0.245 OA
BRANCH   6   8
ATOM      8  O   UNL     1       9.889   2.236  21.427  0.00  0.00    -0.477 OA
ATOM      9  H   UNL     1       9.800   3.205  21.300  0.00  0.00    +0.295 HD
ENDBRANCH   6   8
ENDBRANCH   1   6
BRANCH   2  10
ATOM     10  O   UNL     1      10.333   0.339  25.449  0.00  0.00    -0.490 OA
ATOM     11  H   UNL     1      10.160  -0.397  26.067  0.00  0.00    +0.294 HD
ENDBRANCH   2  10
TORSDOF 3
ENDMDL
MODEL 8
REMARK VINA RESULT:      -4.1      5.769      7.138
REMARK  Name = 
REMARK  3 active torsions:
REMARK  status: ('A' for Active; 'I' for Inactive)
REMARK    1  A    between atoms: O_1  and  C_2
REMARK    2  A    between atoms: C_2  and  C_4
REMARK    3  A    between atoms: C_8  and  O_9
REMARK                            x       y       z     vdW  Elec       q    Type
REMARK                         _______ _______ _______ _____ _____    ______ ____
ROOT
ATOM      1  C   UNL     1       7.686  -5.033  25.377  0.00  0.00    +0.160 A 
ATOM      2  C   UNL     1       8.237  -5.175  26.650  0.00  0.00    +0.266 A 
ATOM      3  N   UNL     1       7.441  -5.754  27.538  0.00  0.00    -0.039 NA
ATOM      4  O   UNL     1       6.275  -6.020  26.818  0.00  0.00    -0.359 OA
ATOM      5  C   UNL     1       6.436  -5.587  25.538  0.00  0.00    +0.249 A 
ENDROOT
BRANCH   1   6
ATOM      6  C   UNL     1       8.225  -4.467  24.173  0.00  0.00    +0.345 C 
ATOM      7  O   UNL     1       7.608  -4.424  23.118  0.00  0.00    -0.245 OA
BRANCH   6   8
ATOM      8  O   UNL     1       9.487  -3.976  24.284  0.00  0.00    -0.477 OA
ATOM      9  H   UNL     1       9.586  -3.080  23.898  0.00  0.00    +0.295 HD
ENDBRANCH   6   8
ENDBRANCH   1   6
BRANCH   2  10
ATOM     10  O   UNL     1       9.448  -4.805  27.076  0.00  0.00    -0.490 OA
ATOM     11  H   UNL     1       9.977  -4.662  26.268  0.00  0.00    +0.294 HD
ENDBRANCH   2  10
TORSDOF 3
ENDMDL
MODEL 9
REMARK VINA RESULT:      -3.8      1.645      3.598
REMARK  Name = 
REMARK  3 active torsions:
REMARK  status: ('A' for Active; 'I' for Inactive)
REMARK    1  A    between atoms: O_1  and  C_2
REMARK    2  A    between atoms: C_2  and  C_4
REMARK    3  A    between atoms: C_8  and  O_9
REMARK                            x       y       z     vdW  Elec       q    Type
REMARK                         _______ _______ _______ _____ _____    ______ ____
ROOT
ATOM      1  C   UNL     1      10.100   0.232  23.071  0.00  0.00    +0.160 A 
ATOM      2  C   UNL     1       9.877  -1.142  23.015  0.00  0.00    +0.266 A 
ATOM      3  N   UNL     1       9.420  -1.583  21.852  0.00  0.00    -0.039 NA
ATOM      4  O   UNL     1       9.329  -0.430  21.070  0.00  0.00    -0.359 OA
ATOM      5  C   UNL     1       9.736   0.639  21.807  0.00  0.00    +0.249 A 
ENDROOT
BRANCH   1   6
ATOM      6  C   UNL     1      10.582   1.068  24.136  0.00  0.00    +0.345 C 
ATOM      7  O   UNL     1      10.965   2.216  23.964  0.00  0.00    -0.245 OA
BRANCH   6   8
ATOM      8  O   UNL     1      10.583   0.489  25.364  0.00  0.00    -0.477 OA
ATOM      9  H   UNL     1      11.007   1.046  26.051  0.00  0.00    +0.295 HD
ENDBRANCH   6   8
ENDBRANCH   1   6
BRANCH   2  10
ATOM     10  O   UNL     1      10.063  -2.054  23.975  0.00  0.00    -0.490 OA
ATOM     11  H   UNL     1      10.079  -1.551  24.813  0.00  0.00    +0.294 HD
ENDBRANCH   2  10
TORSDOF 3
ENDMDL
