MODEL 1
REMARK VINA RESULT:      -6.4      0.000      0.000
REMARK  Name = 
REMARK  8 active torsions:
REMARK  status: ('A' for Active; 'I' for Inactive)
REMARK    1  A    between atoms: C_2  and  C_3
REMARK    2  A    between atoms: C_2  and  C_4
REMARK    3  A    between atoms: C_2  and  C_6
REMARK    4  A    between atoms: C_4  and  S_5
REMARK    5  A    between atoms: C_10  and  S_18
REMARK    6  A    between atoms: C_13  and  C_15
REMARK    7  A    between atoms: C_15  and  O_16
REMARK    8  A    between atoms: S_18  and  C_19
REMARK                            x       y       z     vdW  Elec       q    Type
REMARK                         _______ _______ _______ _____ _____    ______ ____
ROOT
ATOM      1  C   UNL     1       6.377  -5.169  25.063  0.00  0.00    +0.220 C 
ATOM      2  N   UNL     1       7.119  -4.512  24.098  0.00  0.00    -0.287 N 
ATOM      3  C   UNL     1       6.665  -4.013  22.791  0.00  0.00    +0.186 C 
ATOM      4  C   UNL     1       7.681  -2.927  22.400  0.00  0.00    +0.050 C 
ATOM      5  C   UNL     1       8.508  -2.671  23.666  0.00  0.00    +0.071 C 
ATOM      6  C   UNL     1       8.451  -4.006  24.404  0.00  0.00    +0.123 C 
ATOM      7  O   UNL     1       6.877  -5.452  26.151  0.00  0.00    -0.275 OA
ENDROOT
BRANCH   1   8
ATOM      8  C   UNL     1       4.916  -5.514  24.760  0.00  0.00    +0.082 C 
ATOM      9  C   UNL     1       4.008  -4.383  25.253  0.00  0.00    +0.018 C 
BRANCH   8  10
ATOM     10  C   UNL     1       4.594  -6.858  25.435  0.00  0.00    +0.078 C 
BRANCH  10  11
ATOM     11  S   UNL     1       2.978  -7.539  24.948  0.00  0.00    -0.178 S 
ATOM     12  H   UNL     1       2.809  -8.330  26.020  0.00  0.00    +0.102 HD
ENDBRANCH  10  11
ENDBRANCH   8  10
ENDBRANCH   1   8
BRANCH   3  13
ATOM     13  C   UNL     1       6.678  -5.104  21.714  0.00  0.00    +0.325 C 
ATOM     14  O   UNL     1       7.304  -6.148  21.818  0.00  0.00    -0.249 OA
BRANCH  13  15
ATOM     15  O   UNL     1       5.861  -4.850  20.665  0.00  0.00    -0.479 OA
ATOM     16  H   UNL     1       5.192  -4.169  20.882  0.00  0.00    +0.295 HD
ENDBRANCH  13  15
ENDBRANCH   3  13
BRANCH   5  17
ATOM     17  S   UNL     1      10.241  -2.198  23.346  0.00  0.00    -0.120 S 
BRANCH  17  18
ATOM     18  C   UNL     1      10.163  -0.418  23.242  0.00  0.00    +0.008 A 
ATOM     19  C   UNL     1       9.831   0.147  22.004  0.00  0.00    +0.015 A 
ATOM     20  C   UNL     1       9.781   1.533  21.843  0.00  0.00    +0.001 A 
ATOM     21  C   UNL     1      10.066   2.369  22.920  0.00  0.00    +0.000 A 
ATOM     22  C   UNL     1      10.409   1.818  24.153  0.00  0.00    +0.001 A 
ATOM     23  C   UNL     1      10.466   0.431  24.311  0.00  0.00    +0.015 A 
ENDBRANCH  17  18
ENDBRANCH   5  17
TORSDOF 7
ENDMDL
MODEL 2
REMARK VINA RESULT:      -6.3      1.880      2.720
REMARK  Name = 
REMARK  8 active torsions:
REMARK  status: ('A' for Active; 'I' for Inactive)
REMARK    1  A    between atoms: C_2  and  C_3
REMARK    2  A    between atoms: C_2  and  C_4
REMARK    3  A    between atoms: C_2  and  C_6
REMARK    4  A    between atoms: C_4  and  S_5
REMARK    5  A    between atoms: C_10  and  S_18
REMARK    6  A    between atoms: C_13  and  C_15
REMARK    7  A    between atoms: C_15  and  O_16
REMARK    8  A    between atoms: S_18  and  C_19
REMARK                            x       y       z     vdW  Elec       q    Type
REMARK                         _______ _______ _______ _____ _____    ______ ____
ROOT
ATOM      1  C   UNL     1       5.680  -4.464  24.279  0.00  0.00    +0.220 C 
ATOM      2  N   UNL     1       6.884  -3.927  24.698  0.00  0.00    -0.287 N 
ATOM      3  C   UNL     1       8.227  -4.516  24.585  0.00  0.00    +0.186 C 
ATOM      4  C   UNL     1       9.197  -3.326  24.674  0.00  0.00    +0.050 C 
ATOM      5  C   UNL     1       8.319  -2.076  24.545  0.00  0.00    +0.071 C 
ATOM      6  C   UNL     1       6.972  -2.529  25.102  0.00  0.00    +0.123 C 
ATOM      7  O   UNL     1       4.641  -3.811  24.364  0.00  0.00    -0.275 OA
ENDROOT
BRANCH   1   8
ATOM      8  C   UNL     1       5.672  -5.875  23.685  0.00  0.00    +0.082 C 
ATOM      9  C   UNL     1       5.699  -5.789  22.155  0.00  0.00    +0.018 C 
BRANCH   8  10
ATOM     10  C   UNL     1       4.421  -6.604  24.206  0.00  0.00    +0.078 C 
BRANCH  10  11
ATOM     11  S   UNL     1       4.444  -6.875  26.006  0.00  0.00    -0.178 S 
ATOM     12  H   UNL     1       3.288  -7.553  26.080  0.00  0.00    +0.102 HD
ENDBRANCH  10  11
ENDBRANCH   8  10
ENDBRANCH   1   8
BRANCH   3  13
ATOM     13  C   UNL     1       8.537  -5.486  25.731  0.00  0.00    +0.325 C 
ATOM     14  O   UNL     1       7.732  -5.777  26.604  0.00  0.00    -0.249 OA
BRANCH  13  15
ATOM     15  O   UNL     1       9.757  -6.064  25.648  0.00  0.00    -0.479 OA
ATOM     16  H   UNL     1       9.784  -6.925  26.113  0.00  0.00    +0.295 HD
ENDBRANCH  13  15
ENDBRANCH   3  13
BRANCH   5  17
ATOM     17  S   UNL     1       8.933  -0.630  25.472  0.00  0.00    -0.120 S 
BRANCH  17  18
ATOM     18  C   UNL     1       9.424   0.501  24.181  0.00  0.00    +0.008 A 
ATOM     19  C   UNL     1       9.330   0.056  22.857  0.00  0.00    +0.015 A 
ATOM     20  C   UNL     1       9.725   0.876  21.798  0.00  0.00    +0.001 A 
ATOM     21  C   UNL     1      10.221   2.152  22.056  0.00  0.00    +0.000 A 
ATOM     22  C   UNL     1      10.330   2.601  23.370  0.00  0.00    +0.001 A 
ATOM     23  C   UNL     1       9.941   1.776  24.429  0.00  0.00    +0.015 A 
ENDBRANCH  17  18
ENDBRANCH   5  17
TORSDOF 7
ENDMDL
MODEL 3
REMARK VINA RESULT:      -6.2      1.710      3.105
REMARK  Name = 
REMARK  8 active torsions:
REMARK  status: ('A' for Active; 'I' for Inactive)
REMARK    1  A    between atoms: C_2  and  C_3
REMARK    2  A    between atoms: C_2  and  C_4
REMARK    3  A    between atoms: C_2  and  C_6
REMARK    4  A    between atoms: C_4  and  S_5
REMARK    5  A    between atoms: C_10  and  S_18
REMARK    6  A    between atoms: C_13  and  C_15
REMARK    7  A    between atoms: C_15  and  O_16
REMARK    8  A    between atoms: S_18  and  C_19
REMARK                            x       y       z     vdW  Elec       q    Type
REMARK                         _______ _______ _______ _____ _____    ______ ____
ROOT
ATOM      1  C   UNL     1       5.895  -4.198  23.245  0.00  0.00    +0.220 C 
ATOM      2  N   UNL     1       6.827  -3.773  24.174  0.00  0.00    -0.287 N 
ATOM      3  C   UNL     1       7.798  -4.586  24.922  0.00  0.00    +0.186 C 
ATOM      4  C   UNL     1       8.900  -3.604  25.350  0.00  0.00    +0.050 C 
ATOM      5  C   UNL     1       8.626  -2.318  24.563  0.00  0.00    +0.071 C 
ATOM      6  C   UNL     1       7.117  -2.354  24.337  0.00  0.00    +0.123 C 
ATOM      7  O   UNL     1       5.204  -3.384  22.634  0.00  0.00    -0.275 OA
ENDROOT
BRANCH   1   8
ATOM      8  C   UNL     1       5.760  -5.699  22.973  0.00  0.00    +0.082 C 
ATOM      9  C   UNL     1       6.379  -6.033  21.612  0.00  0.00    +0.018 C 
BRANCH   8  10
ATOM     10  C   UNL     1       4.267  -6.062  23.040  0.00  0.00    +0.078 C 
BRANCH  10  11
ATOM     11  S   UNL     1       3.827  -7.032  24.517  0.00  0.00    -0.178 S 
ATOM     12  H   UNL     1       4.272  -8.216  24.069  0.00  0.00    +0.102 HD
ENDBRANCH  10  11
ENDBRANCH   8  10
ENDBRANCH   1   8
BRANCH   3  13
ATOM     13  C   UNL     1       7.187  -5.215  26.179  0.00  0.00    +0.325 C 
ATOM     14  O   UNL     1       6.008  -5.108  26.482  0.00  0.00    -0.249 OA
BRANCH  13  15
ATOM     15  O   UNL     1       8.052  -5.977  26.889  0.00  0.00    -0.479 OA
ATOM     16  H   UNL     1       7.613  -6.765  27.270  0.00  0.00    +0.295 HD
ENDBRANCH  13  15
ENDBRANCH   3  13
BRANCH   5  17
ATOM     17  S   UNL     1       9.099  -0.788  25.438  0.00  0.00    -0.120 S 
BRANCH  17  18
ATOM     18  C   UNL     1       9.554   0.315  24.110  0.00  0.00    +0.008 A 
ATOM     19  C   UNL     1      10.158   1.531  24.454  0.00  0.00    +0.015 A 
ATOM     20  C   UNL     1      10.513   2.454  23.468  0.00  0.00    +0.001 A 
ATOM     21  C   UNL     1      10.264   2.171  22.128  0.00  0.00    +0.000 A 
ATOM     22  C   UNL     1       9.652   0.970  21.775  0.00  0.00    +0.001 A 
ATOM     23  C   UNL     1       9.291   0.050  22.763  0.00  0.00    +0.015 A 
ENDBRANCH  17  18
ENDBRANCH   5  17
TORSDOF 7
ENDMDL
MODEL 4
REMARK VINA RESULT:      -5.9      3.081      6.687
REMARK  Name = 
REMARK  8 active torsions:
REMARK  status: ('A' for Active; 'I' for Inactive)
REMARK    1  A    between atoms: C_2  and  C_3
REMARK    2  A    between atoms: C_2  and  C_4
REMARK    3  A    between atoms: C_2  and  C_6
REMARK    4  A    between atoms: C_4  and  S_5
REMARK    5  A    between atoms: C_10  and  S_18
REMARK    6  A    between atoms: C_13  and  C_15
REMARK    7  A    between atoms: C_15  and  O_16
REMARK    8  A    between atoms: S_18  and  C_19
REMARK                            x       y       z     vdW  Elec       q    Type
REMARK                         _______ _______ _______ _____ _____    ______ ____
ROOT
ATOM      1  C   UNL     1       7.726   0.300  24.351  0.00  0.00    +0.220 C 
ATOM      2  N   UNL     1       8.065  -1.040  24.309  0.00  0.00    -0.287 N 
ATOM      3  C   UNL     1       9.335  -1.640  23.873  0.00  0.00    +0.186 C 
ATOM      4  C   UNL     1       9.374  -3.026  24.536  0.00  0.00    +0.050 C 
ATOM      5  C   UNL     1       8.232  -3.019  25.558  0.00  0.00    +0.071 C 
ATOM      6  C   UNL     1       7.227  -2.038  24.962  0.00  0.00    +0.123 C 
ATOM      7  O   UNL     1       6.648   0.658  24.824  0.00  0.00    -0.275 OA
ENDROOT
BRANCH   1   8
ATOM      8  C   UNL     1       8.727   1.329  23.820  0.00  0.00    +0.082 C 
ATOM      9  C   UNL     1       8.786   2.528  24.773  0.00  0.00    +0.018 C 
BRANCH   8  10
ATOM     10  C   UNL     1       8.289   1.733  22.402  0.00  0.00    +0.078 C 
BRANCH  10  11
ATOM     11  S   UNL     1       7.312   3.268  22.359  0.00  0.00    -0.178 S 
ATOM     12  H   UNL     1       8.283   4.087  22.790  0.00  0.00    +0.102 HD
ENDBRANCH  10  11
ENDBRANCH   8  10
ENDBRANCH   1   8
BRANCH   3  13
ATOM     13  C   UNL     1       9.401  -1.823  22.352  0.00  0.00    +0.325 C 
ATOM     14  O   UNL     1       8.424  -2.062  21.658  0.00  0.00    -0.249 OA
BRANCH  13  15
ATOM     15  O   UNL     1      10.630  -1.612  21.826  0.00  0.00    -0.479 OA
ATOM     16  H   UNL     1      11.257  -1.267  22.494  0.00  0.00    +0.295 HD
ENDBRANCH  13  15
ENDBRANCH   3  13
BRANCH   5  17
ATOM     17  S   UNL     1       7.450  -4.647  25.819  0.00  0.00    -0.120 S 
BRANCH  17  18
ATOM     18  C   UNL     1       6.876  -5.088  24.188  0.00  0.00    +0.008 A 
ATOM     19  C   UNL     1       5.493  -5.167  23.985  0.00  0.00    +0.015 A 
ATOM     20  C   UNL     1       4.974  -5.535  22.741  0.00  0.00    +0.001 A 
ATOM     21  C   UNL     1       5.837  -5.832  21.689  0.00  0.00    +0.000 A 
ATOM     22  C   UNL     1       7.215  -5.768  21.883  0.00  0.00    +0.001 A 
ATOM     23  C   UNL     1       7.732  -5.407  23.130  0.00  0.00    +0.015 A 
ENDBRANCH  17  18
ENDBRANCH   5  17
TORSDOF 7
ENDMDL
MODEL 5
REMARK VINA RESULT:      -5.8      2.679      3.659
REMARK  Name = 
REMARK  8 active torsions:
REMARK  status: ('A' for Active; 'I' for Inactive)
REMARK    1  A    between atoms: C_2  and  C_3
REMARK    2  A    between atoms: C_2  and  C_4
REMARK    3  A    between atoms: C_2  and  C_6
REMARK    4  A    between atoms: C_4  and  S_5
REMARK    5  A    between atoms: C_10  and  S_18
REMARK    6  A    between atoms: C_13  and  C_15
REMARK    7  A    between atoms: C_15  and  O_16
REMARK    8  A    between atoms: S_18  and  C_19
REMARK                            x       y       z     vdW  Elec       q    Type
REMARK                         _______ _______ _______ _____ _____    ______ ____
ROOT
ATOM      1  C   UNL     1       8.271  -3.647  24.702  0.00  0.00    +0.220 C 
ATOM      2  N   UNL     1       8.368  -2.268  24.695  0.00  0.00    -0.287 N 
ATOM      3  C   UNL     1       7.501  -1.295  25.377  0.00  0.00    +0.186 C 
ATOM      4  C   UNL     1       8.348  -0.018  25.499  0.00  0.00    +0.050 C 
ATOM      5  C   UNL     1       9.773  -0.438  25.125  0.00  0.00    +0.071 C 
ATOM      6  C   UNL     1       9.559  -1.611  24.171  0.00  0.00    +0.123 C 
ATOM      7  O   UNL     1       9.128  -4.338  24.150  0.00  0.00    -0.275 OA
ENDROOT
BRANCH   1   8
ATOM      8  C   UNL     1       7.093  -4.298  25.431  0.00  0.00    +0.082 C 
ATOM      9  C   UNL     1       7.602  -5.043  26.669  0.00  0.00    +0.018 C 
BRANCH   8  10
ATOM     10  C   UNL     1       6.378  -5.233  24.440  0.00  0.00    +0.078 C 
BRANCH  10  11
ATOM     11  S   UNL     1       5.501  -4.344  23.116  0.00  0.00    -0.178 S 
ATOM     12  H   UNL     1       6.343  -4.667  22.122  0.00  0.00    +0.102 HD
ENDBRANCH  10  11
ENDBRANCH   8  10
ENDBRANCH   1   8
BRANCH   3  13
ATOM     13  C   UNL     1       6.240  -0.970  24.567  0.00  0.00    +0.325 C 
ATOM     14  O   UNL     1       5.130  -0.855  25.065  0.00  0.00    -0.249 OA
BRANCH  13  15
ATOM     15  O   UNL     1       6.474  -0.736  23.255  0.00  0.00    -0.479 OA
ATOM     16  H   UNL     1       6.325  -1.536  22.711  0.00  0.00    +0.295 HD
ENDBRANCH  13  15
ENDBRANCH   3  13
BRANCH   5  17
ATOM     17  S   UNL     1      10.751   0.869  24.311  0.00  0.00    -0.120 S 
BRANCH  17  18
ATOM     18  C   UNL     1       9.517   1.813  23.433  0.00  0.00    +0.008 A 
ATOM     19  C   UNL     1       9.058   2.995  24.027  0.00  0.00    +0.015 A 
ATOM     20  C   UNL     1       8.071   3.767  23.410  0.00  0.00    +0.001 A 
ATOM     21  C   UNL     1       7.532   3.361  22.192  0.00  0.00    +0.000 A 
ATOM     22  C   UNL     1       7.973   2.181  21.597  0.00  0.00    +0.001 A 
ATOM     23  C   UNL     1       8.955   1.405  22.220  0.00  0.00    +0.015 A 
ENDBRANCH  17  18
ENDBRANCH   5  17
TORSDOF 7
ENDMDL
MODEL 6
REMARK VINA RESULT:      -5.8      4.382      7.705
REMARK  Name = 
REMARK  8 active torsions:
REMARK  status: ('A' for Active; 'I' for Inactive)
REMARK    1  A    between atoms: C_2  and  C_3
REMARK    2  A    between atoms: C_2  and  C_4
REMARK    3  A    between atoms: C_2  and  C_6
REMARK    4  A    between atoms: C_4  and  S_5
REMARK    5  A    between atoms: C_10  and  S_18
REMARK    6  A    between atoms: C_13  and  C_15
REMARK    7  A    between atoms: C_15  and  O_16
REMARK    8  A    between atoms: S_18  and  C_19
REMARK                            x       y       z     vdW  Elec       q    Type
REMARK                         _______ _______ _______ _____ _____    ______ ____
ROOT
ATOM      1  C   UNL     1       7.405   2.275  24.360  0.00  0.00    +0.220 C 
ATOM      2  N   UNL     1       8.498   1.491  24.039  0.00  0.00    -0.287 N 
ATOM      3  C   UNL     1       9.923   1.798  24.238  0.00  0.00    +0.186 C 
ATOM      4  C   UNL     1      10.632   0.434  24.241  0.00  0.00    +0.050 C 
ATOM      5  C   UNL     1       9.509  -0.606  24.328  0.00  0.00    +0.071 C 
ATOM      6  C   UNL     1       8.324   0.093  23.667  0.00  0.00    +0.123 C 
ATOM      7  O   UNL     1       6.261   1.845  24.212  0.00  0.00    -0.275 OA
ENDROOT
BRANCH   1   8
ATOM      8  C   UNL     1       7.645   3.677  24.927  0.00  0.00    +0.082 C 
ATOM      9  C   UNL     1       7.317   3.690  26.423  0.00  0.00    +0.018 C 
BRANCH   8  10
ATOM     10  C   UNL     1       6.779   4.668  24.131  0.00  0.00    +0.078 C 
BRANCH  10  11
ATOM     11  S   UNL     1       7.246   4.784  22.375  0.00  0.00    -0.178 S 
ATOM     12  H   UNL     1       6.060   4.414  21.869  0.00  0.00    +0.102 HD
ENDBRANCH  10  11
ENDBRANCH   8  10
ENDBRANCH   1   8
BRANCH   3  13
ATOM     13  C   UNL     1      10.500   2.648  23.100  0.00  0.00    +0.325 C 
ATOM     14  O   UNL     1      11.254   3.593  23.279  0.00  0.00    -0.249 OA
BRANCH  13  15
ATOM     15  O   UNL     1      10.171   2.207  21.863  0.00  0.00    -0.479 OA
ATOM     16  H   UNL     1       9.249   2.439  21.628  0.00  0.00    +0.295 HD
ENDBRANCH  13  15
ENDBRANCH   3  13
BRANCH   5  17
ATOM     17  S   UNL     1       9.875  -2.176  23.474  0.00  0.00    -0.120 S 
BRANCH  17  18
ATOM     18  C   UNL     1       8.783  -3.338  24.276  0.00  0.00    +0.008 A 
ATOM     19  C   UNL     1       9.054  -3.670  25.610  0.00  0.00    +0.015 A 
ATOM     20  C   UNL     1       8.259  -4.595  26.290  0.00  0.00    +0.001 A 
ATOM     21  C   UNL     1       7.186  -5.200  25.641  0.00  0.00    +0.000 A 
ATOM     22  C   UNL     1       6.915  -4.887  24.311  0.00  0.00    +0.001 A 
ATOM     23  C   UNL     1       7.716  -3.967  23.629  0.00  0.00    +0.015 A 
ENDBRANCH  17  18
ENDBRANCH   5  17
TORSDOF 7
ENDMDL
MODEL 7
REMARK VINA RESULT:      -5.8      3.106      6.823
REMARK  Name = 
REMARK  8 active torsions:
REMARK  status: ('A' for Active; 'I' for Inactive)
REMARK    1  A    between atoms: C_2  and  C_3
REMARK    2  A    between atoms: C_2  and  C_4
REMARK    3  A    between atoms: C_2  and  C_6
REMARK    4  A    between atoms: C_4  and  S_5
REMARK    5  A    between atoms: C_10  and  S_18
REMARK    6  A    between atoms: C_13  and  C_15
REMARK    7  A    between atoms: C_15  and  O_16
REMARK    8  A    between atoms: S_18  and  C_19
REMARK                            x       y       z     vdW  Elec       q    Type
REMARK                         _______ _______ _______ _____ _____    ______ ____
ROOT
ATOM      1  C   UNL     1       9.396  -0.289  23.098  0.00  0.00    +0.220 C 
ATOM      2  N   UNL     1       8.360  -1.201  23.183  0.00  0.00    -0.287 N 
ATOM      3  C   UNL     1       6.913  -0.935  23.153  0.00  0.00    +0.186 C 
ATOM      4  C   UNL     1       6.268  -2.263  22.725  0.00  0.00    +0.050 C 
ATOM      5  C   UNL     1       7.430  -3.145  22.254  0.00  0.00    +0.071 C 
ATOM      6  C   UNL     1       8.618  -2.630  23.062  0.00  0.00    +0.123 C 
ATOM      7  O   UNL     1      10.564  -0.672  23.051  0.00  0.00    -0.275 OA
ENDROOT
BRANCH   1   8
ATOM      8  C   UNL     1       9.059   1.203  23.039  0.00  0.00    +0.082 C 
ATOM      9  C   UNL     1       9.813   1.854  21.875  0.00  0.00    +0.018 C 
BRANCH   8  10
ATOM     10  C   UNL     1       9.427   1.829  24.396  0.00  0.00    +0.078 C 
BRANCH  10  11
ATOM     11  S   UNL     1       8.075   2.800  25.132  0.00  0.00    -0.178 S 
ATOM     12  H   UNL     1       7.297   1.760  25.470  0.00  0.00    +0.102 HD
ENDBRANCH  10  11
ENDBRANCH   8  10
ENDBRANCH   1   8
BRANCH   3  13
ATOM     13  C   UNL     1       6.364  -0.546  24.531  0.00  0.00    +0.325 C 
ATOM     14  O   UNL     1       6.862  -0.913  25.584  0.00  0.00    -0.249 OA
BRANCH  13  15
ATOM     15  O   UNL     1       5.322   0.317  24.483  0.00  0.00    -0.479 OA
ATOM     16  H   UNL     1       4.618   0.072  25.118  0.00  0.00    +0.295 HD
ENDBRANCH  13  15
ENDBRANCH   3  13
BRANCH   5  17
ATOM     17  S   UNL     1       7.187  -4.928  22.551  0.00  0.00    -0.120 S 
BRANCH  17  18
ATOM     18  C   UNL     1       7.123  -5.038  24.331  0.00  0.00    +0.008 A 
ATOM     19  C   UNL     1       8.339  -5.123  25.021  0.00  0.00    +0.015 A 
ATOM     20  C   UNL     1       8.363  -5.241  26.412  0.00  0.00    +0.001 A 
ATOM     21  C   UNL     1       7.168  -5.279  27.128  0.00  0.00    +0.000 A 
ATOM     22  C   UNL     1       5.952  -5.207  26.451  0.00  0.00    +0.001 A 
ATOM     23  C   UNL     1       5.930  -5.096  25.058  0.00  0.00    +0.015 A 
ENDBRANCH  17  18
ENDBRANCH   5  17
TORSDOF 7
ENDMDL
MODEL 8
REMARK VINA RESULT:      -5.7      1.983      2.593
REMARK  Name = 
REMARK  8 active torsions:
REMARK  status: ('A' for Active; 'I' for Inactive)
REMARK    1  A    between atoms: C_2  and  C_3
REMARK    2  A    between atoms: C_2  and  C_4
REMARK    3  A    between atoms: C_2  and  C_6
REMARK    4  A    between atoms: C_4  and  S_5
REMARK    5  A    between atoms: C_10  and  S_18
REMARK    6  A    between atoms: C_13  and  C_15
REMARK    7  A    between atoms: C_15  and  O_16
REMARK    8  A    between atoms: S_18  and  C_19
REMARK                            x       y       z     vdW  Elec       q    Type
REMARK                         _______ _______ _______ _____ _____    ______ ____
ROOT
ATOM      1  C   UNL     1       6.530  -4.605  24.013  0.00  0.00    +0.220 C 
ATOM      2  N   UNL     1       7.186  -3.392  23.919  0.00  0.00    -0.287 N 
ATOM      3  C   UNL     1       7.121  -2.251  24.846  0.00  0.00    +0.186 C 
ATOM      4  C   UNL     1       8.406  -1.448  24.586  0.00  0.00    +0.050 C 
ATOM      5  C   UNL     1       9.279  -2.351  23.708  0.00  0.00    +0.071 C 
ATOM      6  C   UNL     1       8.262  -3.204  22.954  0.00  0.00    +0.123 C 
ATOM      7  O   UNL     1       6.752  -5.502  23.200  0.00  0.00    -0.275 OA
ENDROOT
BRANCH   1   8
ATOM      8  C   UNL     1       5.541  -4.819  25.163  0.00  0.00    +0.082 C 
ATOM      9  C   UNL     1       6.175  -5.726  26.223  0.00  0.00    +0.018 C 
BRANCH   8  10
ATOM     10  C   UNL     1       4.252  -5.419  24.577  0.00  0.00    +0.078 C 
BRANCH  10  11
ATOM     11  S   UNL     1       3.905  -7.103  25.175  0.00  0.00    -0.178 S 
ATOM     12  H   UNL     1       3.984  -6.827  26.485  0.00  0.00    +0.102 HD
ENDBRANCH  10  11
ENDBRANCH   8  10
ENDBRANCH   1   8
BRANCH   3  13
ATOM     13  C   UNL     1       5.914  -1.346  24.572  0.00  0.00    +0.325 C 
ATOM     14  O   UNL     1       4.907  -1.338  25.264  0.00  0.00    -0.249 OA
BRANCH  13  15
ATOM     15  O   UNL     1       6.093  -0.488  23.541  0.00  0.00    -0.479 OA
ATOM     16  H   UNL     1       6.415  -0.947  22.738  0.00  0.00    +0.295 HD
ENDBRANCH  13  15
ENDBRANCH   3  13
BRANCH   5  17
ATOM     17  S   UNL     1      10.345  -1.450  22.533  0.00  0.00    -0.120 S 
BRANCH  17  18
ATOM     18  C   UNL     1       9.862   0.252  22.769  0.00  0.00    +0.008 A 
ATOM     19  C   UNL     1       8.940   0.797  21.867  0.00  0.00    +0.015 A 
ATOM     20  C   UNL     1       8.540   2.130  21.974  0.00  0.00    +0.001 A 
ATOM     21  C   UNL     1       9.062   2.933  22.985  0.00  0.00    +0.000 A 
ATOM     22  C   UNL     1       9.990   2.405  23.880  0.00  0.00    +0.001 A 
ATOM     23  C   UNL     1      10.395   1.073  23.767  0.00  0.00    +0.015 A 
ENDBRANCH  17  18
ENDBRANCH   5  17
TORSDOF 7
ENDMDL
MODEL 9
REMARK VINA RESULT:      -5.6      2.529      6.844
REMARK  Name = 
REMARK  8 active torsions:
REMARK  status: ('A' for Active; 'I' for Inactive)
REMARK    1  A    between atoms: C_2  and  C_3
REMARK    2  A    between atoms: C_2  and  C_4
REMARK    3  A    between atoms: C_2  and  C_6
REMARK    4  A    between atoms: C_4  and  S_5
REMARK    5  A    between atoms: C_10  and  S_18
REMARK    6  A    between atoms: C_13  and  C_15
REMARK    7  A    between atoms: C_15  and  O_16
REMARK    8  A    between atoms: S_18  and  C_19
REMARK                            x       y       z     vdW  Elec       q    Type
REMARK                         _______ _______ _______ _____ _____    ______ ____
ROOT
ATOM      1  C   UNL     1       9.069  -2.021  23.127  0.00  0.00    +0.220 C 
ATOM      2  N   UNL     1       7.835  -2.637  23.033  0.00  0.00    -0.287 N 
ATOM      3  C   UNL     1       6.516  -2.006  22.875  0.00  0.00    +0.186 C 
ATOM      4  C   UNL     1       5.615  -3.099  22.279  0.00  0.00    +0.050 C 
ATOM      5  C   UNL     1       6.566  -4.226  21.861  0.00  0.00    +0.071 C 
ATOM      6  C   UNL     1       7.739  -4.077  22.827  0.00  0.00    +0.123 C 
ATOM      7  O   UNL     1      10.101  -2.690  23.170  0.00  0.00    -0.275 OA
ENDROOT
BRANCH   1   8
ATOM      8  C   UNL     1       9.127  -0.491  23.152  0.00  0.00    +0.082 C 
ATOM      9  C   UNL     1       9.788   0.019  21.867  0.00  0.00    +0.018 C 
BRANCH   8  10
ATOM     10  C   UNL     1       9.897  -0.064  24.413  0.00  0.00    +0.078 C 
BRANCH  10  11
ATOM     11  S   UNL     1       9.043  -0.501  25.961  0.00  0.00    -0.178 S 
ATOM     12  H   UNL     1       7.798  -0.503  25.461  0.00  0.00    +0.102 HD
ENDBRANCH  10  11
ENDBRANCH   8  10
ENDBRANCH   1   8
BRANCH   3  13
ATOM     13  C   UNL     1       5.920  -1.557  24.214  0.00  0.00    +0.325 C 
ATOM     14  O   UNL     1       5.798  -2.296  25.180  0.00  0.00    -0.249 OA
BRANCH  13  15
ATOM     15  O   UNL     1       5.617  -0.239  24.267  0.00  0.00    -0.479 OA
ATOM     16  H   UNL     1       5.268   0.019  25.145  0.00  0.00    +0.295 HD
ENDBRANCH  13  15
ENDBRANCH   3  13
BRANCH   5  17
ATOM     17  S   UNL     1       5.849  -5.899  21.990  0.00  0.00    -0.120 S 
BRANCH  17  18
ATOM     18  C   UNL     1       4.797  -5.780  23.427  0.00  0.00    +0.008 A 
ATOM     19  C   UNL     1       3.423  -5.614  23.215  0.00  0.00    +0.015 A 
ATOM     20  C   UNL     1       2.545  -5.484  24.293  0.00  0.00    +0.001 A 
ATOM     21  C   UNL     1       3.035  -5.516  25.596  0.00  0.00    +0.000 A 
ATOM     22  C   UNL     1       4.402  -5.668  25.819  0.00  0.00    +0.001 A 
ATOM     23  C   UNL     1       5.280  -5.790  24.739  0.00  0.00    +0.015 A 
ENDBRANCH  17  18
ENDBRANCH   5  17
TORSDOF 7
ENDMDL
