MODEL 1
REMARK VINA RESULT:      -6.9      0.000      0.000
REMARK  Name = 
REMARK  8 active torsions:
REMARK  status: ('A' for Active; 'I' for Inactive)
REMARK    1  A    between atoms: O_1  and  C_2
REMARK    2  A    between atoms: C_2  and  C_4
REMARK    3  A    between atoms: C_4  and  O_5
REMARK    4  A    between atoms: O_5  and  C_6
REMARK    5  A    between atoms: C_12  and  C_13
REMARK    6  A    between atoms: C_13  and  N_15
REMARK    7  A    between atoms: N_15  and  C_16
REMARK    8  A    between atoms: C_16  and  C_17
REMARK                            x       y       z     vdW  Elec       q    Type
REMARK                         _______ _______ _______ _____ _____    ______ ____
ROOT
ATOM      1  C   UNL     1       8.120  -4.341  23.433  0.00  0.00    +0.133 A 
ATOM      2  C   UNL     1       7.617  -3.033  23.245  0.00  0.00    +0.045 A 
ATOM      3  C   UNL     1       6.552  -2.835  22.337  0.00  0.00    +0.017 A 
ATOM      4  C   UNL     1       5.987  -3.903  21.642  0.00  0.00    +0.039 A 
ATOM      5  C   UNL     1       6.457  -5.185  21.879  0.00  0.00    +0.127 A 
ATOM      6  F   UNL     1       5.895  -6.222  21.242  0.00  0.00    -0.205 F 
ATOM      7  C   UNL     1       7.498  -5.411  22.770  0.00  0.00    +0.084 A 
ENDROOT
BRANCH   2   8
ATOM      8  C   UNL     1       8.091  -1.830  24.014  0.00  0.00    +0.083 C 
ATOM      9  S   UNL     1       7.028  -0.831  24.854  0.00  0.00    -0.035 S 
BRANCH   8  10
ATOM     10  N   UNL     1       9.457  -1.634  23.961  0.00  0.00    -0.333 N 
ATOM     11  H   UNL     1      10.017  -1.984  24.733  0.00  0.00    +0.147 HD
BRANCH  10  12
ATOM     12  C   UNL     1      10.219  -0.894  22.962  0.00  0.00    +0.140 C 
BRANCH  12  13
ATOM     13  C   UNL     1       9.770   0.533  22.976  0.00  0.00    +0.005 A 
ATOM     14  C   UNL     1      10.095   1.370  24.049  0.00  0.00    +0.129 A 
ATOM     15  F   UNL     1      10.854   0.901  25.051  0.00  0.00    -0.205 F 
ATOM     16  C   UNL     1       9.621   2.673  24.119  0.00  0.00    +0.054 A 
ATOM     17  C   UNL     1       8.799   3.148  23.101  0.00  0.00    +0.021 A 
ATOM     18 BR   UNL     1       8.137   4.916  23.180  0.00  0.00    -0.050 Br
ATOM     19  C   UNL     1       8.450   2.330  22.026  0.00  0.00    +0.016 A 
ATOM     20  C   UNL     1       8.933   1.025  21.968  0.00  0.00    +0.009 A 
ENDBRANCH  12  13
ENDBRANCH  10  12
ENDBRANCH   8  10
ENDBRANCH   2   8
BRANCH   1  21
ATOM     21  O   UNL     1       9.154  -4.754  24.236  0.00  0.00    -0.480 OA
BRANCH  21  22
ATOM     22  C   UNL     1       8.867  -5.669  25.299  0.00  0.00    +0.349 C 
BRANCH  22  23
ATOM     23  C   UNL     1       8.513  -4.959  26.594  0.00  0.00    +0.343 C 
ATOM     24  O   UNL     1       8.740  -3.778  26.798  0.00  0.00    -0.247 OA
BRANCH  23  25
ATOM     25  O   UNL     1       7.911  -5.755  27.507  0.00  0.00    -0.478 OA
ATOM     26  H   UNL     1       7.035  -5.391  27.753  0.00  0.00    +0.295 HD
ENDBRANCH  23  25
ENDBRANCH  22  23
ENDBRANCH  21  22
ENDBRANCH   1  21
TORSDOF 8
ENDMDL
MODEL 2
REMARK VINA RESULT:      -6.7      2.435      3.677
REMARK  Name = 
REMARK  8 active torsions:
REMARK  status: ('A' for Active; 'I' for Inactive)
REMARK    1  A    between atoms: O_1  and  C_2
REMARK    2  A    between atoms: C_2  and  C_4
REMARK    3  A    between atoms: C_4  and  O_5
REMARK    4  A    between atoms: O_5  and  C_6
REMARK    5  A    between atoms: C_12  and  C_13
REMARK    6  A    between atoms: C_13  and  N_15
REMARK    7  A    between atoms: N_15  and  C_16
REMARK    8  A    between atoms: C_16  and  C_17
REMARK                            x       y       z     vdW  Elec       q    Type
REMARK                         _______ _______ _______ _____ _____    ______ ____
ROOT
ATOM      1  C   UNL     1       7.725  -1.467  25.674  0.00  0.00    +0.133 A 
ATOM      2  C   UNL     1       7.443  -1.457  24.288  0.00  0.00    +0.045 A 
ATOM      3  C   UNL     1       6.609  -0.440  23.769  0.00  0.00    +0.017 A 
ATOM      4  C   UNL     1       6.079   0.551  24.593  0.00  0.00    +0.039 A 
ATOM      5  C   UNL     1       6.410   0.556  25.939  0.00  0.00    +0.127 A 
ATOM      6  F   UNL     1       5.933   1.527  26.732  0.00  0.00    -0.205 F 
ATOM      7  C   UNL     1       7.232  -0.425  26.477  0.00  0.00    +0.084 A 
ENDROOT
BRANCH   2   8
ATOM      8  C   UNL     1       8.040  -2.421  23.300  0.00  0.00    +0.083 C 
ATOM      9  S   UNL     1       7.088  -3.328  22.249  0.00  0.00    -0.035 S 
BRANCH   8  10
ATOM     10  N   UNL     1       9.420  -2.483  23.342  0.00  0.00    -0.333 N 
ATOM     11  H   UNL     1       9.846  -3.109  24.020  0.00  0.00    +0.147 HD
BRANCH  10  12
ATOM     12  C   UNL     1      10.377  -1.687  22.585  0.00  0.00    +0.140 C 
BRANCH  12  13
ATOM     13  C   UNL     1      10.156  -0.242  22.901  0.00  0.00    +0.005 A 
ATOM     14  C   UNL     1       9.610   0.619  21.942  0.00  0.00    +0.129 A 
ATOM     15  F   UNL     1       9.240   0.135  20.747  0.00  0.00    -0.205 F 
ATOM     16  C   UNL     1       9.471   1.979  22.188  0.00  0.00    +0.054 A 
ATOM     17  C   UNL     1       9.893   2.492  23.412  0.00  0.00    +0.021 A 
ATOM     18 BR   UNL     1       9.720   4.340  23.763  0.00  0.00    -0.050 Br
ATOM     19  C   UNL     1      10.451   1.656  24.380  0.00  0.00    +0.016 A 
ATOM     20  C   UNL     1      10.585   0.294  24.121  0.00  0.00    +0.009 A 
ENDBRANCH  12  13
ENDBRANCH  10  12
ENDBRANCH   8  10
ENDBRANCH   2   8
BRANCH   1  21
ATOM     21  O   UNL     1       8.480  -2.364  26.388  0.00  0.00    -0.480 OA
BRANCH  21  22
ATOM     22  C   UNL     1       7.889  -3.617  26.748  0.00  0.00    +0.349 C 
BRANCH  22  23
ATOM     23  C   UNL     1       8.709  -4.803  26.269  0.00  0.00    +0.343 C 
ATOM     24  O   UNL     1       9.646  -4.705  25.495  0.00  0.00    -0.247 OA
BRANCH  23  25
ATOM     25  O   UNL     1       8.311  -5.987  26.786  0.00  0.00    -0.478 OA
ATOM     26  H   UNL     1       7.611  -5.848  27.458  0.00  0.00    +0.295 HD
ENDBRANCH  23  25
ENDBRANCH  22  23
ENDBRANCH  21  22
ENDBRANCH   1  21
TORSDOF 8
ENDMDL
MODEL 3
REMARK VINA RESULT:      -6.6      2.291      2.896
REMARK  Name = 
REMARK  8 active torsions:
REMARK  status: ('A' for Active; 'I' for Inactive)
REMARK    1  A    between atoms: O_1  and  C_2
REMARK    2  A    between atoms: C_2  and  C_4
REMARK    3  A    between atoms: C_4  and  O_5
REMARK    4  A    between atoms: O_5  and  C_6
REMARK    5  A    between atoms: C_12  and  C_13
REMARK    6  A    between atoms: C_13  and  N_15
REMARK    7  A    between atoms: N_15  and  C_16
REMARK    8  A    between atoms: C_16  and  C_17
REMARK                            x       y       z     vdW  Elec       q    Type
REMARK                         _______ _______ _______ _____ _____    ______ ____
ROOT
ATOM      1  C   UNL     1       6.229  -4.926  24.874  0.00  0.00    +0.133 A 
ATOM      2  C   UNL     1       7.338  -4.707  24.025  0.00  0.00    +0.045 A 
ATOM      3  C   UNL     1       7.219  -5.020  22.652  0.00  0.00    +0.017 A 
ATOM      4  C   UNL     1       6.030  -5.524  22.126  0.00  0.00    +0.039 A 
ATOM      5  C   UNL     1       4.937  -5.682  22.963  0.00  0.00    +0.127 A 
ATOM      6  F   UNL     1       3.779  -6.131  22.459  0.00  0.00    -0.205 F 
ATOM      7  C   UNL     1       5.022  -5.376  24.315  0.00  0.00    +0.084 A 
ENDROOT
BRANCH   2   8
ATOM      8  C   UNL     1       8.630  -4.080  24.472  0.00  0.00    +0.083 C 
ATOM      9  S   UNL     1       9.741  -4.907  25.429  0.00  0.00    -0.035 S 
BRANCH   8  10
ATOM     10  N   UNL     1       8.808  -2.784  24.025  0.00  0.00    -0.333 N 
ATOM     11  H   UNL     1       8.171  -2.072  24.371  0.00  0.00    +0.147 HD
BRANCH  10  12
ATOM     12  C   UNL     1       9.757  -2.301  23.031  0.00  0.00    +0.140 C 
BRANCH  12  13
ATOM     13  C   UNL     1       9.889  -0.817  23.175  0.00  0.00    +0.005 A 
ATOM     14  C   UNL     1       9.730   0.021  22.066  0.00  0.00    +0.129 A 
ATOM     15  F   UNL     1       9.412  -0.506  20.874  0.00  0.00    -0.205 F 
ATOM     16  C   UNL     1       9.928   1.392  22.162  0.00  0.00    +0.054 A 
ATOM     17  C   UNL     1      10.299   1.937  23.388  0.00  0.00    +0.021 A 
ATOM     18 BR   UNL     1      10.580   3.800  23.539  0.00  0.00    -0.050 Br
ATOM     19  C   UNL     1      10.475   1.122  24.506  0.00  0.00    +0.016 A 
ATOM     20  C   UNL     1      10.274  -0.252  24.396  0.00  0.00    +0.009 A 
ENDBRANCH  12  13
ENDBRANCH  10  12
ENDBRANCH   8  10
ENDBRANCH   2   8
BRANCH   1  21
ATOM     21  O   UNL     1       6.133  -4.719  26.228  0.00  0.00    -0.480 OA
BRANCH  21  22
ATOM     22  C   UNL     1       5.317  -5.610  26.996  0.00  0.00    +0.349 C 
BRANCH  22  23
ATOM     23  C   UNL     1       6.131  -6.445  27.971  0.00  0.00    +0.343 C 
ATOM     24  O   UNL     1       5.651  -7.320  28.671  0.00  0.00    -0.247 OA
BRANCH  23  25
ATOM     25  O   UNL     1       7.447  -6.134  27.989  0.00  0.00    -0.478 OA
ATOM     26  H   UNL     1       7.886  -6.555  28.758  0.00  0.00    +0.295 HD
ENDBRANCH  23  25
ENDBRANCH  22  23
ENDBRANCH  21  22
ENDBRANCH   1  21
TORSDOF 8
ENDMDL
MODEL 4
REMARK VINA RESULT:      -6.5      2.442      3.584
REMARK  Name = 
REMARK  8 active torsions:
REMARK  status: ('A' for Active; 'I' for Inactive)
REMARK    1  A    between atoms: O_1  and  C_2
REMARK    2  A    between atoms: C_2  and  C_4
REMARK    3  A    between atoms: C_4  and  O_5
REMARK    4  A    between atoms: O_5  and  C_6
REMARK    5  A    between atoms: C_12  and  C_13
REMARK    6  A    between atoms: C_13  and  N_15
REMARK    7  A    between atoms: N_15  and  C_16
REMARK    8  A    between atoms: C_16  and  C_17
REMARK                            x       y       z     vdW  Elec       q    Type
REMARK                         _______ _______ _______ _____ _____    ______ ____
ROOT
ATOM      1  C   UNL     1       7.476  -4.154  23.307  0.00  0.00    +0.133 A 
ATOM      2  C   UNL     1       6.845  -4.616  24.485  0.00  0.00    +0.045 A 
ATOM      3  C   UNL     1       5.813  -5.576  24.375  0.00  0.00    +0.017 A 
ATOM      4  C   UNL     1       5.423  -6.079  23.135  0.00  0.00    +0.039 A 
ATOM      5  C   UNL     1       6.089  -5.654  21.996  0.00  0.00    +0.127 A 
ATOM      6  F   UNL     1       5.744  -6.159  20.803  0.00  0.00    -0.205 F 
ATOM      7  C   UNL     1       7.111  -4.717  22.073  0.00  0.00    +0.084 A 
ENDROOT
BRANCH   2   8
ATOM      8  C   UNL     1       7.254  -4.211  25.874  0.00  0.00    +0.083 C 
ATOM      9  S   UNL     1       6.891  -5.149  27.223  0.00  0.00    -0.035 S 
BRANCH   8  10
ATOM     10  N   UNL     1       7.945  -3.015  25.929  0.00  0.00    -0.333 N 
ATOM     11  H   UNL     1       8.906  -3.006  25.600  0.00  0.00    +0.147 HD
BRANCH  10  12
ATOM     12  C   UNL     1       7.498  -1.746  26.490  0.00  0.00    +0.140 C 
BRANCH  12  13
ATOM     13  C   UNL     1       7.593  -0.693  25.432  0.00  0.00    +0.005 A 
ATOM     14  C   UNL     1       8.775   0.035  25.257  0.00  0.00    +0.129 A 
ATOM     15  F   UNL     1       9.846  -0.247  26.014  0.00  0.00    -0.205 F 
ATOM     16  C   UNL     1       8.857   1.070  24.335  0.00  0.00    +0.054 A 
ATOM     17  C   UNL     1       7.733   1.391  23.579  0.00  0.00    +0.021 A 
ATOM     18 BR   UNL     1       7.822   2.801  22.324  0.00  0.00    -0.050 Br
ATOM     19  C   UNL     1       6.539   0.689  23.742  0.00  0.00    +0.016 A 
ATOM     20  C   UNL     1       6.470  -0.347  24.670  0.00  0.00    +0.009 A 
ENDBRANCH  12  13
ENDBRANCH  10  12
ENDBRANCH   8  10
ENDBRANCH   2   8
BRANCH   1  21
ATOM     21  O   UNL     1       8.470  -3.216  23.180  0.00  0.00    -0.480 OA
BRANCH  21  22
ATOM     22  C   UNL     1       8.335  -2.212  22.168  0.00  0.00    +0.349 C 
BRANCH  22  23
ATOM     23  C   UNL     1       9.641  -1.487  21.893  0.00  0.00    +0.343 C 
ATOM     24  O   UNL     1      10.702  -1.793  22.411  0.00  0.00    -0.247 OA
BRANCH  23  25
ATOM     25  O   UNL     1       9.526  -0.469  21.011  0.00  0.00    -0.478 OA
ATOM     26  H   UNL     1      10.412  -0.170  20.716  0.00  0.00    +0.295 HD
ENDBRANCH  23  25
ENDBRANCH  22  23
ENDBRANCH  21  22
ENDBRANCH   1  21
TORSDOF 8
ENDMDL
MODEL 5
REMARK VINA RESULT:      -6.5      4.996      8.367
REMARK  Name = 
REMARK  8 active torsions:
REMARK  status: ('A' for Active; 'I' for Inactive)
REMARK    1  A    between atoms: O_1  and  C_2
REMARK    2  A    between atoms: C_2  and  C_4
REMARK    3  A    between atoms: C_4  and  O_5
REMARK    4  A    between atoms: O_5  and  C_6
REMARK    5  A    between atoms: C_12  and  C_13
REMARK    6  A    between atoms: C_13  and  N_15
REMARK    7  A    between atoms: N_15  and  C_16
REMARK    8  A    between atoms: C_16  and  C_17
REMARK                            x       y       z     vdW  Elec       q    Type
REMARK                         _______ _______ _______ _____ _____    ______ ____
ROOT
ATOM      1  C   UNL     1      10.110   4.301  23.940  0.00  0.00    +0.133 A 
ATOM      2  C   UNL     1       9.104   3.311  23.866  0.00  0.00    +0.045 A 
ATOM      3  C   UNL     1       7.912   3.493  24.605  0.00  0.00    +0.017 A 
ATOM      4  C   UNL     1       7.711   4.630  25.385  0.00  0.00    +0.039 A 
ATOM      5  C   UNL     1       8.686   5.615  25.403  0.00  0.00    +0.127 A 
ATOM      6  F   UNL     1       8.486   6.728  26.122  0.00  0.00    -0.205 F 
ATOM      7  C   UNL     1       9.865   5.468  24.683  0.00  0.00    +0.084 A 
ENDROOT
BRANCH   2   8
ATOM      8  C   UNL     1       9.180   2.097  22.982  0.00  0.00    +0.083 C 
ATOM      9  S   UNL     1       7.907   1.638  21.981  0.00  0.00    -0.035 S 
BRANCH   8  10
ATOM     10  N   UNL     1      10.376   1.411  23.075  0.00  0.00    -0.333 N 
ATOM     11  H   UNL     1      10.931   1.309  22.230  0.00  0.00    +0.147 HD
BRANCH  10  12
ATOM     12  C   UNL     1      10.925   0.718  24.233  0.00  0.00    +0.140 C 
BRANCH  12  13
ATOM     13  C   UNL     1      10.056  -0.460  24.545  0.00  0.00    +0.005 A 
ATOM     14  C   UNL     1      10.008  -1.556  23.676  0.00  0.00    +0.129 A 
ATOM     15  F   UNL     1      10.781  -1.571  22.580  0.00  0.00    -0.205 F 
ATOM     16  C   UNL     1       9.148  -2.622  23.906  0.00  0.00    +0.054 A 
ATOM     17  C   UNL     1       8.315  -2.590  25.021  0.00  0.00    +0.021 A 
ATOM     18 BR   UNL     1       7.133  -4.028  25.348  0.00  0.00    -0.050 Br
ATOM     19  C   UNL     1       8.336  -1.504  25.896  0.00  0.00    +0.016 A 
ATOM     20  C   UNL     1       9.202  -0.441  25.653  0.00  0.00    +0.009 A 
ENDBRANCH  12  13
ENDBRANCH  10  12
ENDBRANCH   8  10
ENDBRANCH   2   8
BRANCH   1  21
ATOM     21  O   UNL     1      11.342   4.317  23.335  0.00  0.00    -0.480 OA
BRANCH  21  22
ATOM     22  C   UNL     1      12.061   5.554  23.285  0.00  0.00    +0.349 C 
BRANCH  22  23
ATOM     23  C   UNL     1      13.392   5.422  22.565  0.00  0.00    +0.343 C 
ATOM     24  O   UNL     1      13.557   5.722  21.395  0.00  0.00    -0.247 OA
BRANCH  23  25
ATOM     25  O   UNL     1      14.389   4.945  23.344  0.00  0.00    -0.478 OA
ATOM     26  H   UNL     1      14.502   5.509  24.138  0.00  0.00    +0.295 HD
ENDBRANCH  23  25
ENDBRANCH  22  23
ENDBRANCH  21  22
ENDBRANCH   1  21
TORSDOF 8
ENDMDL
MODEL 6
REMARK VINA RESULT:      -6.5      2.758      3.497
REMARK  Name = 
REMARK  8 active torsions:
REMARK  status: ('A' for Active; 'I' for Inactive)
REMARK    1  A    between atoms: O_1  and  C_2
REMARK    2  A    between atoms: C_2  and  C_4
REMARK    3  A    between atoms: C_4  and  O_5
REMARK    4  A    between atoms: O_5  and  C_6
REMARK    5  A    between atoms: C_12  and  C_13
REMARK    6  A    between atoms: C_13  and  N_15
REMARK    7  A    between atoms: N_15  and  C_16
REMARK    8  A    between atoms: C_16  and  C_17
REMARK                            x       y       z     vdW  Elec       q    Type
REMARK                         _______ _______ _______ _____ _____    ______ ____
ROOT
ATOM      1  C   UNL     1       5.585  -5.505  24.343  0.00  0.00    +0.133 A 
ATOM      2  C   UNL     1       6.843  -4.882  24.514  0.00  0.00    +0.045 A 
ATOM      3  C   UNL     1       7.710  -4.779  23.402  0.00  0.00    +0.017 A 
ATOM      4  C   UNL     1       7.341  -5.266  22.149  0.00  0.00    +0.039 A 
ATOM      5  C   UNL     1       6.084  -5.825  21.988  0.00  0.00    +0.127 A 
ATOM      6  F   UNL     1       5.706  -6.263  20.778  0.00  0.00    -0.205 F 
ATOM      7  C   UNL     1       5.206  -5.934  23.060  0.00  0.00    +0.084 A 
ENDROOT
BRANCH   2   8
ATOM      8  C   UNL     1       7.297  -4.241  25.796  0.00  0.00    +0.083 C 
ATOM      9  S   UNL     1       8.788  -4.594  26.492  0.00  0.00    -0.035 S 
BRANCH   8  10
ATOM     10  N   UNL     1       6.386  -3.352  26.332  0.00  0.00    -0.333 N 
ATOM     11  H   UNL     1       5.463  -3.703  26.568  0.00  0.00    +0.147 HD
BRANCH  10  12
ATOM     12  C   UNL     1       6.542  -1.916  26.528  0.00  0.00    +0.140 C 
BRANCH  12  13
ATOM     13  C   UNL     1       7.218  -1.338  25.325  0.00  0.00    +0.005 A 
ATOM     14  C   UNL     1       8.535  -0.871  25.406  0.00  0.00    +0.129 A 
ATOM     15  F   UNL     1       9.212  -0.987  26.559  0.00  0.00    -0.205 F 
ATOM     16  C   UNL     1       9.153  -0.259  24.323  0.00  0.00    +0.054 A 
ATOM     17  C   UNL     1       8.438  -0.100  23.139  0.00  0.00    +0.021 A 
ATOM     18 BR   UNL     1       9.257   0.737  21.656  0.00  0.00    -0.050 Br
ATOM     19  C   UNL     1       7.120  -0.546  23.036  0.00  0.00    +0.016 A 
ATOM     20  C   UNL     1       6.513  -1.159  24.130  0.00  0.00    +0.009 A 
ENDBRANCH  12  13
ENDBRANCH  10  12
ENDBRANCH   8  10
ENDBRANCH   2   8
BRANCH   1  21
ATOM     21  O   UNL     1       4.608  -5.734  25.279  0.00  0.00    -0.480 OA
BRANCH  21  22
ATOM     22  C   UNL     1       4.719  -6.895  26.110  0.00  0.00    +0.349 C 
BRANCH  22  23
ATOM     23  C   UNL     1       4.996  -6.543  27.562  0.00  0.00    +0.343 C 
ATOM     24  O   UNL     1       4.864  -5.420  28.019  0.00  0.00    -0.247 OA
BRANCH  23  25
ATOM     25  O   UNL     1       5.397  -7.594  28.312  0.00  0.00    -0.478 OA
ATOM     26  H   UNL     1       4.814  -7.700  29.092  0.00  0.00    +0.295 HD
ENDBRANCH  23  25
ENDBRANCH  22  23
ENDBRANCH  21  22
ENDBRANCH   1  21
TORSDOF 8
ENDMDL
MODEL 7
REMARK VINA RESULT:      -6.4      2.986      3.704
REMARK  Name = 
REMARK  8 active torsions:
REMARK  status: ('A' for Active; 'I' for Inactive)
REMARK    1  A    between atoms: O_1  and  C_2
REMARK    2  A    between atoms: C_2  and  C_4
REMARK    3  A    between atoms: C_4  and  O_5
REMARK    4  A    between atoms: O_5  and  C_6
REMARK    5  A    between atoms: C_12  and  C_13
REMARK    6  A    between atoms: C_13  and  N_15
REMARK    7  A    between atoms: N_15  and  C_16
REMARK    8  A    between atoms: C_16  and  C_17
REMARK                            x       y       z     vdW  Elec       q    Type
REMARK                         _______ _______ _______ _____ _____    ______ ____
ROOT
ATOM      1  C   UNL     1       6.329  -4.951  25.409  0.00  0.00    +0.133 A 
ATOM      2  C   UNL     1       6.016  -5.429  24.116  0.00  0.00    +0.045 A 
ATOM      3  C   UNL     1       5.063  -6.465  23.984  0.00  0.00    +0.017 A 
ATOM      4  C   UNL     1       4.423  -7.005  25.098  0.00  0.00    +0.039 A 
ATOM      5  C   UNL     1       4.703  -6.487  26.352  0.00  0.00    +0.127 A 
ATOM      6  F   UNL     1       4.065  -6.976  27.426  0.00  0.00    -0.205 F 
ATOM      7  C   UNL     1       5.630  -5.465  26.514  0.00  0.00    +0.084 A 
ENDROOT
BRANCH   2   8
ATOM      8  C   UNL     1       6.577  -4.851  22.846  0.00  0.00    +0.083 C 
ATOM      9  S   UNL     1       6.581  -5.710  21.398  0.00  0.00    -0.035 S 
BRANCH   8  10
ATOM     10  N   UNL     1       7.077  -3.571  22.986  0.00  0.00    -0.333 N 
ATOM     11  H   UNL     1       8.024  -3.467  23.337  0.00  0.00    +0.147 HD
BRANCH  10  12
ATOM     12  C   UNL     1       6.381  -2.308  22.774  0.00  0.00    +0.140 C 
BRANCH  12  13
ATOM     13  C   UNL     1       7.367  -1.190  22.897  0.00  0.00    +0.005 A 
ATOM     14  C   UNL     1       7.029  -0.016  23.579  0.00  0.00    +0.129 A 
ATOM     15  F   UNL     1       5.829   0.088  24.168  0.00  0.00    -0.205 F 
ATOM     16  C   UNL     1       7.901   1.064  23.636  0.00  0.00    +0.054 A 
ATOM     17  C   UNL     1       9.131   0.974  22.990  0.00  0.00    +0.021 A 
ATOM     18 BR   UNL     1      10.328   2.434  23.048  0.00  0.00    -0.050 Br
ATOM     19  C   UNL     1       9.487  -0.181  22.292  0.00  0.00    +0.016 A 
ATOM     20  C   UNL     1       8.604  -1.257  22.244  0.00  0.00    +0.009 A 
ENDBRANCH  12  13
ENDBRANCH  10  12
ENDBRANCH   8  10
ENDBRANCH   2   8
BRANCH   1  21
ATOM     21  O   UNL     1       7.233  -3.982  25.769  0.00  0.00    -0.480 OA
BRANCH  21  22
ATOM     22  C   UNL     1       8.494  -4.392  26.307  0.00  0.00    +0.349 C 
BRANCH  22  23
ATOM     23  C   UNL     1       9.511  -4.708  25.223  0.00  0.00    +0.343 C 
ATOM     24  O   UNL     1       9.898  -3.890  24.405  0.00  0.00    -0.247 OA
BRANCH  23  25
ATOM     25  O   UNL     1       9.960  -5.983  25.250  0.00  0.00    -0.478 OA
ATOM     26  H   UNL     1       9.831  -6.372  26.140  0.00  0.00    +0.295 HD
ENDBRANCH  23  25
ENDBRANCH  22  23
ENDBRANCH  21  22
ENDBRANCH   1  21
TORSDOF 8
ENDMDL
MODEL 8
REMARK VINA RESULT:      -6.4      3.226      4.330
REMARK  Name = 
REMARK  8 active torsions:
REMARK  status: ('A' for Active; 'I' for Inactive)
REMARK    1  A    between atoms: O_1  and  C_2
REMARK    2  A    between atoms: C_2  and  C_4
REMARK    3  A    between atoms: C_4  and  O_5
REMARK    4  A    between atoms: O_5  and  C_6
REMARK    5  A    between atoms: C_12  and  C_13
REMARK    6  A    between atoms: C_13  and  N_15
REMARK    7  A    between atoms: N_15  and  C_16
REMARK    8  A    between atoms: C_16  and  C_17
REMARK                            x       y       z     vdW  Elec       q    Type
REMARK                         _______ _______ _______ _____ _____    ______ ____
ROOT
ATOM      1  C   UNL     1       6.325  -2.888  25.286  0.00  0.00    +0.133 A 
ATOM      2  C   UNL     1       7.139  -3.779  24.550  0.00  0.00    +0.045 A 
ATOM      3  C   UNL     1       7.643  -4.933  25.194  0.00  0.00    +0.017 A 
ATOM      4  C   UNL     1       7.339  -5.208  26.527  0.00  0.00    +0.039 A 
ATOM      5  C   UNL     1       6.496  -4.351  27.216  0.00  0.00    +0.127 A 
ATOM      6  F   UNL     1       6.170  -4.627  28.486  0.00  0.00    -0.205 F 
ATOM      7  C   UNL     1       5.980  -3.213  26.608  0.00  0.00    +0.084 A 
ENDROOT
BRANCH   2   8
ATOM      8  C   UNL     1       7.447  -3.626  23.086  0.00  0.00    +0.083 C 
ATOM      9  S   UNL     1       6.951  -4.759  21.945  0.00  0.00    -0.035 S 
BRANCH   8  10
ATOM     10  N   UNL     1       8.163  -2.484  22.781  0.00  0.00    -0.333 N 
ATOM     11  H   UNL     1       7.674  -1.729  22.310  0.00  0.00    +0.147 HD
BRANCH  10  12
ATOM     12  C   UNL     1       9.588  -2.242  22.971  0.00  0.00    +0.140 C 
BRANCH  12  13
ATOM     13  C   UNL     1       9.808  -0.770  23.122  0.00  0.00    +0.005 A 
ATOM     14  C   UNL     1       9.707   0.081  22.016  0.00  0.00    +0.129 A 
ATOM     15  F   UNL     1       9.365  -0.421  20.820  0.00  0.00    -0.205 F 
ATOM     16  C   UNL     1       9.987   1.438  22.119  0.00  0.00    +0.054 A 
ATOM     17  C   UNL     1      10.383   1.954  23.350  0.00  0.00    +0.021 A 
ATOM     18 BR   UNL     1      10.775   3.795  23.511  0.00  0.00    -0.050 Br
ATOM     19  C   UNL     1      10.503   1.125  24.466  0.00  0.00    +0.016 A 
ATOM     20  C   UNL     1      10.220  -0.234  24.348  0.00  0.00    +0.009 A 
ENDBRANCH  12  13
ENDBRANCH  10  12
ENDBRANCH   8  10
ENDBRANCH   2   8
BRANCH   1  21
ATOM     21  O   UNL     1       5.757  -1.708  24.874  0.00  0.00    -0.480 OA
BRANCH  21  22
ATOM     22  C   UNL     1       6.378  -0.479  25.266  0.00  0.00    +0.349 C 
BRANCH  22  23
ATOM     23  C   UNL     1       6.568   0.472  24.097  0.00  0.00    +0.343 C 
ATOM     24  O   UNL     1       6.919   1.633  24.224  0.00  0.00    -0.247 OA
BRANCH  23  25
ATOM     25  O   UNL     1       6.320  -0.087  22.891  0.00  0.00    -0.478 OA
ATOM     26  H   UNL     1       5.803  -0.913  22.998  0.00  0.00    +0.295 HD
ENDBRANCH  23  25
ENDBRANCH  22  23
ENDBRANCH  21  22
ENDBRANCH   1  21
TORSDOF 8
ENDMDL
MODEL 9
REMARK VINA RESULT:      -6.3      2.862      4.330
REMARK  Name = 
REMARK  8 active torsions:
REMARK  status: ('A' for Active; 'I' for Inactive)
REMARK    1  A    between atoms: O_1  and  C_2
REMARK    2  A    between atoms: C_2  and  C_4
REMARK    3  A    between atoms: C_4  and  O_5
REMARK    4  A    between atoms: O_5  and  C_6
REMARK    5  A    between atoms: C_12  and  C_13
REMARK    6  A    between atoms: C_13  and  N_15
REMARK    7  A    between atoms: N_15  and  C_16
REMARK    8  A    between atoms: C_16  and  C_17
REMARK                            x       y       z     vdW  Elec       q    Type
REMARK                         _______ _______ _______ _____ _____    ______ ____
ROOT
ATOM      1  C   UNL     1       6.644  -1.620  24.299  0.00  0.00    +0.133 A 
ATOM      2  C   UNL     1       7.853  -2.015  24.918  0.00  0.00    +0.045 A 
ATOM      3  C   UNL     1       8.106  -1.601  26.246  0.00  0.00    +0.017 A 
ATOM      4  C   UNL     1       7.184  -0.830  26.952  0.00  0.00    +0.039 A 
ATOM      5  C   UNL     1       5.982  -0.499  26.348  0.00  0.00    +0.127 A 
ATOM      6  F   UNL     1       5.074   0.212  27.033  0.00  0.00    -0.205 F 
ATOM      7  C   UNL     1       5.701  -0.896  25.047  0.00  0.00    +0.084 A 
ENDROOT
BRANCH   2   8
ATOM      8  C   UNL     1       8.868  -2.922  24.280  0.00  0.00    +0.083 C 
ATOM      9  S   UNL     1       9.421  -4.319  25.040  0.00  0.00    -0.035 S 
BRANCH   8  10
ATOM     10  N   UNL     1       9.291  -2.501  23.034  0.00  0.00    -0.333 N 
ATOM     11  H   UNL     1       8.760  -2.806  22.224  0.00  0.00    +0.147 HD
BRANCH  10  12
ATOM     12  C   UNL     1      10.482  -1.728  22.706  0.00  0.00    +0.140 C 
BRANCH  12  13
ATOM     13  C   UNL     1      10.204  -0.282  22.971  0.00  0.00    +0.005 A 
ATOM     14  C   UNL     1       9.641   0.527  21.978  0.00  0.00    +0.129 A 
ATOM     15  F   UNL     1       9.305  -0.009  20.795  0.00  0.00    -0.205 F 
ATOM     16  C   UNL     1       9.449   1.888  22.177  0.00  0.00    +0.054 A 
ATOM     17  C   UNL     1       9.835   2.455  23.389  0.00  0.00    +0.021 A 
ATOM     18 BR   UNL     1       9.589   4.306  23.677  0.00  0.00    -0.050 Br
ATOM     19  C   UNL     1      10.410   1.672  24.391  0.00  0.00    +0.016 A 
ATOM     20  C   UNL     1      10.597   0.309  24.178  0.00  0.00    +0.009 A 
ENDBRANCH  12  13
ENDBRANCH  10  12
ENDBRANCH   8  10
ENDBRANCH   2   8
BRANCH   1  21
ATOM     21  O   UNL     1       6.209  -1.882  23.024  0.00  0.00    -0.480 OA
BRANCH  21  22
ATOM     22  C   UNL     1       5.512  -3.109  22.781  0.00  0.00    +0.349 C 
BRANCH  22  23
ATOM     23  C   UNL     1       6.232  -3.994  21.777  0.00  0.00    +0.343 C 
ATOM     24  O   UNL     1       7.186  -4.698  22.062  0.00  0.00    -0.247 OA
BRANCH  23  25
ATOM     25  O   UNL     1       5.714  -3.937  20.529  0.00  0.00    -0.478 OA
ATOM     26  H   UNL     1       6.428  -3.988  19.860  0.00  0.00    +0.295 HD
ENDBRANCH  23  25
ENDBRANCH  22  23
ENDBRANCH  21  22
ENDBRANCH   1  21
TORSDOF 8
ENDMDL
