MODEL 1
REMARK VINA RESULT:      -6.8      0.000      0.000
REMARK  Name = 
REMARK  11 active torsions:
REMARK  status: ('A' for Active; 'I' for Inactive)
REMARK    1  A    between atoms: CA_2  and  C_3
REMARK    2  A    between atoms: CA_2  and  C_5
REMARK    3  A    between atoms: CA_2  and  N_7
REMARK    4  A    between atoms: C_3  and  C_4
REMARK    5  A    between atoms: C_5  and  O_6
REMARK    6  A    between atoms: N_14  and  C_15
REMARK    7  A    between atoms: C_15  and  C_16
REMARK    8  A    between atoms: C_15  and  C_17
REMARK    9  A    between atoms: C_18  and  O_19
REMARK   10  A    between atoms: O_19  and  C_20
REMARK   11  A    between atoms: C_20  and  C_21
REMARK                            x       y       z     vdW  Elec       q    Type
REMARK                         _______ _______ _______ _____ _____    ______ ____
ROOT
ATOM      1  N   UNL     1       7.267  -5.697  27.381  0.00  0.00    -0.308 N 
ATOM      2  H   UNL     1       7.988  -5.109  27.789  0.00  0.00    +0.149 HD
ATOM      3  C   UNL     1       7.222  -5.322  26.036  0.00  0.00    +0.221 A 
ATOM      4  N   UNL     1       8.327  -4.687  25.587  0.00  0.00    -0.178 NA
ATOM      5  C   UNL     1       8.372  -4.295  24.286  0.00  0.00    +0.248 A 
ATOM      6  C   UNL     1       7.287  -4.550  23.447  0.00  0.00    +0.169 A 
ATOM      7  N   UNL     1       7.039  -4.285  22.120  0.00  0.00    -0.229 NA
ATOM      8  C   UNL     1       5.835  -4.766  21.901  0.00  0.00    +0.202 A 
ATOM      9  N   UNL     1       5.287  -5.317  23.031  0.00  0.00    -0.312 N 
ATOM     10  C   UNL     1       6.216  -5.198  24.032  0.00  0.00    +0.169 A 
ATOM     11  N   UNL     1       6.125  -5.603  25.307  0.00  0.00    -0.195 NA
ENDROOT
BRANCH   9  12
ATOM     12  C   UNL     1       3.962  -5.914  23.135  0.00  0.00    +0.084 C 
ATOM     13  C   UNL     1       2.920  -4.884  23.576  0.00  0.00    +0.030 C 
ATOM     14  C   UNL     1       3.956  -7.123  24.073  0.00  0.00    +0.030 C 
ENDBRANCH   9  12
BRANCH   1  15
ATOM     15  CA  UNL     1       5.985  -5.716  28.098  0.00  0.00    +0.098 C 
BRANCH  15  16
ATOM     16  C   UNL     1       5.480  -4.264  28.299  0.00  0.00    +0.021 C 
ATOM     17  C   UNL     1       4.046  -3.999  27.853  0.00  0.00    +0.006 C 
ENDBRANCH  15  16
BRANCH  15  18
ATOM     18  C   UNL     1       6.090  -6.477  29.442  0.00  0.00    +0.178 C 
BRANCH  18  19
ATOM     19  O   UNL     1       6.814  -7.702  29.302  0.00  0.00    -0.393 OA
ATOM     20  H   UNL     1       7.143  -7.952  30.181  0.00  0.00    +0.209 HD
ENDBRANCH  18  19
ENDBRANCH  15  18
ENDBRANCH   1  15
BRANCH   5  21
ATOM     21  O   UNL     1       9.418  -3.534  23.817  0.00  0.00    -0.470 OA
BRANCH  21  22
ATOM     22  C   UNL     1       9.695  -2.381  24.603  0.00  0.00    +0.266 C 
BRANCH  22  23
ATOM     23  C   UNL     1       9.793  -1.213  23.640  0.00  0.00    -0.010 A 
ATOM     24  C   UNL     1       9.420  -1.374  22.296  0.00  0.00    +0.007 A 
ATOM     25  C   UNL     1       9.449  -0.291  21.414  0.00  0.00    +0.000 A 
ATOM     26  C   UNL     1       9.858   0.964  21.862  0.00  0.00    +0.000 A 
ATOM     27  C   UNL     1      10.240   1.133  23.189  0.00  0.00    +0.000 A 
ATOM     28  C   UNL     1      10.210   0.052  24.076  0.00  0.00    +0.007 A 
ENDBRANCH  22  23
ENDBRANCH  21  22
ENDBRANCH   5  21
TORSDOF 8
ENDMDL
MODEL 2
REMARK VINA RESULT:      -6.7      1.465      2.075
REMARK  Name = 
REMARK  11 active torsions:
REMARK  status: ('A' for Active; 'I' for Inactive)
REMARK    1  A    between atoms: CA_2  and  C_3
REMARK    2  A    between atoms: CA_2  and  C_5
REMARK    3  A    between atoms: CA_2  and  N_7
REMARK    4  A    between atoms: C_3  and  C_4
REMARK    5  A    between atoms: C_5  and  O_6
REMARK    6  A    between atoms: N_14  and  C_15
REMARK    7  A    between atoms: C_15  and  C_16
REMARK    8  A    between atoms: C_15  and  C_17
REMARK    9  A    between atoms: C_18  and  O_19
REMARK   10  A    between atoms: O_19  and  C_20
REMARK   11  A    between atoms: C_20  and  C_21
REMARK                            x       y       z     vdW  Elec       q    Type
REMARK                         _______ _______ _______ _____ _____    ______ ____
ROOT
ATOM      1  N   UNL     1       6.472  -4.652  27.823  0.00  0.00    -0.308 N 
ATOM      2  H   UNL     1       6.631  -3.868  28.449  0.00  0.00    +0.149 HD
ATOM      3  C   UNL     1       6.895  -4.199  26.571  0.00  0.00    +0.221 A 
ATOM      4  N   UNL     1       7.729  -3.135  26.605  0.00  0.00    -0.178 NA
ATOM      5  C   UNL     1       8.197  -2.635  25.431  0.00  0.00    +0.248 A 
ATOM      6  C   UNL     1       7.811  -3.219  24.225  0.00  0.00    +0.169 A 
ATOM      7  N   UNL     1       8.107  -2.948  22.908  0.00  0.00    -0.229 NA
ATOM      8  C   UNL     1       7.435  -3.846  22.221  0.00  0.00    +0.202 A 
ATOM      9  N   UNL     1       6.705  -4.676  23.034  0.00  0.00    -0.312 N 
ATOM     10  C   UNL     1       6.948  -4.293  24.328  0.00  0.00    +0.169 A 
ATOM     11  N   UNL     1       6.460  -4.821  25.460  0.00  0.00    -0.195 NA
ENDROOT
BRANCH   9  12
ATOM     12  C   UNL     1       5.837  -5.758  22.591  0.00  0.00    +0.084 C 
ATOM     13  C   UNL     1       6.023  -6.048  21.100  0.00  0.00    +0.030 C 
ATOM     14  C   UNL     1       4.366  -5.473  22.906  0.00  0.00    +0.030 C 
ENDBRANCH   9  12
BRANCH   1  15
ATOM     15  CA  UNL     1       5.132  -5.249  27.884  0.00  0.00    +0.098 C 
BRANCH  15  16
ATOM     16  C   UNL     1       4.079  -4.141  28.140  0.00  0.00    +0.021 C 
ATOM     17  C   UNL     1       2.970  -4.032  27.098  0.00  0.00    +0.006 C 
ENDBRANCH  15  16
BRANCH  15  18
ATOM     18  C   UNL     1       5.051  -6.373  28.946  0.00  0.00    +0.178 C 
BRANCH  18  19
ATOM     19  O   UNL     1       5.480  -7.631  28.419  0.00  0.00    -0.393 OA
ATOM     20  H   UNL     1       4.687  -8.171  28.263  0.00  0.00    +0.209 HD
ENDBRANCH  18  19
ENDBRANCH  15  18
ENDBRANCH   1  15
BRANCH   5  21
ATOM     21  O   UNL     1       8.942  -1.478  25.408  0.00  0.00    -0.470 OA
BRANCH  21  22
ATOM     22  C   UNL     1       8.167  -0.291  25.288  0.00  0.00    +0.266 C 
BRANCH  22  23
ATOM     23  C   UNL     1       8.821   0.546  24.205  0.00  0.00    -0.010 A 
ATOM     24  C   UNL     1       9.857   1.436  24.530  0.00  0.00    +0.007 A 
ATOM     25  C   UNL     1      10.508   2.167  23.533  0.00  0.00    +0.000 A 
ATOM     26  C   UNL     1      10.126   2.023  22.200  0.00  0.00    +0.000 A 
ATOM     27  C   UNL     1       9.093   1.153  21.868  0.00  0.00    +0.000 A 
ATOM     28  C   UNL     1       8.441   0.417  22.863  0.00  0.00    +0.007 A 
ENDBRANCH  22  23
ENDBRANCH  21  22
ENDBRANCH   5  21
TORSDOF 8
ENDMDL
MODEL 3
REMARK VINA RESULT:      -6.6      4.903      8.831
REMARK  Name = 
REMARK  11 active torsions:
REMARK  status: ('A' for Active; 'I' for Inactive)
REMARK    1  A    between atoms: CA_2  and  C_3
REMARK    2  A    between atoms: CA_2  and  C_5
REMARK    3  A    between atoms: CA_2  and  N_7
REMARK    4  A    between atoms: C_3  and  C_4
REMARK    5  A    between atoms: C_5  and  O_6
REMARK    6  A    between atoms: N_14  and  C_15
REMARK    7  A    between atoms: C_15  and  C_16
REMARK    8  A    between atoms: C_15  and  C_17
REMARK    9  A    between atoms: C_18  and  O_19
REMARK   10  A    between atoms: O_19  and  C_20
REMARK   11  A    between atoms: C_20  and  C_21
REMARK                            x       y       z     vdW  Elec       q    Type
REMARK                         _______ _______ _______ _____ _____    ______ ____
ROOT
ATOM      1  N   UNL     1      11.334   3.811  23.289  0.00  0.00    -0.308 N 
ATOM      2  H   UNL     1      11.548   3.732  22.300  0.00  0.00    +0.149 HD
ATOM      3  C   UNL     1      10.214   2.998  23.477  0.00  0.00    +0.221 A 
ATOM      4  N   UNL     1      10.015   2.075  22.510  0.00  0.00    -0.178 NA
ATOM      5  C   UNL     1       8.952   1.234  22.619  0.00  0.00    +0.248 A 
ATOM      6  C   UNL     1       8.093   1.340  23.711  0.00  0.00    +0.169 A 
ATOM      7  N   UNL     1       6.962   0.654  24.093  0.00  0.00    -0.229 NA
ATOM      8  C   UNL     1       6.591   1.219  25.221  0.00  0.00    +0.202 A 
ATOM      9  N   UNL     1       7.421   2.250  25.579  0.00  0.00    -0.312 N 
ATOM     10  C   UNL     1       8.402   2.331  24.623  0.00  0.00    +0.169 A 
ATOM     11  N   UNL     1       9.436   3.183  24.560  0.00  0.00    -0.195 NA
ENDROOT
BRANCH   9  12
ATOM     12  C   UNL     1       7.277   3.094  26.757  0.00  0.00    +0.084 C 
ATOM     13  C   UNL     1       6.446   2.402  27.839  0.00  0.00    +0.030 C 
ATOM     14  C   UNL     1       6.681   4.460  26.408  0.00  0.00    +0.030 C 
ENDBRANCH   9  12
BRANCH   1  15
ATOM     15  CA  UNL     1      11.243   5.181  23.810  0.00  0.00    +0.098 C 
BRANCH  15  16
ATOM     16  C   UNL     1      10.107   5.941  23.079  0.00  0.00    +0.021 C 
ATOM     17  C   UNL     1       9.201   6.785  23.968  0.00  0.00    +0.006 C 
ENDBRANCH  15  16
BRANCH  15  18
ATOM     18  C   UNL     1      12.594   5.929  23.702  0.00  0.00    +0.178 C 
BRANCH  18  19
ATOM     19  O   UNL     1      13.676   5.032  23.440  0.00  0.00    -0.393 OA
ATOM     20  H   UNL     1      14.280   5.472  22.818  0.00  0.00    +0.209 HD
ENDBRANCH  18  19
ENDBRANCH  15  18
ENDBRANCH   1  15
BRANCH   5  21
ATOM     21  O   UNL     1       8.636   0.367  21.598  0.00  0.00    -0.470 OA
BRANCH  21  22
ATOM     22  C   UNL     1       9.556  -0.706  21.441  0.00  0.00    +0.266 C 
BRANCH  22  23
ATOM     23  C   UNL     1       9.126  -1.791  22.410  0.00  0.00    -0.010 A 
ATOM     24  C   UNL     1       7.898  -2.449  22.232  0.00  0.00    +0.007 A 
ATOM     25  C   UNL     1       7.519  -3.492  23.082  0.00  0.00    +0.000 A 
ATOM     26  C   UNL     1       8.358  -3.884  24.123  0.00  0.00    +0.000 A 
ATOM     27  C   UNL     1       9.571  -3.232  24.316  0.00  0.00    +0.000 A 
ATOM     28  C   UNL     1       9.956  -2.190  23.466  0.00  0.00    +0.007 A 
ENDBRANCH  22  23
ENDBRANCH  21  22
ENDBRANCH   5  21
TORSDOF 8
ENDMDL
MODEL 4
REMARK VINA RESULT:      -6.6      3.067      4.388
REMARK  Name = 
REMARK  11 active torsions:
REMARK  status: ('A' for Active; 'I' for Inactive)
REMARK    1  A    between atoms: CA_2  and  C_3
REMARK    2  A    between atoms: CA_2  and  C_5
REMARK    3  A    between atoms: CA_2  and  N_7
REMARK    4  A    between atoms: C_3  and  C_4
REMARK    5  A    between atoms: C_5  and  O_6
REMARK    6  A    between atoms: N_14  and  C_15
REMARK    7  A    between atoms: C_15  and  C_16
REMARK    8  A    between atoms: C_15  and  C_17
REMARK    9  A    between atoms: C_18  and  O_19
REMARK   10  A    between atoms: O_19  and  C_20
REMARK   11  A    between atoms: C_20  and  C_21
REMARK                            x       y       z     vdW  Elec       q    Type
REMARK                         _______ _______ _______ _____ _____    ______ ____
ROOT
ATOM      1  N   UNL     1       8.408   0.081  27.071  0.00  0.00    -0.308 N 
ATOM      2  H   UNL     1       8.801   0.840  26.524  0.00  0.00    +0.149 HD
ATOM      3  C   UNL     1       8.476  -1.035  26.234  0.00  0.00    +0.221 A 
ATOM      4  N   UNL     1       9.359  -0.926  25.216  0.00  0.00    -0.178 NA
ATOM      5  C   UNL     1       9.497  -1.971  24.357  0.00  0.00    +0.248 A 
ATOM      6  C   UNL     1       8.731  -3.123  24.537  0.00  0.00    +0.169 A 
ATOM      7  N   UNL     1       8.646  -4.315  23.855  0.00  0.00    -0.229 NA
ATOM      8  C   UNL     1       7.738  -5.009  24.504  0.00  0.00    +0.202 A 
ATOM      9  N   UNL     1       7.220  -4.314  25.566  0.00  0.00    -0.312 N 
ATOM     10  C   UNL     1       7.860  -3.102  25.609  0.00  0.00    +0.169 A 
ATOM     11  N   UNL     1       7.689  -2.098  26.481  0.00  0.00    -0.195 NA
ENDROOT
BRANCH   9  12
ATOM     12  C   UNL     1       6.182  -4.786  26.473  0.00  0.00    +0.084 C 
ATOM     13  C   UNL     1       6.786  -5.434  27.721  0.00  0.00    +0.030 C 
ATOM     14  C   UNL     1       5.215  -5.749  25.778  0.00  0.00    +0.030 C 
ENDBRANCH   9  12
BRANCH   1  15
ATOM     15  CA  UNL     1       7.104   0.355  27.690  0.00  0.00    +0.098 C 
BRANCH  15  16
ATOM     16  C   UNL     1       6.244   1.218  26.731  0.00  0.00    +0.021 C 
ATOM     17  C   UNL     1       7.009   2.252  25.912  0.00  0.00    +0.006 C 
ENDBRANCH  15  16
BRANCH  15  18
ATOM     18  C   UNL     1       7.256   1.021  29.079  0.00  0.00    +0.178 C 
BRANCH  18  19
ATOM     19  O   UNL     1       8.586   0.892  29.586  0.00  0.00    -0.393 OA
ATOM     20  H   UNL     1       8.729   1.611  30.225  0.00  0.00    +0.209 HD
ENDBRANCH  18  19
ENDBRANCH  15  18
ENDBRANCH   1  15
BRANCH   5  21
ATOM     21  O   UNL     1      10.286  -1.858  23.235  0.00  0.00    -0.470 OA
BRANCH  21  22
ATOM     22  C   UNL     1       9.564  -1.570  22.044  0.00  0.00    +0.266 C 
BRANCH  22  23
ATOM     23  C   UNL     1       9.111  -0.127  22.150  0.00  0.00    -0.010 A 
ATOM     24  C   UNL     1      10.054   0.913  22.104  0.00  0.00    +0.007 A 
ATOM     25  C   UNL     1       9.644   2.249  22.140  0.00  0.00    +0.000 A 
ATOM     26  C   UNL     1       8.289   2.561  22.229  0.00  0.00    +0.000 A 
ATOM     27  C   UNL     1       7.347   1.539  22.285  0.00  0.00    +0.000 A 
ATOM     28  C   UNL     1       7.752   0.201  22.247  0.00  0.00    +0.007 A 
ENDBRANCH  22  23
ENDBRANCH  21  22
ENDBRANCH   5  21
TORSDOF 8
ENDMDL
MODEL 5
REMARK VINA RESULT:      -6.4      1.685      2.156
REMARK  Name = 
REMARK  11 active torsions:
REMARK  status: ('A' for Active; 'I' for Inactive)
REMARK    1  A    between atoms: CA_2  and  C_3
REMARK    2  A    between atoms: CA_2  and  C_5
REMARK    3  A    between atoms: CA_2  and  N_7
REMARK    4  A    between atoms: C_3  and  C_4
REMARK    5  A    between atoms: C_5  and  O_6
REMARK    6  A    between atoms: N_14  and  C_15
REMARK    7  A    between atoms: C_15  and  C_16
REMARK    8  A    between atoms: C_15  and  C_17
REMARK    9  A    between atoms: C_18  and  O_19
REMARK   10  A    between atoms: O_19  and  C_20
REMARK   11  A    between atoms: C_20  and  C_21
REMARK                            x       y       z     vdW  Elec       q    Type
REMARK                         _______ _______ _______ _____ _____    ______ ____
ROOT
ATOM      1  N   UNL     1       6.322  -2.753  26.789  0.00  0.00    -0.308 N 
ATOM      2  H   UNL     1       6.827  -1.873  26.787  0.00  0.00    +0.149 HD
ATOM      3  C   UNL     1       6.534  -3.288  25.516  0.00  0.00    +0.221 A 
ATOM      4  N   UNL     1       7.600  -2.780  24.858  0.00  0.00    -0.178 NA
ATOM      5  C   UNL     1       7.885  -3.251  23.616  0.00  0.00    +0.248 A 
ATOM      6  C   UNL     1       7.080  -4.236  23.045  0.00  0.00    +0.169 A 
ATOM      7  N   UNL     1       7.110  -4.897  21.838  0.00  0.00    -0.229 NA
ATOM      8  C   UNL     1       6.081  -5.715  21.877  0.00  0.00    +0.202 A 
ATOM      9  N   UNL     1       5.377  -5.601  23.049  0.00  0.00    -0.312 N 
ATOM     10  C   UNL     1       6.017  -4.663  23.817  0.00  0.00    +0.169 A 
ATOM     11  N   UNL     1       5.695  -4.230  25.045  0.00  0.00    -0.195 NA
ENDROOT
BRANCH   9  12
ATOM     12  C   UNL     1       4.175  -6.345  23.399  0.00  0.00    +0.084 C 
ATOM     13  C   UNL     1       2.937  -5.445  23.379  0.00  0.00    +0.030 C 
ATOM     14  C   UNL     1       4.313  -7.043  24.755  0.00  0.00    +0.030 C 
ENDBRANCH   9  12
BRANCH   1  15
ATOM     15  CA  UNL     1       4.927  -2.683  27.245  0.00  0.00    +0.098 C 
BRANCH  15  16
ATOM     16  C   UNL     1       4.596  -1.233  27.684  0.00  0.00    +0.021 C 
ATOM     17  C   UNL     1       4.989  -0.140  26.696  0.00  0.00    +0.006 C 
ENDBRANCH  15  16
BRANCH  15  18
ATOM     18  C   UNL     1       4.639  -3.703  28.373  0.00  0.00    +0.178 C 
BRANCH  18  19
ATOM     19  O   UNL     1       4.850  -5.048  27.937  0.00  0.00    -0.393 OA
ATOM     20  H   UNL     1       4.925  -5.606  28.729  0.00  0.00    +0.209 HD
ENDBRANCH  18  19
ENDBRANCH  15  18
ENDBRANCH   1  15
BRANCH   5  21
ATOM     21  O   UNL     1       8.880  -2.676  22.858  0.00  0.00    -0.470 OA
BRANCH  21  22
ATOM     22  C   UNL     1       9.971  -2.170  23.618  0.00  0.00    +0.266 C 
BRANCH  22  23
ATOM     23  C   UNL     1      10.035  -0.680  23.346  0.00  0.00    -0.010 A 
ATOM     24  C   UNL     1      10.476   0.202  24.347  0.00  0.00    +0.007 A 
ATOM     25  C   UNL     1      10.597   1.570  24.089  0.00  0.00    +0.000 A 
ATOM     26  C   UNL     1      10.273   2.074  22.831  0.00  0.00    +0.000 A 
ATOM     27  C   UNL     1       9.825   1.212  21.836  0.00  0.00    +0.000 A 
ATOM     28  C   UNL     1       9.705  -0.158  22.089  0.00  0.00    +0.007 A 
ENDBRANCH  22  23
ENDBRANCH  21  22
ENDBRANCH   5  21
TORSDOF 8
ENDMDL
MODEL 6
REMARK VINA RESULT:      -6.4      3.329      6.624
REMARK  Name = 
REMARK  11 active torsions:
REMARK  status: ('A' for Active; 'I' for Inactive)
REMARK    1  A    between atoms: CA_2  and  C_3
REMARK    2  A    between atoms: CA_2  and  C_5
REMARK    3  A    between atoms: CA_2  and  N_7
REMARK    4  A    between atoms: C_3  and  C_4
REMARK    5  A    between atoms: C_5  and  O_6
REMARK    6  A    between atoms: N_14  and  C_15
REMARK    7  A    between atoms: C_15  and  C_16
REMARK    8  A    between atoms: C_15  and  C_17
REMARK    9  A    between atoms: C_18  and  O_19
REMARK   10  A    between atoms: O_19  and  C_20
REMARK   11  A    between atoms: C_20  and  C_21
REMARK                            x       y       z     vdW  Elec       q    Type
REMARK                         _______ _______ _______ _____ _____    ______ ____
ROOT
ATOM      1  N   UNL     1       5.838  -0.015  25.676  0.00  0.00    -0.308 N 
ATOM      2  H   UNL     1       5.622  -0.573  26.496  0.00  0.00    +0.149 HD
ATOM      3  C   UNL     1       6.921  -0.664  25.078  0.00  0.00    +0.221 A 
ATOM      4  N   UNL     1       7.081  -1.955  25.445  0.00  0.00    -0.178 NA
ATOM      5  C   UNL     1       8.105  -2.666  24.903  0.00  0.00    +0.248 A 
ATOM      6  C   UNL     1       8.967  -2.056  23.992  0.00  0.00    +0.169 A 
ATOM      7  N   UNL     1      10.066  -2.499  23.291  0.00  0.00    -0.229 NA
ATOM      8  C   UNL     1      10.461  -1.458  22.593  0.00  0.00    +0.202 A 
ATOM      9  N   UNL     1       9.676  -0.356  22.821  0.00  0.00    -0.312 N 
ATOM     10  C   UNL     1       8.701  -0.730  23.710  0.00  0.00    +0.169 A 
ATOM     11  N   UNL     1       7.705   0.011  24.218  0.00  0.00    -0.195 NA
ENDROOT
BRANCH   9  12
ATOM     12  C   UNL     1       9.856   0.960  22.225  0.00  0.00    +0.084 C 
ATOM     13  C   UNL     1      10.253   1.999  23.276  0.00  0.00    +0.030 C 
ATOM     14  C   UNL     1       8.608   1.414  21.462  0.00  0.00    +0.030 C 
ENDBRANCH   9  12
BRANCH   1  15
ATOM     15  CA  UNL     1       5.990   1.427  25.913  0.00  0.00    +0.098 C 
BRANCH  15  16
ATOM     16  C   UNL     1       5.840   1.724  27.427  0.00  0.00    +0.021 C 
ATOM     17  C   UNL     1       5.526   0.518  28.306  0.00  0.00    +0.006 C 
ENDBRANCH  15  16
BRANCH  15  18
ATOM     18  C   UNL     1       4.994   2.256  25.065  0.00  0.00    +0.178 C 
BRANCH  18  19
ATOM     19  O   UNL     1       4.943   1.800  23.711  0.00  0.00    -0.393 OA
ATOM     20  H   UNL     1       4.010   1.643  23.488  0.00  0.00    +0.209 HD
ENDBRANCH  18  19
ENDBRANCH  15  18
ENDBRANCH   1  15
BRANCH   5  21
ATOM     21  O   UNL     1       8.384  -3.940  25.341  0.00  0.00    -0.470 OA
BRANCH  21  22
ATOM     22  C   UNL     1       7.233  -4.751  25.540  0.00  0.00    +0.266 C 
BRANCH  22  23
ATOM     23  C   UNL     1       6.769  -5.192  24.165  0.00  0.00    -0.010 A 
ATOM     24  C   UNL     1       5.398  -5.256  23.870  0.00  0.00    +0.007 A 
ATOM     25  C   UNL     1       4.960  -5.602  22.588  0.00  0.00    +0.000 A 
ATOM     26  C   UNL     1       5.887  -5.895  21.590  0.00  0.00    +0.000 A 
ATOM     27  C   UNL     1       7.248  -5.845  21.874  0.00  0.00    +0.000 A 
ATOM     28  C   UNL     1       7.690  -5.497  23.154  0.00  0.00    +0.007 A 
ENDBRANCH  22  23
ENDBRANCH  21  22
ENDBRANCH   5  21
TORSDOF 8
ENDMDL
MODEL 7
REMARK VINA RESULT:      -6.2      3.716      7.583
REMARK  Name = 
REMARK  11 active torsions:
REMARK  status: ('A' for Active; 'I' for Inactive)
REMARK    1  A    between atoms: CA_2  and  C_3
REMARK    2  A    between atoms: CA_2  and  C_5
REMARK    3  A    between atoms: CA_2  and  N_7
REMARK    4  A    between atoms: C_3  and  C_4
REMARK    5  A    between atoms: C_5  and  O_6
REMARK    6  A    between atoms: N_14  and  C_15
REMARK    7  A    between atoms: C_15  and  C_16
REMARK    8  A    between atoms: C_15  and  C_17
REMARK    9  A    between atoms: C_18  and  O_19
REMARK   10  A    between atoms: O_19  and  C_20
REMARK   11  A    between atoms: C_20  and  C_21
REMARK                            x       y       z     vdW  Elec       q    Type
REMARK                         _______ _______ _______ _____ _____    ______ ____
ROOT
ATOM      1  N   UNL     1      10.456   0.947  24.153  0.00  0.00    -0.308 N 
ATOM      2  H   UNL     1      10.955   0.224  23.644  0.00  0.00    +0.149 HD
ATOM      3  C   UNL     1       9.430   0.272  24.818  0.00  0.00    +0.221 A 
ATOM      4  N   UNL     1       9.628  -1.058  24.961  0.00  0.00    -0.178 NA
ATOM      5  C   UNL     1       8.683  -1.792  25.607  0.00  0.00    +0.248 A 
ATOM      6  C   UNL     1       7.538  -1.169  26.100  0.00  0.00    +0.169 A 
ATOM      7  N   UNL     1       6.432  -1.628  26.779  0.00  0.00    -0.229 NA
ATOM      8  C   UNL     1       5.687  -0.562  26.969  0.00  0.00    +0.202 A 
ATOM      9  N   UNL     1       6.254   0.565  26.430  0.00  0.00    -0.312 N 
ATOM     10  C   UNL     1       7.453   0.192  25.880  0.00  0.00    +0.169 A 
ATOM     11  N   UNL     1       8.356   0.958  25.250  0.00  0.00    -0.195 NA
ENDROOT
BRANCH   9  12
ATOM     12  C   UNL     1       5.679   1.903  26.447  0.00  0.00    +0.084 C 
ATOM     13  C   UNL     1       4.777   2.107  27.666  0.00  0.00    +0.030 C 
ATOM     14  C   UNL     1       4.917   2.210  25.155  0.00  0.00    +0.030 C 
ENDBRANCH   9  12
BRANCH   1  15
ATOM     15  CA  UNL     1      10.061   2.120  23.362  0.00  0.00    +0.098 C 
BRANCH  15  16
ATOM     16  C   UNL     1       9.774   1.690  21.900  0.00  0.00    +0.021 C 
ATOM     17  C   UNL     1       8.300   1.607  21.516  0.00  0.00    +0.006 C 
ENDBRANCH  15  16
BRANCH  15  18
ATOM     18  C   UNL     1      11.123   3.244  23.430  0.00  0.00    +0.178 C 
BRANCH  18  19
ATOM     19  O   UNL     1      10.524   4.542  23.394  0.00  0.00    -0.393 OA
ATOM     20  H   UNL     1      10.750   4.948  22.540  0.00  0.00    +0.209 HD
ENDBRANCH  18  19
ENDBRANCH  15  18
ENDBRANCH   1  15
BRANCH   5  21
ATOM     21  O   UNL     1       8.778  -3.164  25.664  0.00  0.00    -0.470 OA
BRANCH  21  22
ATOM     22  C   UNL     1       8.974  -3.786  24.399  0.00  0.00    +0.266 C 
BRANCH  22  23
ATOM     23  C   UNL     1       7.732  -4.612  24.125  0.00  0.00    -0.010 A 
ATOM     24  C   UNL     1       6.852  -4.931  25.172  0.00  0.00    +0.007 A 
ATOM     25  C   UNL     1       5.674  -5.639  24.921  0.00  0.00    +0.000 A 
ATOM     26  C   UNL     1       5.365  -6.045  23.624  0.00  0.00    +0.000 A 
ATOM     27  C   UNL     1       6.235  -5.744  22.581  0.00  0.00    +0.000 A 
ATOM     28  C   UNL     1       7.414  -5.033  22.827  0.00  0.00    +0.007 A 
ENDBRANCH  22  23
ENDBRANCH  21  22
ENDBRANCH   5  21
TORSDOF 8
ENDMDL
MODEL 8
REMARK VINA RESULT:      -6.2      4.643      8.171
REMARK  Name = 
REMARK  11 active torsions:
REMARK  status: ('A' for Active; 'I' for Inactive)
REMARK    1  A    between atoms: CA_2  and  C_3
REMARK    2  A    between atoms: CA_2  and  C_5
REMARK    3  A    between atoms: CA_2  and  N_7
REMARK    4  A    between atoms: C_3  and  C_4
REMARK    5  A    between atoms: C_5  and  O_6
REMARK    6  A    between atoms: N_14  and  C_15
REMARK    7  A    between atoms: C_15  and  C_16
REMARK    8  A    between atoms: C_15  and  C_17
REMARK    9  A    between atoms: C_18  and  O_19
REMARK   10  A    between atoms: O_19  and  C_20
REMARK   11  A    between atoms: C_20  and  C_21
REMARK                            x       y       z     vdW  Elec       q    Type
REMARK                         _______ _______ _______ _____ _____    ______ ____
ROOT
ATOM      1  N   UNL     1       9.220   3.766  23.449  0.00  0.00    -0.308 N 
ATOM      2  H   UNL     1       9.665   3.436  22.598  0.00  0.00    +0.149 HD
ATOM      3  C   UNL     1       9.016   2.614  24.213  0.00  0.00    +0.221 A 
ATOM      4  N   UNL     1       9.786   1.559  23.865  0.00  0.00    -0.178 NA
ATOM      5  C   UNL     1       9.660   0.400  24.563  0.00  0.00    +0.248 A 
ATOM      6  C   UNL     1       8.745   0.318  25.612  0.00  0.00    +0.169 A 
ATOM      7  N   UNL     1       8.395  -0.689  26.483  0.00  0.00    -0.229 NA
ATOM      8  C   UNL     1       7.465  -0.163  27.249  0.00  0.00    +0.202 A 
ATOM      9  N   UNL     1       7.186   1.134  26.904  0.00  0.00    -0.312 N 
ATOM     10  C   UNL     1       8.012   1.463  25.860  0.00  0.00    +0.169 A 
ATOM     11  N   UNL     1       8.101   2.628  25.200  0.00  0.00    -0.195 NA
ENDROOT
BRANCH   9  12
ATOM     12  C   UNL     1       6.193   1.993  27.536  0.00  0.00    +0.084 C 
ATOM     13  C   UNL     1       6.823   2.863  28.626  0.00  0.00    +0.030 C 
ATOM     14  C   UNL     1       5.020   1.186  28.099  0.00  0.00    +0.030 C 
ENDBRANCH   9  12
BRANCH   1  15
ATOM     15  CA  UNL     1       8.053   4.637  23.256  0.00  0.00    +0.098 C 
BRANCH  15  16
ATOM     16  C   UNL     1       7.183   4.092  22.094  0.00  0.00    +0.021 C 
ATOM     17  C   UNL     1       5.803   3.578  22.491  0.00  0.00    +0.006 C 
ENDBRANCH  15  16
BRANCH  15  18
ATOM     18  C   UNL     1       8.468   6.110  23.019  0.00  0.00    +0.178 C 
BRANCH  18  19
ATOM     19  O   UNL     1       9.890   6.261  22.990  0.00  0.00    -0.393 OA
ATOM     20  H   UNL     1      10.160   6.329  22.059  0.00  0.00    +0.209 HD
ENDBRANCH  18  19
ENDBRANCH  15  18
ENDBRANCH   1  15
BRANCH   5  21
ATOM     21  O   UNL     1      10.327  -0.736  24.165  0.00  0.00    -0.470 OA
BRANCH  21  22
ATOM     22  C   UNL     1       9.881  -1.266  22.922  0.00  0.00    +0.266 C 
BRANCH  22  23
ATOM     23  C   UNL     1       9.073  -2.508  23.245  0.00  0.00    -0.010 A 
ATOM     24  C   UNL     1       7.963  -2.852  22.456  0.00  0.00    +0.007 A 
ATOM     25  C   UNL     1       7.247  -4.026  22.706  0.00  0.00    +0.000 A 
ATOM     26  C   UNL     1       7.626  -4.865  23.752  0.00  0.00    +0.000 A 
ATOM     27  C   UNL     1       8.718  -4.529  24.546  0.00  0.00    +0.000 A 
ATOM     28  C   UNL     1       9.439  -3.357  24.298  0.00  0.00    +0.007 A 
ENDBRANCH  22  23
ENDBRANCH  21  22
ENDBRANCH   5  21
TORSDOF 8
ENDMDL
MODEL 9
REMARK VINA RESULT:      -6.1      5.144      8.777
REMARK  Name = 
REMARK  11 active torsions:
REMARK  status: ('A' for Active; 'I' for Inactive)
REMARK    1  A    between atoms: CA_2  and  C_3
REMARK    2  A    between atoms: CA_2  and  C_5
REMARK    3  A    between atoms: CA_2  and  N_7
REMARK    4  A    between atoms: C_3  and  C_4
REMARK    5  A    between atoms: C_5  and  O_6
REMARK    6  A    between atoms: N_14  and  C_15
REMARK    7  A    between atoms: C_15  and  C_16
REMARK    8  A    between atoms: C_15  and  C_17
REMARK    9  A    between atoms: C_18  and  O_19
REMARK   10  A    between atoms: O_19  and  C_20
REMARK   11  A    between atoms: C_20  and  C_21
REMARK                            x       y       z     vdW  Elec       q    Type
REMARK                         _______ _______ _______ _____ _____    ______ ____
ROOT
ATOM      1  N   UNL     1       5.552   2.183  22.649  0.00  0.00    -0.308 N 
ATOM      2  H   UNL     1       5.387   1.182  22.662  0.00  0.00    +0.149 HD
ATOM      3  C   UNL     1       6.932   2.319  22.821  0.00  0.00    +0.221 A 
ATOM      4  N   UNL     1       7.650   1.210  22.530  0.00  0.00    -0.178 NA
ATOM      5  C   UNL     1       9.002   1.257  22.660  0.00  0.00    +0.248 A 
ATOM      6  C   UNL     1       9.618   2.432  23.089  0.00  0.00    +0.169 A 
ATOM      7  N   UNL     1      10.931   2.782  23.313  0.00  0.00    -0.229 NA
ATOM      8  C   UNL     1      10.881   4.033  23.714  0.00  0.00    +0.202 A 
ATOM      9  N   UNL     1       9.594   4.504  23.776  0.00  0.00    -0.312 N 
ATOM     10  C   UNL     1       8.771   3.488  23.362  0.00  0.00    +0.169 A 
ATOM     11  N   UNL     1       7.434   3.491  23.250  0.00  0.00    -0.195 NA
ENDROOT
BRANCH   9  12
ATOM     12  C   UNL     1       9.191   5.837  24.202  0.00  0.00    +0.084 C 
ATOM     13  C   UNL     1       8.600   6.638  23.041  0.00  0.00    +0.030 C 
ATOM     14  C   UNL     1      10.348   6.600  24.851  0.00  0.00    +0.030 C 
ENDBRANCH   9  12
BRANCH   1  15
ATOM     15  CA  UNL     1       4.701   2.978  23.546  0.00  0.00    +0.098 C 
BRANCH  15  16
ATOM     16  C   UNL     1       4.509   2.222  24.886  0.00  0.00    +0.021 C 
ATOM     17  C   UNL     1       5.050   2.928  26.124  0.00  0.00    +0.006 C 
ENDBRANCH  15  16
BRANCH  15  18
ATOM     18  C   UNL     1       3.345   3.331  22.887  0.00  0.00    +0.178 C 
BRANCH  18  19
ATOM     19  O   UNL     1       3.519   3.883  21.580  0.00  0.00    -0.393 OA
ATOM     20  H   UNL     1       2.855   4.583  21.465  0.00  0.00    +0.209 HD
ENDBRANCH  18  19
ENDBRANCH  15  18
ENDBRANCH   1  15
BRANCH   5  21
ATOM     21  O   UNL     1       9.763   0.121  22.501  0.00  0.00    -0.470 OA
BRANCH  21  22
ATOM     22  C   UNL     1       9.166  -0.865  21.667  0.00  0.00    +0.266 C 
BRANCH  22  23
ATOM     23  C   UNL     1       8.912  -2.078  22.542  0.00  0.00    -0.010 A 
ATOM     24  C   UNL     1       9.785  -2.377  23.601  0.00  0.00    +0.007 A 
ATOM     25  C   UNL     1       9.529  -3.456  24.452  0.00  0.00    +0.000 A 
ATOM     26  C   UNL     1       8.403  -4.252  24.251  0.00  0.00    +0.000 A 
ATOM     27  C   UNL     1       7.537  -3.971  23.199  0.00  0.00    +0.000 A 
ATOM     28  C   UNL     1       7.788  -2.891  22.346  0.00  0.00    +0.007 A 
ENDBRANCH  22  23
ENDBRANCH  21  22
ENDBRANCH   5  21
TORSDOF 8
ENDMDL
