MODEL 1
REMARK VINA RESULT:      -7.7      0.000      0.000
REMARK  Name = 
REMARK  8 active torsions:
REMARK  status: ('A' for Active; 'I' for Inactive)
REMARK    1  A    between atoms: C_4  and  C_5
REMARK    2  A    between atoms: C_4  and  C_6
REMARK    3  A    between atoms: CA_7  and  C_26
REMARK    4  A    between atoms: CA_12  and  N_14
REMARK    5  A    between atoms: C_15  and  CA_17
REMARK    6  A    between atoms: CA_17  and  N_19
REMARK    7  A    between atoms: CA_17  and  C_20
REMARK    8  A    between atoms: C_26  and  O_27
REMARK                            x       y       z     vdW  Elec       q    Type
REMARK                         _______ _______ _______ _____ _____    ______ ____
ROOT
ATOM      1  C   UNL     1       7.518  -1.213  22.676  0.00  0.00    +0.165 C 
ATOM      2  CA  UNL     1       7.978  -2.667  22.962  0.00  0.00    +0.190 C 
ATOM      3  C   UNL     1       9.402  -2.093  22.760  0.00  0.00    +0.240 C 
ATOM      4  O   UNL     1      10.537  -2.422  23.025  0.00  0.00    -0.273 OA
ATOM      5  N   UNL     1       8.915  -0.891  22.314  0.00  0.00    -0.271 N 
ATOM      6  CA  UNL     1       9.464   0.365  22.859  0.00  0.00    +0.201 C 
ATOM      7  C   UNL     1       8.816   0.583  24.249  0.00  0.00    +0.042 C 
ATOM      8  C   UNL     1       9.550  -0.201  25.356  0.00  0.00    +0.025 C 
ATOM      9  C   UNL     1       8.724   2.038  24.718  0.00  0.00    +0.025 C 
ATOM     10  S   UNL     1       7.116  -0.136  24.113  0.00  0.00    -0.127 S 
ENDROOT
BRANCH   2  11
ATOM     11  N   UNL     1       7.645  -3.221  24.289  0.00  0.00    -0.300 N 
ATOM     12  H   UNL     1       6.994  -2.766  24.927  0.00  0.00    +0.150 HD
ATOM     13  C   UNL     1       7.958  -4.523  24.618  0.00  0.00    +0.235 C 
ATOM     14  O   UNL     1       8.626  -5.245  23.879  0.00  0.00    -0.274 OA
BRANCH  13  15
ATOM     15  CA  UNL     1       7.404  -4.983  25.985  0.00  0.00    +0.168 C 
BRANCH  15  16
ATOM     16  C   UNL     1       6.083  -5.711  25.830  0.00  0.00    -0.022 A 
ATOM     17  C   UNL     1       5.481  -5.912  24.577  0.00  0.00    +0.005 A 
ATOM     18  C   UNL     1       4.265  -6.592  24.468  0.00  0.00    +0.000 A 
ATOM     19  C   UNL     1       3.627  -7.065  25.611  0.00  0.00    +0.000 A 
ATOM     20  C   UNL     1       4.196  -6.851  26.864  0.00  0.00    +0.000 A 
ATOM     21  C   UNL     1       5.413  -6.175  26.974  0.00  0.00    +0.005 A 
ENDBRANCH  15  16
BRANCH  15  22
ATOM     22  N   UNL     1       8.429  -5.806  26.685  0.00  0.00    -0.316 NA
ATOM     23  H1  UNL     1       8.068  -6.018  27.618  0.00  0.00    +0.119 HD
ATOM     24  H2  UNL     1       8.466  -6.707  26.204  0.00  0.00    +0.119 HD
ENDBRANCH  15  22
ENDBRANCH  13  15
ENDBRANCH   2  11
BRANCH   6  25
ATOM     25  C   UNL     1       9.215   1.479  21.822  0.00  0.00    +0.327 C 
ATOM     26  OXT UNL     1       8.140   1.719  21.292  0.00  0.00    -0.249 OA
BRANCH  25  27
ATOM     27  O   UNL     1      10.302   2.263  21.599  0.00  0.00    -0.479 OA
ATOM     28  H   UNL     1      11.120   1.789  21.852  0.00  0.00    +0.295 HD
ENDBRANCH  25  27
ENDBRANCH   6  25
TORSDOF 6
ENDMDL
MODEL 2
REMARK VINA RESULT:      -7.1      2.337      7.105
REMARK  Name = 
REMARK  8 active torsions:
REMARK  status: ('A' for Active; 'I' for Inactive)
REMARK    1  A    between atoms: C_4  and  C_5
REMARK    2  A    between atoms: C_4  and  C_6
REMARK    3  A    between atoms: CA_7  and  C_26
REMARK    4  A    between atoms: CA_12  and  N_14
REMARK    5  A    between atoms: C_15  and  CA_17
REMARK    6  A    between atoms: CA_17  and  N_19
REMARK    7  A    between atoms: CA_17  and  C_20
REMARK    8  A    between atoms: C_26  and  O_27
REMARK                            x       y       z     vdW  Elec       q    Type
REMARK                         _______ _______ _______ _____ _____    ______ ____
ROOT
ATOM      1  C   UNL     1       7.566  -4.898  25.601  0.00  0.00    +0.165 C 
ATOM      2  CA  UNL     1       8.588  -4.231  24.642  0.00  0.00    +0.190 C 
ATOM      3  C   UNL     1       7.639  -4.736  23.527  0.00  0.00    +0.240 C 
ATOM      4  O   UNL     1       7.439  -4.495  22.357  0.00  0.00    -0.273 OA
ATOM      5  N   UNL     1       6.900  -5.476  24.413  0.00  0.00    -0.271 N 
ATOM      6  CA  UNL     1       5.427  -5.393  24.380  0.00  0.00    +0.201 C 
ATOM      7  C   UNL     1       5.025  -4.079  25.094  0.00  0.00    +0.042 C 
ATOM      8  C   UNL     1       5.100  -2.863  24.147  0.00  0.00    +0.025 C 
ATOM      9  C   UNL     1       3.631  -4.067  25.727  0.00  0.00    +0.025 C 
ATOM     10  S   UNL     1       6.307  -3.823  26.404  0.00  0.00    -0.127 S 
ENDROOT
BRANCH   2  11
ATOM     11  N   UNL     1       8.771  -2.773  24.777  0.00  0.00    -0.300 N 
ATOM     12  H   UNL     1       8.332  -2.229  25.518  0.00  0.00    +0.150 HD
ATOM     13  C   UNL     1       9.777  -2.114  24.099  0.00  0.00    +0.235 C 
ATOM     14  O   UNL     1      10.486  -2.677  23.268  0.00  0.00    -0.274 OA
BRANCH  13  15
ATOM     15  CA  UNL     1       9.920  -0.621  24.471  0.00  0.00    +0.168 C 
BRANCH  15  16
ATOM     16  C   UNL     1       9.184   0.266  23.485  0.00  0.00    -0.022 A 
ATOM     17  C   UNL     1       7.826   0.590  23.638  0.00  0.00    +0.005 A 
ATOM     18  C   UNL     1       7.179   1.414  22.714  0.00  0.00    +0.000 A 
ATOM     19  C   UNL     1       7.876   1.912  21.616  0.00  0.00    +0.000 A 
ATOM     20  C   UNL     1       9.216   1.578  21.434  0.00  0.00    +0.000 A 
ATOM     21  C   UNL     1       9.865   0.757  22.359  0.00  0.00    +0.005 A 
ENDBRANCH  15  16
BRANCH  15  22
ATOM     22  N   UNL     1       9.467  -0.413  25.874  0.00  0.00    -0.316 NA
ATOM     23  H1  UNL     1      10.273  -0.081  26.411  0.00  0.00    +0.119 HD
ATOM     24  H2  UNL     1       8.815   0.374  25.862  0.00  0.00    +0.119 HD
ENDBRANCH  15  22
ENDBRANCH  13  15
ENDBRANCH   2  11
BRANCH   6  25
ATOM     25  C   UNL     1       4.867  -6.689  25.000  0.00  0.00    +0.327 C 
ATOM     26  OXT UNL     1       4.920  -6.982  26.185  0.00  0.00    -0.249 OA
BRANCH  25  27
ATOM     27  O   UNL     1       4.205  -7.473  24.109  0.00  0.00    -0.479 OA
ATOM     28  H   UNL     1       4.793  -7.711  23.363  0.00  0.00    +0.295 HD
ENDBRANCH  25  27
ENDBRANCH   6  25
TORSDOF 6
ENDMDL
MODEL 3
REMARK VINA RESULT:      -7.0      1.384      1.597
REMARK  Name = 
REMARK  8 active torsions:
REMARK  status: ('A' for Active; 'I' for Inactive)
REMARK    1  A    between atoms: C_4  and  C_5
REMARK    2  A    between atoms: C_4  and  C_6
REMARK    3  A    between atoms: CA_7  and  C_26
REMARK    4  A    between atoms: CA_12  and  N_14
REMARK    5  A    between atoms: C_15  and  CA_17
REMARK    6  A    between atoms: CA_17  and  N_19
REMARK    7  A    between atoms: CA_17  and  C_20
REMARK    8  A    between atoms: C_26  and  O_27
REMARK                            x       y       z     vdW  Elec       q    Type
REMARK                         _______ _______ _______ _____ _____    ______ ____
ROOT
ATOM      1  C   UNL     1       8.776  -1.326  22.897  0.00  0.00    +0.165 C 
ATOM      2  CA  UNL     1       9.516  -2.036  24.062  0.00  0.00    +0.190 C 
ATOM      3  C   UNL     1      10.014  -0.612  24.411  0.00  0.00    +0.240 C 
ATOM      4  O   UNL     1      10.500  -0.053  25.369  0.00  0.00    -0.273 OA
ATOM      5  N   UNL     1       9.508  -0.089  23.249  0.00  0.00    -0.271 N 
ATOM      6  CA  UNL     1       8.716   1.154  23.294  0.00  0.00    +0.201 C 
ATOM      7  C   UNL     1       7.294   0.775  23.779  0.00  0.00    +0.042 C 
ATOM      8  C   UNL     1       7.216   0.687  25.317  0.00  0.00    +0.025 C 
ATOM      9  C   UNL     1       6.168   1.709  23.327  0.00  0.00    +0.025 C 
ATOM     10  S   UNL     1       6.993  -0.929  23.123  0.00  0.00    -0.127 S 
ENDROOT
BRANCH   2  11
ATOM     11  N   UNL     1       8.676  -2.731  25.057  0.00  0.00    -0.300 N 
ATOM     12  H   UNL     1       7.859  -2.299  25.486  0.00  0.00    +0.150 HD
ATOM     13  C   UNL     1       8.767  -4.096  25.238  0.00  0.00    +0.235 C 
ATOM     14  O   UNL     1       9.621  -4.778  24.676  0.00  0.00    -0.274 OA
BRANCH  13  15
ATOM     15  CA  UNL     1       7.713  -4.678  26.208  0.00  0.00    +0.168 C 
BRANCH  15  16
ATOM     16  C   UNL     1       6.581  -5.349  25.454  0.00  0.00    -0.022 A 
ATOM     17  C   UNL     1       6.413  -5.202  24.067  0.00  0.00    +0.005 A 
ATOM     18  C   UNL     1       5.361  -5.838  23.404  0.00  0.00    +0.000 A 
ATOM     19  C   UNL     1       4.454  -6.615  24.118  0.00  0.00    +0.000 A 
ATOM     20  C   UNL     1       4.589  -6.750  25.498  0.00  0.00    +0.000 A 
ATOM     21  C   UNL     1       5.642  -6.118  26.162  0.00  0.00    +0.005 A 
ENDBRANCH  15  16
BRANCH  15  22
ATOM     22  N   UNL     1       8.380  -5.598  27.171  0.00  0.00    -0.316 NA
ATOM     23  H1  UNL     1       8.144  -6.555  26.896  0.00  0.00    +0.119 HD
ATOM     24  H2  UNL     1       9.386  -5.517  27.012  0.00  0.00    +0.119 HD
ENDBRANCH  15  22
ENDBRANCH  13  15
ENDBRANCH   2  11
BRANCH   6  25
ATOM     25  C   UNL     1       8.794   1.815  21.903  0.00  0.00    +0.327 C 
ATOM     26  OXT UNL     1       7.847   1.981  21.148  0.00  0.00    -0.249 OA
BRANCH  25  27
ATOM     27  O   UNL     1      10.027   2.300  21.602  0.00  0.00    -0.479 OA
ATOM     28  H   UNL     1      10.619   2.228  22.379  0.00  0.00    +0.295 HD
ENDBRANCH  25  27
ENDBRANCH   6  25
TORSDOF 6
ENDMDL
MODEL 4
REMARK VINA RESULT:      -6.9      2.187      3.162
REMARK  Name = 
REMARK  8 active torsions:
REMARK  status: ('A' for Active; 'I' for Inactive)
REMARK    1  A    between atoms: C_4  and  C_5
REMARK    2  A    between atoms: C_4  and  C_6
REMARK    3  A    between atoms: CA_7  and  C_26
REMARK    4  A    between atoms: CA_12  and  N_14
REMARK    5  A    between atoms: C_15  and  CA_17
REMARK    6  A    between atoms: CA_17  and  N_19
REMARK    7  A    between atoms: CA_17  and  C_20
REMARK    8  A    between atoms: C_26  and  O_27
REMARK                            x       y       z     vdW  Elec       q    Type
REMARK                         _______ _______ _______ _____ _____    ______ ____
ROOT
ATOM      1  C   UNL     1       9.386  -0.660  25.394  0.00  0.00    +0.165 C 
ATOM      2  CA  UNL     1       8.256  -1.386  26.171  0.00  0.00    +0.190 C 
ATOM      3  C   UNL     1       7.332  -0.341  25.498  0.00  0.00    +0.240 C 
ATOM      4  O   UNL     1       6.147  -0.216  25.279  0.00  0.00    -0.273 OA
ATOM      5  N   UNL     1       8.397   0.373  25.014  0.00  0.00    -0.271 N 
ATOM      6  CA  UNL     1       8.406   0.804  23.603  0.00  0.00    +0.201 C 
ATOM      7  C   UNL     1       8.802  -0.426  22.750  0.00  0.00    +0.042 C 
ATOM      8  C   UNL     1       7.592  -1.334  22.451  0.00  0.00    +0.025 C 
ATOM      9  C   UNL     1       9.471  -0.115  21.408  0.00  0.00    +0.025 C 
ATOM     10  S   UNL     1       9.962  -1.403  23.812  0.00  0.00    -0.127 S 
ENDROOT
BRANCH   2  11
ATOM     11  N   UNL     1       8.033  -2.808  25.844  0.00  0.00    -0.300 N 
ATOM     12  H   UNL     1       8.722  -3.374  25.350  0.00  0.00    +0.150 HD
ATOM     13  C   UNL     1       7.022  -3.528  26.446  0.00  0.00    +0.235 C 
ATOM     14  O   UNL     1       6.190  -3.003  27.184  0.00  0.00    -0.274 OA
BRANCH  13  15
ATOM     15  CA  UNL     1       7.026  -5.035  26.104  0.00  0.00    +0.168 C 
BRANCH  15  16
ATOM     16  C   UNL     1       6.684  -5.271  24.645  0.00  0.00    -0.022 A 
ATOM     17  C   UNL     1       7.664  -5.296  23.639  0.00  0.00    +0.005 A 
ATOM     18  C   UNL     1       7.315  -5.520  22.306  0.00  0.00    +0.000 A 
ATOM     19  C   UNL     1       5.980  -5.706  21.956  0.00  0.00    +0.000 A 
ATOM     20  C   UNL     1       4.992  -5.657  22.936  0.00  0.00    +0.000 A 
ATOM     21  C   UNL     1       5.340  -5.437  24.271  0.00  0.00    +0.005 A 
ENDBRANCH  15  16
BRANCH  15  22
ATOM     22  N   UNL     1       8.338  -5.628  26.484  0.00  0.00    -0.316 NA
ATOM     23  H1  UNL     1       8.346  -6.596  26.152  0.00  0.00    +0.119 HD
ATOM     24  H2  UNL     1       9.051  -5.152  25.927  0.00  0.00    +0.119 HD
ENDBRANCH  15  22
ENDBRANCH  13  15
ENDBRANCH   2  11
BRANCH   6  25
ATOM     25  C   UNL     1       9.337   2.027  23.488  0.00  0.00    +0.327 C 
ATOM     26  OXT UNL     1      10.432   2.130  24.020  0.00  0.00    -0.249 OA
BRANCH  25  27
ATOM     27  O   UNL     1       8.871   2.985  22.645  0.00  0.00    -0.479 OA
ATOM     28  H   UNL     1       9.605   3.357  22.114  0.00  0.00    +0.295 HD
ENDBRANCH  25  27
ENDBRANCH   6  25
TORSDOF 6
ENDMDL
MODEL 5
REMARK VINA RESULT:      -6.9      4.709      8.539
REMARK  Name = 
REMARK  8 active torsions:
REMARK  status: ('A' for Active; 'I' for Inactive)
REMARK    1  A    between atoms: C_4  and  C_5
REMARK    2  A    between atoms: C_4  and  C_6
REMARK    3  A    between atoms: CA_7  and  C_26
REMARK    4  A    between atoms: CA_12  and  N_14
REMARK    5  A    between atoms: C_15  and  CA_17
REMARK    6  A    between atoms: CA_17  and  N_19
REMARK    7  A    between atoms: CA_17  and  C_20
REMARK    8  A    between atoms: C_26  and  O_27
REMARK                            x       y       z     vdW  Elec       q    Type
REMARK                         _______ _______ _______ _____ _____    ______ ____
ROOT
ATOM      1  C   UNL     1       8.885   1.219  21.451  0.00  0.00    +0.165 C 
ATOM      2  CA  UNL     1       7.556   2.013  21.547  0.00  0.00    +0.190 C 
ATOM      3  C   UNL     1       7.183   0.960  22.621  0.00  0.00    +0.240 C 
ATOM      4  O   UNL     1       6.375   0.856  23.517  0.00  0.00    -0.273 OA
ATOM      5  N   UNL     1       8.284   0.195  22.333  0.00  0.00    -0.271 N 
ATOM      6  CA  UNL     1       9.130  -0.306  23.433  0.00  0.00    +0.201 C 
ATOM      7  C   UNL     1      10.029   0.870  23.892  0.00  0.00    +0.042 C 
ATOM      8  C   UNL     1       9.302   1.793  24.891  0.00  0.00    +0.025 C 
ATOM      9  C   UNL     1      11.361   0.475  24.535  0.00  0.00    +0.025 C 
ATOM     10  S   UNL     1      10.345   1.867  22.365  0.00  0.00    -0.127 S 
ENDROOT
BRANCH   2  11
ATOM     11  N   UNL     1       7.652   3.422  21.974  0.00  0.00    -0.300 N 
ATOM     12  H   UNL     1       8.513   3.962  21.898  0.00  0.00    +0.150 HD
ATOM     13  C   UNL     1       6.521   4.173  22.216  0.00  0.00    +0.235 C 
ATOM     14  O   UNL     1       5.393   3.684  22.206  0.00  0.00    -0.274 OA
BRANCH  13  15
ATOM     15  CA  UNL     1       6.801   5.665  22.506  0.00  0.00    +0.168 C 
BRANCH  15  16
ATOM     16  C   UNL     1       7.768   5.831  23.663  0.00  0.00    -0.022 A 
ATOM     17  C   UNL     1       7.423   5.495  24.982  0.00  0.00    +0.005 A 
ATOM     18  C   UNL     1       8.340   5.655  26.024  0.00  0.00    +0.000 A 
ATOM     19  C   UNL     1       9.607   6.169  25.764  0.00  0.00    +0.000 A 
ATOM     20  C   UNL     1       9.956   6.534  24.466  0.00  0.00    +0.000 A 
ATOM     21  C   UNL     1       9.042   6.370  23.423  0.00  0.00    +0.005 A 
ENDBRANCH  15  16
BRANCH  15  22
ATOM     22  N   UNL     1       7.279   6.332  21.264  0.00  0.00    -0.316 NA
ATOM     23  H1  UNL     1       7.374   7.330  21.468  0.00  0.00    +0.119 HD
ATOM     24  H2  UNL     1       8.234   6.005  21.099  0.00  0.00    +0.119 HD
ENDBRANCH  15  22
ENDBRANCH  13  15
ENDBRANCH   2  11
BRANCH   6  25
ATOM     25  C   UNL     1       9.874  -1.557  22.925  0.00  0.00    +0.327 C 
ATOM     26  OXT UNL     1      10.139  -2.541  23.600  0.00  0.00    -0.249 OA
BRANCH  25  27
ATOM     27  O   UNL     1      10.147  -1.522  21.594  0.00  0.00    -0.479 OA
ATOM     28  H   UNL     1      10.704  -0.745  21.382  0.00  0.00    +0.295 HD
ENDBRANCH  25  27
ENDBRANCH   6  25
TORSDOF 6
ENDMDL
MODEL 6
REMARK VINA RESULT:      -6.8      2.533      7.890
REMARK  Name = 
REMARK  8 active torsions:
REMARK  status: ('A' for Active; 'I' for Inactive)
REMARK    1  A    between atoms: C_4  and  C_5
REMARK    2  A    between atoms: C_4  and  C_6
REMARK    3  A    between atoms: CA_7  and  C_26
REMARK    4  A    between atoms: CA_12  and  N_14
REMARK    5  A    between atoms: C_15  and  CA_17
REMARK    6  A    between atoms: CA_17  and  N_19
REMARK    7  A    between atoms: CA_17  and  C_20
REMARK    8  A    between atoms: C_26  and  O_27
REMARK                            x       y       z     vdW  Elec       q    Type
REMARK                         _______ _______ _______ _____ _____    ______ ____
ROOT
ATOM      1  C   UNL     1       8.222  -2.525  22.852  0.00  0.00    +0.165 C 
ATOM      2  CA  UNL     1       7.908  -1.006  22.877  0.00  0.00    +0.190 C 
ATOM      3  C   UNL     1       6.645  -1.435  23.663  0.00  0.00    +0.240 C 
ATOM      4  O   UNL     1       5.827  -0.907  24.382  0.00  0.00    -0.273 OA
ATOM      5  N   UNL     1       6.878  -2.764  23.421  0.00  0.00    -0.271 N 
ATOM      6  CA  UNL     1       6.796  -3.732  24.531  0.00  0.00    +0.201 C 
ATOM      7  C   UNL     1       8.113  -3.617  25.338  0.00  0.00    +0.042 C 
ATOM      8  C   UNL     1       8.064  -2.463  26.360  0.00  0.00    +0.025 C 
ATOM      9  C   UNL     1       8.535  -4.874  26.104  0.00  0.00    +0.025 C 
ATOM     10  S   UNL     1       9.412  -3.182  24.093  0.00  0.00    -0.127 S 
ENDROOT
BRANCH   2  11
ATOM     11  N   UNL     1       8.883  -0.138  23.566  0.00  0.00    -0.300 N 
ATOM     12  H   UNL     1       9.097  -0.230  24.558  0.00  0.00    +0.150 HD
ATOM     13  C   UNL     1       9.773   0.640  22.855  0.00  0.00    +0.235 C 
ATOM     14  O   UNL     1       9.724   0.742  21.631  0.00  0.00    -0.274 OA
BRANCH  13  15
ATOM     15  CA  UNL     1      10.818   1.369  23.730  0.00  0.00    +0.168 C 
BRANCH  15  16
ATOM     16  C   UNL     1      10.580   2.867  23.741  0.00  0.00    -0.022 A 
ATOM     17  C   UNL     1       9.339   3.426  24.089  0.00  0.00    +0.005 A 
ATOM     18  C   UNL     1       9.155   4.811  24.094  0.00  0.00    +0.000 A 
ATOM     19  C   UNL     1      10.203   5.654  23.735  0.00  0.00    +0.000 A 
ATOM     20  C   UNL     1      11.432   5.116  23.362  0.00  0.00    +0.000 A 
ATOM     21  C   UNL     1      11.618   3.732  23.360  0.00  0.00    +0.005 A 
ENDBRANCH  15  16
BRANCH  15  22
ATOM     22  N   UNL     1      10.817   0.782  25.098  0.00  0.00    -0.316 NA
ATOM     23  H1  UNL     1       9.852   0.520  25.319  0.00  0.00    +0.119 HD
ATOM     24  H2  UNL     1      11.324  -0.104  25.042  0.00  0.00    +0.119 HD
ENDBRANCH  15  22
ENDBRANCH  13  15
ENDBRANCH   2  11
BRANCH   6  25
ATOM     25  C   UNL     1       6.500  -5.120  23.928  0.00  0.00    +0.327 C 
ATOM     26  OXT UNL     1       7.106  -5.625  22.994  0.00  0.00    -0.249 OA
BRANCH  25  27
ATOM     27  O   UNL     1       5.535  -5.806  24.595  0.00  0.00    -0.479 OA
ATOM     28  H   UNL     1       5.522  -6.742  24.307  0.00  0.00    +0.295 HD
ENDBRANCH  25  27
ENDBRANCH   6  25
TORSDOF 6
ENDMDL
MODEL 7
REMARK VINA RESULT:      -6.7      2.132      7.526
REMARK  Name = 
REMARK  8 active torsions:
REMARK  status: ('A' for Active; 'I' for Inactive)
REMARK    1  A    between atoms: C_4  and  C_5
REMARK    2  A    between atoms: C_4  and  C_6
REMARK    3  A    between atoms: CA_7  and  C_26
REMARK    4  A    between atoms: CA_12  and  N_14
REMARK    5  A    between atoms: C_15  and  CA_17
REMARK    6  A    between atoms: CA_17  and  N_19
REMARK    7  A    between atoms: CA_17  and  C_20
REMARK    8  A    between atoms: C_26  and  O_27
REMARK                            x       y       z     vdW  Elec       q    Type
REMARK                         _______ _______ _______ _____ _____    ______ ____
ROOT
ATOM      1  C   UNL     1       8.278  -3.512  25.788  0.00  0.00    +0.165 C 
ATOM      2  CA  UNL     1       9.092  -3.532  24.466  0.00  0.00    +0.190 C 
ATOM      3  C   UNL     1       8.404  -4.902  24.244  0.00  0.00    +0.240 C 
ATOM      4  O   UNL     1       8.200  -5.650  23.314  0.00  0.00    -0.273 OA
ATOM      5  N   UNL     1       7.885  -4.911  25.512  0.00  0.00    -0.271 N 
ATOM      6  CA  UNL     1       6.463  -5.246  25.715  0.00  0.00    +0.201 C 
ATOM      7  C   UNL     1       5.638  -3.986  25.352  0.00  0.00    +0.042 C 
ATOM      8  C   UNL     1       5.383  -3.882  23.835  0.00  0.00    +0.025 C 
ATOM      9  C   UNL     1       4.278  -3.862  26.044  0.00  0.00    +0.025 C 
ATOM     10  S   UNL     1       6.709  -2.551  25.821  0.00  0.00    -0.127 S 
ENDROOT
BRANCH   2  11
ATOM     11  N   UNL     1       8.809  -2.457  23.496  0.00  0.00    -0.300 N 
ATOM     12  H   UNL     1       8.008  -2.481  22.865  0.00  0.00    +0.150 HD
ATOM     13  C   UNL     1       9.430  -1.229  23.589  0.00  0.00    +0.235 C 
ATOM     14  O   UNL     1      10.326  -1.006  24.401  0.00  0.00    -0.274 OA
BRANCH  13  15
ATOM     15  CA  UNL     1       8.907  -0.175  22.587  0.00  0.00    +0.168 C 
BRANCH  15  16
ATOM     16  C   UNL     1       9.115   1.234  23.109  0.00  0.00    -0.022 A 
ATOM     17  C   UNL     1      10.241   2.001  22.767  0.00  0.00    +0.005 A 
ATOM     18  C   UNL     1      10.399   3.298  23.261  0.00  0.00    +0.000 A 
ATOM     19  C   UNL     1       9.444   3.839  24.117  0.00  0.00    +0.000 A 
ATOM     20  C   UNL     1       8.336   3.082  24.489  0.00  0.00    +0.000 A 
ATOM     21  C   UNL     1       8.174   1.787  23.992  0.00  0.00    +0.005 A 
ENDBRANCH  15  16
BRANCH  15  22
ATOM     22  N   UNL     1       9.546  -0.392  21.260  0.00  0.00    -0.316 NA
ATOM     23  H1  UNL     1       9.401  -1.372  21.005  0.00  0.00    +0.119 HD
ATOM     24  H2  UNL     1       9.003   0.142  20.578  0.00  0.00    +0.119 HD
ENDBRANCH  15  22
ENDBRANCH  13  15
ENDBRANCH   2  11
BRANCH   6  25
ATOM     25  C   UNL     1       6.299  -5.761  27.159  0.00  0.00    +0.327 C 
ATOM     26  OXT UNL     1       6.711  -5.192  28.159  0.00  0.00    -0.249 OA
BRANCH  25  27
ATOM     27  O   UNL     1       5.556  -6.895  27.249  0.00  0.00    -0.479 OA
ATOM     28  H   UNL     1       4.601  -6.678  27.231  0.00  0.00    +0.295 HD
ENDBRANCH  25  27
ENDBRANCH   6  25
TORSDOF 6
ENDMDL
MODEL 8
REMARK VINA RESULT:      -6.7      2.562      8.164
REMARK  Name = 
REMARK  8 active torsions:
REMARK  status: ('A' for Active; 'I' for Inactive)
REMARK    1  A    between atoms: C_4  and  C_5
REMARK    2  A    between atoms: C_4  and  C_6
REMARK    3  A    between atoms: CA_7  and  C_26
REMARK    4  A    between atoms: CA_12  and  N_14
REMARK    5  A    between atoms: C_15  and  CA_17
REMARK    6  A    between atoms: CA_17  and  N_19
REMARK    7  A    between atoms: CA_17  and  C_20
REMARK    8  A    between atoms: C_26  and  O_27
REMARK                            x       y       z     vdW  Elec       q    Type
REMARK                         _______ _______ _______ _____ _____    ______ ____
ROOT
ATOM      1  C   UNL     1       9.560  -1.283  25.130  0.00  0.00    +0.165 C 
ATOM      2  CA  UNL     1      10.034  -0.282  24.043  0.00  0.00    +0.190 C 
ATOM      3  C   UNL     1      10.101  -1.536  23.136  0.00  0.00    +0.240 C 
ATOM      4  O   UNL     1      10.145  -1.770  21.949  0.00  0.00    -0.273 OA
ATOM      5  N   UNL     1       9.882  -2.381  24.193  0.00  0.00    -0.271 N 
ATOM      6  CA  UNL     1       8.879  -3.457  24.070  0.00  0.00    +0.201 C 
ATOM      7  C   UNL     1       7.486  -2.808  24.260  0.00  0.00    +0.042 C 
ATOM      8  C   UNL     1       6.957  -2.186  22.951  0.00  0.00    +0.025 C 
ATOM      9  C   UNL     1       6.388  -3.736  24.789  0.00  0.00    +0.025 C 
ATOM     10  S   UNL     1       7.753  -1.417  25.451  0.00  0.00    -0.127 S 
ENDROOT
BRANCH   2  11
ATOM     11  N   UNL     1       9.088   0.786  23.666  0.00  0.00    -0.300 N 
ATOM     12  H   UNL     1       8.084   0.629  23.583  0.00  0.00    +0.150 HD
ATOM     13  C   UNL     1       9.461   2.114  23.698  0.00  0.00    +0.235 C 
ATOM     14  O   UNL     1      10.618   2.465  23.923  0.00  0.00    -0.274 OA
BRANCH  13  15
ATOM     15  CA  UNL     1       8.308   3.104  23.420  0.00  0.00    +0.168 C 
BRANCH  15  16
ATOM     16  C   UNL     1       8.551   4.438  24.099  0.00  0.00    -0.022 A 
ATOM     17  C   UNL     1       9.106   5.536  23.421  0.00  0.00    +0.005 A 
ATOM     18  C   UNL     1       9.312   6.752  24.076  0.00  0.00    +0.000 A 
ATOM     19  C   UNL     1       8.982   6.884  25.421  0.00  0.00    +0.000 A 
ATOM     20  C   UNL     1       8.456   5.798  26.117  0.00  0.00    +0.000 A 
ATOM     21  C   UNL     1       8.246   4.583  25.463  0.00  0.00    +0.005 A 
ENDBRANCH  15  16
BRANCH  15  22
ATOM     22  N   UNL     1       8.114   3.241  21.950  0.00  0.00    -0.316 NA
ATOM     23  H1  UNL     1       7.129   3.469  21.791  0.00  0.00    +0.119 HD
ATOM     24  H2  UNL     1       8.629   4.074  21.658  0.00  0.00    +0.119 HD
ENDBRANCH  15  22
ENDBRANCH  13  15
ENDBRANCH   2  11
BRANCH   6  25
ATOM     25  C   UNL     1       9.246  -4.562  25.081  0.00  0.00    +0.327 C 
ATOM     26  OXT UNL     1       9.199  -4.448  26.296  0.00  0.00    -0.249 OA
BRANCH  25  27
ATOM     27  O   UNL     1       9.553  -5.750  24.496  0.00  0.00    -0.479 OA
ATOM     28  H   UNL     1      10.425  -5.695  24.054  0.00  0.00    +0.295 HD
ENDBRANCH  25  27
ENDBRANCH   6  25
TORSDOF 6
ENDMDL
MODEL 9
REMARK VINA RESULT:      -6.7      1.768      2.316
REMARK  Name = 
REMARK  8 active torsions:
REMARK  status: ('A' for Active; 'I' for Inactive)
REMARK    1  A    between atoms: C_4  and  C_5
REMARK    2  A    between atoms: C_4  and  C_6
REMARK    3  A    between atoms: CA_7  and  C_26
REMARK    4  A    between atoms: CA_12  and  N_14
REMARK    5  A    between atoms: C_15  and  CA_17
REMARK    6  A    between atoms: CA_17  and  N_19
REMARK    7  A    between atoms: CA_17  and  C_20
REMARK    8  A    between atoms: C_26  and  O_27
REMARK                            x       y       z     vdW  Elec       q    Type
REMARK                         _______ _______ _______ _____ _____    ______ ____
ROOT
ATOM      1  C   UNL     1       8.424  -0.006  22.848  0.00  0.00    +0.165 C 
ATOM      2  CA  UNL     1       9.338  -1.075  23.504  0.00  0.00    +0.190 C 
ATOM      3  C   UNL     1      10.017   0.143  24.180  0.00  0.00    +0.240 C 
ATOM      4  O   UNL     1      10.744   0.339  25.128  0.00  0.00    -0.273 OA
ATOM      5  N   UNL     1       9.315   1.033  23.409  0.00  0.00    -0.271 N 
ATOM      6  CA  UNL     1       8.657   2.189  24.047  0.00  0.00    +0.201 C 
ATOM      7  C   UNL     1       7.349   1.672  24.696  0.00  0.00    +0.042 C 
ATOM      8  C   UNL     1       7.600   1.063  26.091  0.00  0.00    +0.025 C 
ATOM      9  C   UNL     1       6.233   2.708  24.855  0.00  0.00    +0.025 C 
ATOM     10  S   UNL     1       6.772   0.296  23.601  0.00  0.00    -0.127 S 
ENDROOT
BRANCH   2  11
ATOM     11  N   UNL     1       8.680  -2.065  24.379  0.00  0.00    -0.300 N 
ATOM     12  H   UNL     1       7.714  -1.971  24.688  0.00  0.00    +0.150 HD
ATOM     13  C   UNL     1       9.230  -3.314  24.581  0.00  0.00    +0.235 C 
ATOM     14  O   UNL     1      10.338  -3.622  24.148  0.00  0.00    -0.274 OA
BRANCH  13  15
ATOM     15  CA  UNL     1       8.338  -4.275  25.400  0.00  0.00    +0.168 C 
BRANCH  15  16
ATOM     16  C   UNL     1       7.281  -4.924  24.528  0.00  0.00    -0.022 A 
ATOM     17  C   UNL     1       7.528  -5.286  23.194  0.00  0.00    +0.005 A 
ATOM     18  C   UNL     1       6.533  -5.888  22.419  0.00  0.00    +0.000 A 
ATOM     19  C   UNL     1       5.273  -6.120  22.962  0.00  0.00    +0.000 A 
ATOM     20  C   UNL     1       5.001  -5.743  24.275  0.00  0.00    +0.000 A 
ATOM     21  C   UNL     1       5.996  -5.146  25.052  0.00  0.00    +0.005 A 
ENDBRANCH  15  16
BRANCH  15  22
ATOM     22  N   UNL     1       9.193  -5.274  26.098  0.00  0.00    -0.316 NA
ATOM     23  H1  UNL     1       8.654  -5.643  26.885  0.00  0.00    +0.119 HD
ATOM     24  H2  UNL     1       9.307  -6.064  25.461  0.00  0.00    +0.119 HD
ENDBRANCH  15  22
ENDBRANCH  13  15
ENDBRANCH   2  11
BRANCH   6  25
ATOM     25  C   UNL     1       8.485   3.286  22.977  0.00  0.00    +0.327 C 
ATOM     26  OXT UNL     1       7.732   3.220  22.017  0.00  0.00    -0.249 OA
BRANCH  25  27
ATOM     27  O   UNL     1       9.197   4.413  23.239  0.00  0.00    -0.479 OA
ATOM     28  H   UNL     1       9.633   4.736  22.424  0.00  0.00    +0.295 HD
ENDBRANCH  25  27
ENDBRANCH   6  25
TORSDOF 6
ENDMDL
