MODEL 1
REMARK VINA RESULT:      -6.5      0.000      0.000
REMARK  Name = 
REMARK  6 active torsions:
REMARK  status: ('A' for Active; 'I' for Inactive)
REMARK    1  A    between atoms: CA_2  and  N_3
REMARK    2  A    between atoms: CA_2  and  C_4
REMARK    3  A    between atoms: CA_2  and  C_17
REMARK    4  A    between atoms: C_4  and  C_5
REMARK    5  A    between atoms: C_8  and  C_11
REMARK    6  A    between atoms: C_17  and  O_18
REMARK                            x       y       z     vdW  Elec       q    Type
REMARK                         _______ _______ _______ _____ _____    ______ ____
ROOT
ATOM      1  C   UNL     1       9.250  -2.345  24.458  0.00  0.00    -0.045 A 
ATOM      2  C   UNL     1       9.914  -1.751  23.381  0.00  0.00    +0.004 A 
ATOM      3  C   UNL     1      10.121  -0.365  23.341  0.00  0.00    +0.009 A 
ATOM      4  C   UNL     1       9.660   0.477  24.368  0.00  0.00    -0.018 A 
ATOM      5  C   UNL     1       9.073  -0.149  25.481  0.00  0.00    +0.009 A 
ATOM      6  C   UNL     1       8.895  -1.535  25.540  0.00  0.00    +0.004 A 
ENDROOT
BRANCH   4   7
ATOM      7  C   UNL     1       9.736   1.955  24.265  0.00  0.00    -0.018 A 
ATOM      8  C   UNL     1      10.803   2.588  23.599  0.00  0.00    +0.008 A 
ATOM      9  C   UNL     1      10.858   3.978  23.453  0.00  0.00    +0.001 A 
ATOM     10  C   UNL     1       9.836   4.774  23.961  0.00  0.00    +0.000 A 
ATOM     11  C   UNL     1       8.768   4.178  24.623  0.00  0.00    +0.001 A 
ATOM     12  C   UNL     1       8.725   2.789  24.780  0.00  0.00    +0.008 A 
ENDBRANCH   4   7
BRANCH   1  13
ATOM     13  C   UNL     1       8.934  -3.824  24.418  0.00  0.00    +0.065 C 
BRANCH  13  14
ATOM     14  CA  UNL     1       9.171  -4.624  25.716  0.00  0.00    +0.165 C 
BRANCH  14  15
ATOM     15  N   UNL     1      10.267  -5.599  25.489  0.00  0.00    -0.318 NA
ATOM     16  H1  UNL     1      10.089  -6.509  25.907  0.00  0.00    +0.119 HD
ATOM     17  H2  UNL     1      10.608  -5.633  24.533  0.00  0.00    +0.119 HD
ENDBRANCH  14  15
BRANCH  14  18
ATOM     18  C   UNL     1       7.880  -5.316  26.215  0.00  0.00    +0.322 C 
ATOM     19  OXT UNL     1       6.820  -5.356  25.612  0.00  0.00    -0.249 OA
BRANCH  18  20
ATOM     20  O   UNL     1       8.003  -5.870  27.449  0.00  0.00    -0.480 OA
ATOM     21  H   UNL     1       7.227  -6.419  27.651  0.00  0.00    +0.295 HD
ENDBRANCH  18  20
ENDBRANCH  14  18
ENDBRANCH  13  14
ENDBRANCH   1  13
TORSDOF 6
ENDMDL
MODEL 2
REMARK VINA RESULT:      -6.4      2.668      3.140
REMARK  Name = 
REMARK  6 active torsions:
REMARK  status: ('A' for Active; 'I' for Inactive)
REMARK    1  A    between atoms: CA_2  and  N_3
REMARK    2  A    between atoms: CA_2  and  C_4
REMARK    3  A    between atoms: CA_2  and  C_17
REMARK    4  A    between atoms: C_4  and  C_5
REMARK    5  A    between atoms: C_8  and  C_11
REMARK    6  A    between atoms: C_17  and  O_18
REMARK                            x       y       z     vdW  Elec       q    Type
REMARK                         _______ _______ _______ _____ _____    ______ ____
ROOT
ATOM      1  C   UNL     1       9.673  -0.606  22.550  0.00  0.00    -0.045 A 
ATOM      2  C   UNL     1       9.492   0.408  21.605  0.00  0.00    +0.004 A 
ATOM      3  C   UNL     1       9.828   1.735  21.903  0.00  0.00    +0.009 A 
ATOM      4  C   UNL     1      10.342   2.099  23.160  0.00  0.00    -0.018 A 
ATOM      5  C   UNL     1      10.598   1.053  24.063  0.00  0.00    +0.009 A 
ATOM      6  C   UNL     1      10.295  -0.277  23.757  0.00  0.00    +0.004 A 
ENDROOT
BRANCH   4   7
ATOM      7  C   UNL     1      10.557   3.517  23.539  0.00  0.00    -0.018 A 
ATOM      8  C   UNL     1      11.793   4.154  23.320  0.00  0.00    +0.008 A 
ATOM      9  C   UNL     1      11.990   5.504  23.628  0.00  0.00    +0.001 A 
ATOM     10  C   UNL     1      10.947   6.259  24.154  0.00  0.00    +0.000 A 
ATOM     11  C   UNL     1       9.712   5.658  24.381  0.00  0.00    +0.001 A 
ATOM     12  C   UNL     1       9.526   4.304  24.086  0.00  0.00    +0.008 A 
ENDBRANCH   4   7
BRANCH   1  13
ATOM     13  C   UNL     1       9.189  -2.007  22.246  0.00  0.00    +0.065 C 
BRANCH  13  14
ATOM     14  CA  UNL     1       8.113  -2.594  23.183  0.00  0.00    +0.165 C 
BRANCH  14  15
ATOM     15  N   UNL     1       8.361  -4.046  23.355  0.00  0.00    -0.318 NA
ATOM     16  H1  UNL     1       7.593  -4.535  23.810  0.00  0.00    +0.119 HD
ATOM     17  H2  UNL     1       8.727  -4.511  22.529  0.00  0.00    +0.119 HD
ENDBRANCH  14  15
BRANCH  14  18
ATOM     18  C   UNL     1       6.680  -2.312  22.669  0.00  0.00    +0.322 C 
ATOM     19  OXT UNL     1       6.012  -3.069  21.983  0.00  0.00    -0.249 OA
BRANCH  18  20
ATOM     20  O   UNL     1       6.209  -1.088  23.020  0.00  0.00    -0.480 OA
ATOM     21  H   UNL     1       6.736  -0.718  23.748  0.00  0.00    +0.295 HD
ENDBRANCH  18  20
ENDBRANCH  14  18
ENDBRANCH  13  14
ENDBRANCH   1  13
TORSDOF 6
ENDMDL
MODEL 3
REMARK VINA RESULT:      -6.4      2.468      3.256
REMARK  Name = 
REMARK  6 active torsions:
REMARK  status: ('A' for Active; 'I' for Inactive)
REMARK    1  A    between atoms: CA_2  and  N_3
REMARK    2  A    between atoms: CA_2  and  C_4
REMARK    3  A    between atoms: CA_2  and  C_17
REMARK    4  A    between atoms: C_4  and  C_5
REMARK    5  A    between atoms: C_8  and  C_11
REMARK    6  A    between atoms: C_17  and  O_18
REMARK                            x       y       z     vdW  Elec       q    Type
REMARK                         _______ _______ _______ _____ _____    ______ ____
ROOT
ATOM      1  C   UNL     1       9.716  -0.493  22.538  0.00  0.00    -0.045 A 
ATOM      2  C   UNL     1       9.525   0.514  21.588  0.00  0.00    +0.004 A 
ATOM      3  C   UNL     1       9.855   1.845  21.877  0.00  0.00    +0.009 A 
ATOM      4  C   UNL     1      10.373   2.219  23.129  0.00  0.00    -0.018 A 
ATOM      5  C   UNL     1      10.638   1.180  24.038  0.00  0.00    +0.009 A 
ATOM      6  C   UNL     1      10.341  -0.154  23.741  0.00  0.00    +0.004 A 
ENDROOT
BRANCH   4   7
ATOM      7  C   UNL     1      10.581   3.641  23.500  0.00  0.00    -0.018 A 
ATOM      8  C   UNL     1       9.551   4.405  24.079  0.00  0.00    +0.008 A 
ATOM      9  C   UNL     1       9.752   5.730  24.477  0.00  0.00    +0.001 A 
ATOM     10  C   UNL     1      10.999   6.324  24.318  0.00  0.00    +0.000 A 
ATOM     11  C   UNL     1      12.039   5.595  23.750  0.00  0.00    +0.001 A 
ATOM     12  C   UNL     1      11.828   4.275  23.338  0.00  0.00    +0.008 A 
ENDBRANCH   4   7
BRANCH   1  13
ATOM     13  C   UNL     1       9.239  -1.899  22.243  0.00  0.00    +0.065 C 
BRANCH  13  14
ATOM     14  CA  UNL     1       8.293  -2.546  23.276  0.00  0.00    +0.165 C 
BRANCH  14  15
ATOM     15  N   UNL     1       8.954  -3.742  23.854  0.00  0.00    -0.318 NA
ATOM     16  H1  UNL     1       9.672  -4.137  23.251  0.00  0.00    +0.119 HD
ATOM     17  H2  UNL     1       9.228  -3.642  24.827  0.00  0.00    +0.119 HD
ENDBRANCH  14  15
BRANCH  14  18
ATOM     18  C   UNL     1       6.913  -2.890  22.665  0.00  0.00    +0.322 C 
ATOM     19  OXT UNL     1       6.600  -3.969  22.187  0.00  0.00    -0.249 OA
BRANCH  18  20
ATOM     20  O   UNL     1       6.045  -1.846  22.663  0.00  0.00    -0.480 OA
ATOM     21  H   UNL     1       5.139  -2.161  22.506  0.00  0.00    +0.295 HD
ENDBRANCH  18  20
ENDBRANCH  14  18
ENDBRANCH  13  14
ENDBRANCH   1  13
TORSDOF 6
ENDMDL
MODEL 4
REMARK VINA RESULT:      -6.2      1.873      2.677
REMARK  Name = 
REMARK  6 active torsions:
REMARK  status: ('A' for Active; 'I' for Inactive)
REMARK    1  A    between atoms: CA_2  and  N_3
REMARK    2  A    between atoms: CA_2  and  C_4
REMARK    3  A    between atoms: CA_2  and  C_17
REMARK    4  A    between atoms: C_4  and  C_5
REMARK    5  A    between atoms: C_8  and  C_11
REMARK    6  A    between atoms: C_17  and  O_18
REMARK                            x       y       z     vdW  Elec       q    Type
REMARK                         _______ _______ _______ _____ _____    ______ ____
ROOT
ATOM      1  C   UNL     1       8.684  -3.973  25.733  0.00  0.00    -0.045 A 
ATOM      2  C   UNL     1       9.510  -3.937  24.605  0.00  0.00    +0.004 A 
ATOM      3  C   UNL     1       9.872  -2.717  24.019  0.00  0.00    +0.009 A 
ATOM      4  C   UNL     1       9.411  -1.491  24.529  0.00  0.00    -0.018 A 
ATOM      5  C   UNL     1       8.655  -1.544  25.712  0.00  0.00    +0.009 A 
ATOM      6  C   UNL     1       8.320  -2.758  26.320  0.00  0.00    +0.004 A 
ENDROOT
BRANCH   4   7
ATOM      7  C   UNL     1       9.661  -0.206  23.829  0.00  0.00    -0.018 A 
ATOM      8  C   UNL     1      10.240   0.890  24.496  0.00  0.00    +0.008 A 
ATOM      9  C   UNL     1      10.525   2.087  23.833  0.00  0.00    +0.001 A 
ATOM     10  C   UNL     1      10.249   2.216  22.476  0.00  0.00    +0.000 A 
ATOM     11  C   UNL     1       9.678   1.151  21.788  0.00  0.00    +0.001 A 
ATOM     12  C   UNL     1       9.380  -0.040  22.460  0.00  0.00    +0.008 A 
ENDBRANCH   4   7
BRANCH   1  13
ATOM     13  C   UNL     1       8.211  -5.305  26.272  0.00  0.00    +0.065 C 
BRANCH  13  14
ATOM     14  CA  UNL     1       6.848  -5.321  26.995  0.00  0.00    +0.165 C 
BRANCH  14  15
ATOM     15  N   UNL     1       7.008  -5.985  28.312  0.00  0.00    -0.318 NA
ATOM     16  H1  UNL     1       7.947  -6.342  28.472  0.00  0.00    +0.119 HD
ATOM     17  H2  UNL     1       6.613  -5.470  29.093  0.00  0.00    +0.119 HD
ENDBRANCH  14  15
BRANCH  14  18
ATOM     18  C   UNL     1       5.746  -5.993  26.142  0.00  0.00    +0.322 C 
ATOM     19  OXT UNL     1       5.396  -5.635  25.029  0.00  0.00    -0.249 OA
BRANCH  18  20
ATOM     20  O   UNL     1       5.139  -7.037  26.763  0.00  0.00    -0.480 OA
ATOM     21  H   UNL     1       5.801  -7.672  27.082  0.00  0.00    +0.295 HD
ENDBRANCH  18  20
ENDBRANCH  14  18
ENDBRANCH  13  14
ENDBRANCH   1  13
TORSDOF 6
ENDMDL
MODEL 5
REMARK VINA RESULT:      -6.2      2.403      3.299
REMARK  Name = 
REMARK  6 active torsions:
REMARK  status: ('A' for Active; 'I' for Inactive)
REMARK    1  A    between atoms: CA_2  and  N_3
REMARK    2  A    between atoms: CA_2  and  C_4
REMARK    3  A    between atoms: CA_2  and  C_17
REMARK    4  A    between atoms: C_4  and  C_5
REMARK    5  A    between atoms: C_8  and  C_11
REMARK    6  A    between atoms: C_17  and  O_18
REMARK                            x       y       z     vdW  Elec       q    Type
REMARK                         _______ _______ _______ _____ _____    ______ ____
ROOT
ATOM      1  C   UNL     1       7.930  -4.246  23.596  0.00  0.00    -0.045 A 
ATOM      2  C   UNL     1       7.548  -3.416  22.538  0.00  0.00    +0.004 A 
ATOM      3  C   UNL     1       8.148  -2.163  22.356  0.00  0.00    +0.009 A 
ATOM      4  C   UNL     1       9.140  -1.688  23.232  0.00  0.00    -0.018 A 
ATOM      5  C   UNL     1       9.570  -2.572  24.236  0.00  0.00    +0.009 A 
ATOM      6  C   UNL     1       8.997  -3.837  24.401  0.00  0.00    +0.004 A 
ENDROOT
BRANCH   4   7
ATOM      7  C   UNL     1       9.672  -0.306  23.140  0.00  0.00    -0.018 A 
ATOM      8  C   UNL     1       9.504   0.468  21.977  0.00  0.00    +0.008 A 
ATOM      9  C   UNL     1       9.957   1.788  21.899  0.00  0.00    +0.001 A 
ATOM     10  C   UNL     1      10.582   2.376  22.993  0.00  0.00    +0.000 A 
ATOM     11  C   UNL     1      10.763   1.639  24.158  0.00  0.00    +0.001 A 
ATOM     12  C   UNL     1      10.322   0.313  24.225  0.00  0.00    +0.008 A 
ENDBRANCH   4   7
BRANCH   1  13
ATOM     13  C   UNL     1       7.182  -5.538  23.841  0.00  0.00    +0.065 C 
BRANCH  13  14
ATOM     14  CA  UNL     1       5.767  -5.423  24.445  0.00  0.00    +0.165 C 
BRANCH  14  15
ATOM     15  N   UNL     1       5.783  -5.971  25.823  0.00  0.00    -0.318 NA
ATOM     16  H1  UNL     1       5.016  -5.634  26.400  0.00  0.00    +0.119 HD
ATOM     17  H2  UNL     1       5.942  -6.973  25.875  0.00  0.00    +0.119 HD
ENDBRANCH  14  15
BRANCH  14  18
ATOM     18  C   UNL     1       4.701  -6.116  23.563  0.00  0.00    +0.322 C 
ATOM     19  OXT UNL     1       4.054  -5.576  22.679  0.00  0.00    -0.249 OA
BRANCH  18  20
ATOM     20  O   UNL     1       4.497  -7.420  23.880  0.00  0.00    -0.480 OA
ATOM     21  H   UNL     1       3.561  -7.575  24.088  0.00  0.00    +0.295 HD
ENDBRANCH  18  20
ENDBRANCH  14  18
ENDBRANCH  13  14
ENDBRANCH   1  13
TORSDOF 6
ENDMDL
MODEL 6
REMARK VINA RESULT:      -6.1      4.904      7.806
REMARK  Name = 
REMARK  6 active torsions:
REMARK  status: ('A' for Active; 'I' for Inactive)
REMARK    1  A    between atoms: CA_2  and  N_3
REMARK    2  A    between atoms: CA_2  and  C_4
REMARK    3  A    between atoms: CA_2  and  C_17
REMARK    4  A    between atoms: C_4  and  C_5
REMARK    5  A    between atoms: C_8  and  C_11
REMARK    6  A    between atoms: C_17  and  O_18
REMARK                            x       y       z     vdW  Elec       q    Type
REMARK                         _______ _______ _______ _____ _____    ______ ____
ROOT
ATOM      1  C   UNL     1      10.405   1.670  23.345  0.00  0.00    -0.045 A 
ATOM      2  C   UNL     1      10.405   0.948  24.542  0.00  0.00    +0.004 A 
ATOM      3  C   UNL     1       9.993  -0.391  24.572  0.00  0.00    +0.009 A 
ATOM      4  C   UNL     1       9.554  -1.052  23.412  0.00  0.00    -0.018 A 
ATOM      5  C   UNL     1       9.645  -0.336  22.206  0.00  0.00    +0.009 A 
ATOM      6  C   UNL     1      10.087   0.990  22.166  0.00  0.00    +0.004 A 
ENDROOT
BRANCH   4   7
ATOM      7  C   UNL     1       8.974  -2.417  23.458  0.00  0.00    -0.018 A 
ATOM      8  C   UNL     1       9.353  -3.340  24.450  0.00  0.00    +0.008 A 
ATOM      9  C   UNL     1       8.775  -4.611  24.532  0.00  0.00    +0.001 A 
ATOM     10  C   UNL     1       7.788  -4.988  23.627  0.00  0.00    +0.000 A 
ATOM     11  C   UNL     1       7.391  -4.097  22.635  0.00  0.00    +0.001 A 
ATOM     12  C   UNL     1       7.984  -2.833  22.548  0.00  0.00    +0.008 A 
ENDBRANCH   4   7
BRANCH   1  13
ATOM     13  C   UNL     1      10.737   3.146  23.362  0.00  0.00    +0.065 C 
BRANCH  13  14
ATOM     14  CA  UNL     1       9.592   4.116  23.720  0.00  0.00    +0.165 C 
BRANCH  14  15
ATOM     15  N   UNL     1       8.458   3.889  22.792  0.00  0.00    -0.318 NA
ATOM     16  H1  UNL     1       8.172   4.728  22.291  0.00  0.00    +0.119 HD
ATOM     17  H2  UNL     1       8.550   3.062  22.210  0.00  0.00    +0.119 HD
ENDBRANCH  14  15
BRANCH  14  18
ATOM     18  C   UNL     1      10.057   5.592  23.710  0.00  0.00    +0.322 C 
ATOM     19  OXT UNL     1      11.006   6.040  24.334  0.00  0.00    -0.249 OA
BRANCH  18  20
ATOM     20  O   UNL     1       9.275   6.403  22.953  0.00  0.00    -0.480 OA
ATOM     21  H   UNL     1       9.522   6.332  22.016  0.00  0.00    +0.295 HD
ENDBRANCH  18  20
ENDBRANCH  14  18
ENDBRANCH  13  14
ENDBRANCH   1  13
TORSDOF 6
ENDMDL
MODEL 7
REMARK VINA RESULT:      -6.0      3.838      7.502
REMARK  Name = 
REMARK  6 active torsions:
REMARK  status: ('A' for Active; 'I' for Inactive)
REMARK    1  A    between atoms: CA_2  and  N_3
REMARK    2  A    between atoms: CA_2  and  C_4
REMARK    3  A    between atoms: CA_2  and  C_17
REMARK    4  A    between atoms: C_4  and  C_5
REMARK    5  A    between atoms: C_8  and  C_11
REMARK    6  A    between atoms: C_17  and  O_18
REMARK                            x       y       z     vdW  Elec       q    Type
REMARK                         _______ _______ _______ _____ _____    ______ ____
ROOT
ATOM      1  C   UNL     1       9.396  -1.602  22.973  0.00  0.00    -0.045 A 
ATOM      2  C   UNL     1       9.716  -2.414  24.065  0.00  0.00    +0.004 A 
ATOM      3  C   UNL     1       8.886  -3.481  24.434  0.00  0.00    +0.009 A 
ATOM      4  C   UNL     1       7.701  -3.766  23.734  0.00  0.00    -0.018 A 
ATOM      5  C   UNL     1       7.444  -2.994  22.589  0.00  0.00    +0.009 A 
ATOM      6  C   UNL     1       8.287  -1.949  22.198  0.00  0.00    +0.004 A 
ENDROOT
BRANCH   4   7
ATOM      7  C   UNL     1       6.739  -4.793  24.206  0.00  0.00    -0.018 A 
ATOM      8  C   UNL     1       6.622  -5.115  25.571  0.00  0.00    +0.008 A 
ATOM      9  C   UNL     1       5.684  -6.044  26.030  0.00  0.00    +0.001 A 
ATOM     10  C   UNL     1       4.826  -6.671  25.133  0.00  0.00    +0.000 A 
ATOM     11  C   UNL     1       4.916  -6.374  23.776  0.00  0.00    +0.001 A 
ATOM     12  C   UNL     1       5.867  -5.455  23.320  0.00  0.00    +0.008 A 
ENDBRANCH   4   7
BRANCH   1  13
ATOM     13  C   UNL     1      10.244  -0.385  22.672  0.00  0.00    +0.065 C 
BRANCH  13  14
ATOM     14  CA  UNL     1       9.564   0.992  22.815  0.00  0.00    +0.165 C 
BRANCH  14  15
ATOM     15  N   UNL     1      10.054   1.888  21.739  0.00  0.00    -0.318 NA
ATOM     16  H1  UNL     1       9.987   2.875  21.974  0.00  0.00    +0.119 HD
ATOM     17  H2  UNL     1      10.944   1.610  21.335  0.00  0.00    +0.119 HD
ENDBRANCH  14  15
BRANCH  14  18
ATOM     18  C   UNL     1       9.783   1.606  24.219  0.00  0.00    +0.322 C 
ATOM     19  OXT UNL     1       9.295   2.650  24.619  0.00  0.00    -0.249 OA
BRANCH  18  20
ATOM     20  O   UNL     1      10.628   0.885  25.000  0.00  0.00    -0.480 OA
ATOM     21  H   UNL     1      10.479  -0.066  24.871  0.00  0.00    +0.295 HD
ENDBRANCH  18  20
ENDBRANCH  14  18
ENDBRANCH  13  14
ENDBRANCH   1  13
TORSDOF 6
ENDMDL
MODEL 8
REMARK VINA RESULT:      -5.9      4.021      7.302
REMARK  Name = 
REMARK  6 active torsions:
REMARK  status: ('A' for Active; 'I' for Inactive)
REMARK    1  A    between atoms: CA_2  and  N_3
REMARK    2  A    between atoms: CA_2  and  C_4
REMARK    3  A    between atoms: CA_2  and  C_17
REMARK    4  A    between atoms: C_4  and  C_5
REMARK    5  A    between atoms: C_8  and  C_11
REMARK    6  A    between atoms: C_17  and  O_18
REMARK                            x       y       z     vdW  Elec       q    Type
REMARK                         _______ _______ _______ _____ _____    ______ ____
ROOT
ATOM      1  C   UNL     1       9.991  -0.609  23.844  0.00  0.00    -0.045 A 
ATOM      2  C   UNL     1       9.484  -1.305  24.945  0.00  0.00    +0.004 A 
ATOM      3  C   UNL     1       8.668  -2.430  24.769  0.00  0.00    +0.009 A 
ATOM      4  C   UNL     1       8.317  -2.891  23.488  0.00  0.00    -0.018 A 
ATOM      5  C   UNL     1       8.907  -2.230  22.397  0.00  0.00    +0.009 A 
ATOM      6  C   UNL     1       9.749  -1.127  22.569  0.00  0.00    +0.004 A 
ENDROOT
BRANCH   4   7
ATOM      7  C   UNL     1       7.333  -3.984  23.289  0.00  0.00    -0.018 A 
ATOM      8  C   UNL     1       7.180  -4.612  22.039  0.00  0.00    +0.008 A 
ATOM      9  C   UNL     1       6.292  -5.676  21.854  0.00  0.00    +0.001 A 
ATOM     10  C   UNL     1       5.539  -6.150  22.923  0.00  0.00    +0.000 A 
ATOM     11  C   UNL     1       5.667  -5.550  24.172  0.00  0.00    +0.001 A 
ATOM     12  C   UNL     1       6.546  -4.476  24.348  0.00  0.00    +0.008 A 
ENDBRANCH   4   7
BRANCH   1  13
ATOM     13  C   UNL     1      10.768   0.671  24.061  0.00  0.00    +0.065 C 
BRANCH  13  14
ATOM     14  CA  UNL     1       9.969   1.990  24.013  0.00  0.00    +0.165 C 
BRANCH  14  15
ATOM     15  N   UNL     1       8.938   1.970  25.079  0.00  0.00    -0.318 NA
ATOM     16  H1  UNL     1       9.116   2.640  25.825  0.00  0.00    +0.119 HD
ATOM     17  H2  UNL     1       7.981   1.963  24.738  0.00  0.00    +0.119 HD
ENDBRANCH  14  15
BRANCH  14  18
ATOM     18  C   UNL     1       9.350   2.243  22.618  0.00  0.00    +0.322 C 
ATOM     19  OXT UNL     1       8.157   2.357  22.383  0.00  0.00    -0.249 OA
BRANCH  18  20
ATOM     20  O   UNL     1      10.266   2.295  21.617  0.00  0.00    -0.480 OA
ATOM     21  H   UNL     1      11.083   2.719  21.929  0.00  0.00    +0.295 HD
ENDBRANCH  18  20
ENDBRANCH  14  18
ENDBRANCH  13  14
ENDBRANCH   1  13
TORSDOF 6
ENDMDL
MODEL 9
REMARK VINA RESULT:      -5.9      4.644      7.642
REMARK  Name = 
REMARK  6 active torsions:
REMARK  status: ('A' for Active; 'I' for Inactive)
REMARK    1  A    between atoms: CA_2  and  N_3
REMARK    2  A    between atoms: CA_2  and  C_4
REMARK    3  A    between atoms: CA_2  and  C_17
REMARK    4  A    between atoms: C_4  and  C_5
REMARK    5  A    between atoms: C_8  and  C_11
REMARK    6  A    between atoms: C_17  and  O_18
REMARK                            x       y       z     vdW  Elec       q    Type
REMARK                         _______ _______ _______ _____ _____    ______ ____
ROOT
ATOM      1  C   UNL     1      10.131   0.856  23.269  0.00  0.00    -0.045 A 
ATOM      2  C   UNL     1       9.933   0.784  24.651  0.00  0.00    +0.004 A 
ATOM      3  C   UNL     1       9.585  -0.427  25.265  0.00  0.00    +0.009 A 
ATOM      4  C   UNL     1       9.408  -1.605  24.519  0.00  0.00    -0.018 A 
ATOM      5  C   UNL     1       9.697  -1.531  23.146  0.00  0.00    +0.009 A 
ATOM      6  C   UNL     1      10.077  -0.332  22.535  0.00  0.00    +0.004 A 
ENDROOT
BRANCH   4   7
ATOM      7  C   UNL     1       8.893  -2.853  25.134  0.00  0.00    -0.018 A 
ATOM      8  C   UNL     1       9.436  -4.109  24.806  0.00  0.00    +0.008 A 
ATOM      9  C   UNL     1       8.991  -5.286  25.416  0.00  0.00    +0.001 A 
ATOM     10  C   UNL     1       7.995  -5.235  26.385  0.00  0.00    +0.000 A 
ATOM     11  C   UNL     1       7.437  -4.008  26.732  0.00  0.00    +0.001 A 
ATOM     12  C   UNL     1       7.875  -2.836  26.107  0.00  0.00    +0.008 A 
ENDBRANCH   4   7
BRANCH   1  13
ATOM     13  C   UNL     1      10.386   2.197  22.619  0.00  0.00    +0.065 C 
BRANCH  13  14
ATOM     14  CA  UNL     1      10.107   3.452  23.473  0.00  0.00    +0.165 C 
BRANCH  14  15
ATOM     15  N   UNL     1       8.777   3.998  23.109  0.00  0.00    -0.318 NA
ATOM     16  H1  UNL     1       8.337   3.507  22.335  0.00  0.00    +0.119 HD
ATOM     17  H2  UNL     1       8.164   4.173  23.901  0.00  0.00    +0.119 HD
ENDBRANCH  14  15
BRANCH  14  18
ATOM     18  C   UNL     1      11.224   4.513  23.327  0.00  0.00    +0.322 C 
ATOM     19  OXT UNL     1      12.422   4.298  23.421  0.00  0.00    -0.249 OA
BRANCH  18  20
ATOM     20  O   UNL     1      10.756   5.770  23.114  0.00  0.00    -0.480 OA
ATOM     21  H   UNL     1      10.324   6.109  23.916  0.00  0.00    +0.295 HD
ENDBRANCH  18  20
ENDBRANCH  14  18
ENDBRANCH  13  14
ENDBRANCH   1  13
TORSDOF 6
ENDMDL
