MODEL 1
REMARK VINA RESULT:      -5.6      0.000      0.000
REMARK  Name = 
REMARK  8 active torsions:
REMARK  status: ('A' for Active; 'I' for Inactive)
REMARK    1  A    between atoms: O_1  and  C_2
REMARK    2  A    between atoms: C_2  and  C_4
REMARK    3  A    between atoms: C_5  and  O_6
REMARK    4  A    between atoms: C_9  and  S_11
REMARK    5  A    between atoms: S_11  and  N_14
REMARK    6  A    between atoms: N_14  and  C_15
REMARK    7  A    between atoms: C_15  and  C_16
REMARK    8  A    between atoms: C_16  and  S_17
REMARK                            x       y       z     vdW  Elec       q    Type
REMARK                         _______ _______ _______ _____ _____    ______ ____
ROOT
ATOM      1  C   UNL     1       9.527   1.055  23.604  0.00  0.00    +0.102 A 
ATOM      2  C   UNL     1       9.372  -0.146  24.310  0.00  0.00    +0.047 A 
ATOM      3  C   UNL     1       9.347  -1.357  23.605  0.00  0.00    +0.106 A 
ATOM      4  C   UNL     1       9.509  -1.383  22.217  0.00  0.00    +0.032 A 
ATOM      5  C   UNL     1       9.702  -0.187  21.524  0.00  0.00    +0.048 A 
ATOM      6  C   UNL     1       9.715   1.024  22.214  0.00  0.00    +0.131 A 
ENDROOT
BRANCH   3   7
ATOM      7  S   UNL     1       8.924  -2.850  24.467  0.00  0.00    +0.058 S 
ATOM      8  O   UNL     1       8.444  -2.511  25.787  0.00  0.00    -0.153 OA
ATOM      9  O   UNL     1      10.027  -3.762  24.264  0.00  0.00    -0.153 OA
BRANCH   7  10
ATOM     10  N   UNL     1       7.639  -3.477  23.577  0.00  0.00    -0.189 NA
ATOM     11  H   UNL     1       7.764  -3.208  22.599  0.00  0.00    +0.148 HD
BRANCH  10  12
ATOM     12  C   UNL     1       7.288  -4.896  23.801  0.00  0.00    +0.116 C 
BRANCH  12  13
ATOM     13  C   UNL     1       7.564  -5.732  22.548  0.00  0.00    +0.082 C 
BRANCH  13  14
ATOM     14  S   UNL     1       6.163  -5.716  21.380  0.00  0.00    -0.177 S 
ATOM     15  H   UNL     1       5.182  -5.739  22.294  0.00  0.00    +0.102 HD
ENDBRANCH  13  14
ENDBRANCH  12  13
ENDBRANCH  10  12
ENDBRANCH   7  10
ENDBRANCH   3   7
BRANCH   1  16
ATOM     16  C   UNL     1       9.503   2.365  24.292  0.00  0.00    +0.340 C 
ATOM     17  O   UNL     1      10.147   3.316  23.878  0.00  0.00    -0.245 OA
BRANCH  16  18
ATOM     18  O   UNL     1       8.666   2.437  25.348  0.00  0.00    -0.477 OA
ATOM     19  H   UNL     1       8.890   3.103  26.026  0.00  0.00    +0.295 HD
ENDBRANCH  16  18
ENDBRANCH   1  16
BRANCH   6  20
ATOM     20  O   UNL     1       9.895   2.149  21.454  0.00  0.00    -0.506 OA
ATOM     21  H   UNL     1       9.164   2.781  21.637  0.00  0.00    +0.292 HD
ENDBRANCH   6  20
TORSDOF 8
ENDMDL
MODEL 2
REMARK VINA RESULT:      -5.6      4.166      7.177
REMARK  Name = 
REMARK  8 active torsions:
REMARK  status: ('A' for Active; 'I' for Inactive)
REMARK    1  A    between atoms: O_1  and  C_2
REMARK    2  A    between atoms: C_2  and  C_4
REMARK    3  A    between atoms: C_5  and  O_6
REMARK    4  A    between atoms: C_9  and  S_11
REMARK    5  A    between atoms: S_11  and  N_14
REMARK    6  A    between atoms: N_14  and  C_15
REMARK    7  A    between atoms: C_15  and  C_16
REMARK    8  A    between atoms: C_16  and  S_17
REMARK                            x       y       z     vdW  Elec       q    Type
REMARK                         _______ _______ _______ _____ _____    ______ ____
ROOT
ATOM      1  C   UNL     1       6.220  -5.701  26.076  0.00  0.00    +0.102 A 
ATOM      2  C   UNL     1       6.582  -5.083  24.870  0.00  0.00    +0.047 A 
ATOM      3  C   UNL     1       5.887  -5.410  23.698  0.00  0.00    +0.106 A 
ATOM      4  C   UNL     1       4.822  -6.315  23.723  0.00  0.00    +0.032 A 
ATOM      5  C   UNL     1       4.441  -6.897  24.933  0.00  0.00    +0.048 A 
ATOM      6  C   UNL     1       5.135  -6.588  26.103  0.00  0.00    +0.131 A 
ENDROOT
BRANCH   3   7
ATOM      7  S   UNL     1       6.488  -4.807  22.140  0.00  0.00    +0.058 S 
ATOM      8  O   UNL     1       5.417  -4.120  21.457  0.00  0.00    -0.153 OA
ATOM      9  O   UNL     1       7.207  -5.904  21.530  0.00  0.00    -0.153 OA
BRANCH   7  10
ATOM     10  N   UNL     1       7.658  -3.675  22.572  0.00  0.00    -0.189 NA
ATOM     11  H   UNL     1       8.522  -3.900  22.075  0.00  0.00    +0.148 HD
BRANCH  10  12
ATOM     12  C   UNL     1       7.266  -2.250  22.540  0.00  0.00    +0.116 C 
BRANCH  12  13
ATOM     13  C   UNL     1       8.443  -1.350  22.931  0.00  0.00    +0.082 C 
BRANCH  13  14
ATOM     14  S   UNL     1       9.779  -2.275  23.760  0.00  0.00    -0.177 S 
ATOM     15  H   UNL     1      10.655  -2.249  22.746  0.00  0.00    +0.102 HD
ENDBRANCH  13  14
ENDBRANCH  12  13
ENDBRANCH  10  12
ENDBRANCH   7  10
ENDBRANCH   3   7
BRANCH   1  16
ATOM     16  C   UNL     1       6.958  -5.434  27.331  0.00  0.00    +0.340 C 
ATOM     17  O   UNL     1       6.393  -5.001  28.323  0.00  0.00    -0.245 OA
BRANCH  16  18
ATOM     18  O   UNL     1       8.262  -5.777  27.308  0.00  0.00    -0.477 OA
ATOM     19  H   UNL     1       8.868  -5.185  27.793  0.00  0.00    +0.295 HD
ENDBRANCH  16  18
ENDBRANCH   1  16
BRANCH   6  20
ATOM     20  O   UNL     1       4.705  -7.216  27.242  0.00  0.00    -0.506 OA
ATOM     21  H   UNL     1       4.032  -6.653  27.685  0.00  0.00    +0.292 HD
ENDBRANCH   6  20
TORSDOF 8
ENDMDL
MODEL 3
REMARK VINA RESULT:      -5.5      3.547      5.438
REMARK  Name = 
REMARK  8 active torsions:
REMARK  status: ('A' for Active; 'I' for Inactive)
REMARK    1  A    between atoms: O_1  and  C_2
REMARK    2  A    between atoms: C_2  and  C_4
REMARK    3  A    between atoms: C_5  and  O_6
REMARK    4  A    between atoms: C_9  and  S_11
REMARK    5  A    between atoms: S_11  and  N_14
REMARK    6  A    between atoms: N_14  and  C_15
REMARK    7  A    between atoms: C_15  and  C_16
REMARK    8  A    between atoms: C_16  and  S_17
REMARK                            x       y       z     vdW  Elec       q    Type
REMARK                         _______ _______ _______ _____ _____    ______ ____
ROOT
ATOM      1  C   UNL     1       8.626  -4.249  24.415  0.00  0.00    +0.102 A 
ATOM      2  C   UNL     1       7.615  -5.040  23.850  0.00  0.00    +0.047 A 
ATOM      3  C   UNL     1       6.884  -4.543  22.763  0.00  0.00    +0.106 A 
ATOM      4  C   UNL     1       7.171  -3.288  22.217  0.00  0.00    +0.032 A 
ATOM      5  C   UNL     1       8.204  -2.523  22.759  0.00  0.00    +0.048 A 
ATOM      6  C   UNL     1       8.929  -3.002  23.849  0.00  0.00    +0.131 A 
ENDROOT
BRANCH   3   7
ATOM      7  S   UNL     1       5.461  -5.441  22.196  0.00  0.00    +0.058 S 
ATOM      8  O   UNL     1       5.708  -5.916  20.855  0.00  0.00    -0.153 OA
ATOM      9  O   UNL     1       4.311  -4.626  22.521  0.00  0.00    -0.153 OA
BRANCH   7  10
ATOM     10  N   UNL     1       5.387  -6.770  23.228  0.00  0.00    -0.189 NA
ATOM     11  H   UNL     1       6.315  -6.917  23.630  0.00  0.00    +0.148 HD
BRANCH  10  12
ATOM     12  C   UNL     1       4.268  -6.818  24.193  0.00  0.00    +0.116 C 
BRANCH  12  13
ATOM     13  C   UNL     1       4.776  -6.662  25.629  0.00  0.00    +0.082 C 
BRANCH  13  14
ATOM     14  S   UNL     1       4.609  -4.952  26.244  0.00  0.00    -0.177 S 
ATOM     15  H   UNL     1       3.356  -4.743  25.818  0.00  0.00    +0.102 HD
ENDBRANCH  13  14
ENDBRANCH  12  13
ENDBRANCH  10  12
ENDBRANCH   7  10
ENDBRANCH   3   7
BRANCH   1  16
ATOM     16  C   UNL     1       9.389  -4.702  25.599  0.00  0.00    +0.340 C 
ATOM     17  O   UNL     1       9.150  -4.270  26.716  0.00  0.00    -0.245 OA
BRANCH  16  18
ATOM     18  O   UNL     1      10.298  -5.667  25.354  0.00  0.00    -0.477 OA
ATOM     19  H   UNL     1       9.969  -6.453  24.876  0.00  0.00    +0.295 HD
ENDBRANCH  16  18
ENDBRANCH   1  16
BRANCH   6  20
ATOM     20  O   UNL     1       9.914  -2.179  24.327  0.00  0.00    -0.506 OA
ATOM     21  H   UNL     1       9.770  -1.271  23.979  0.00  0.00    +0.292 HD
ENDBRANCH   6  20
TORSDOF 8
ENDMDL
MODEL 4
REMARK VINA RESULT:      -5.5      1.929      2.279
REMARK  Name = 
REMARK  8 active torsions:
REMARK  status: ('A' for Active; 'I' for Inactive)
REMARK    1  A    between atoms: O_1  and  C_2
REMARK    2  A    between atoms: C_2  and  C_4
REMARK    3  A    between atoms: C_5  and  O_6
REMARK    4  A    between atoms: C_9  and  S_11
REMARK    5  A    between atoms: S_11  and  N_14
REMARK    6  A    between atoms: N_14  and  C_15
REMARK    7  A    between atoms: C_15  and  C_16
REMARK    8  A    between atoms: C_16  and  S_17
REMARK                            x       y       z     vdW  Elec       q    Type
REMARK                         _______ _______ _______ _____ _____    ______ ____
ROOT
ATOM      1  C   UNL     1       9.574   0.812  23.496  0.00  0.00    +0.102 A 
ATOM      2  C   UNL     1       9.447  -0.428  24.138  0.00  0.00    +0.047 A 
ATOM      3  C   UNL     1       9.320  -1.590  23.365  0.00  0.00    +0.106 A 
ATOM      4  C   UNL     1       9.352  -1.530  21.968  0.00  0.00    +0.032 A 
ATOM      5  C   UNL     1       9.519  -0.298  21.336  0.00  0.00    +0.048 A 
ATOM      6  C   UNL     1       9.632   0.865  22.096  0.00  0.00    +0.131 A 
ENDROOT
BRANCH   3   7
ATOM      7  S   UNL     1       8.930  -3.125  24.168  0.00  0.00    +0.058 S 
ATOM      8  O   UNL     1      10.146  -3.884  24.347  0.00  0.00    -0.153 OA
ATOM      9  O   UNL     1       7.783  -3.666  23.473  0.00  0.00    -0.153 OA
BRANCH   7  10
ATOM     10  N   UNL     1       8.369  -2.653  25.684  0.00  0.00    -0.189 NA
ATOM     11  H   UNL     1       8.274  -1.636  25.690  0.00  0.00    +0.148 HD
BRANCH  10  12
ATOM     12  C   UNL     1       7.218  -3.396  26.241  0.00  0.00    +0.116 C 
BRANCH  12  13
ATOM     13  C   UNL     1       7.665  -4.736  26.833  0.00  0.00    +0.082 C 
BRANCH  13  14
ATOM     14  S   UNL     1       6.349  -5.536  27.812  0.00  0.00    -0.177 S 
ATOM     15  H   UNL     1       7.088  -5.803  28.898  0.00  0.00    +0.102 HD
ENDBRANCH  13  14
ENDBRANCH  12  13
ENDBRANCH  10  12
ENDBRANCH   7  10
ENDBRANCH   3   7
BRANCH   1  16
ATOM     16  C   UNL     1       9.654   2.074  24.264  0.00  0.00    +0.340 C 
ATOM     17  O   UNL     1      10.376   2.993  23.908  0.00  0.00    -0.245 OA
BRANCH  16  18
ATOM     18  O   UNL     1       8.823   2.149  25.323  0.00  0.00    -0.477 OA
ATOM     19  H   UNL     1       7.905   1.852  25.167  0.00  0.00    +0.295 HD
ENDBRANCH  16  18
ENDBRANCH   1  16
BRANCH   6  20
ATOM     20  O   UNL     1       9.777   2.033  21.394  0.00  0.00    -0.506 OA
ATOM     21  H   UNL     1       9.495   1.885  20.464  0.00  0.00    +0.292 HD
ENDBRANCH   6  20
TORSDOF 8
ENDMDL
MODEL 5
REMARK VINA RESULT:      -5.4      3.271      6.723
REMARK  Name = 
REMARK  8 active torsions:
REMARK  status: ('A' for Active; 'I' for Inactive)
REMARK    1  A    between atoms: O_1  and  C_2
REMARK    2  A    between atoms: C_2  and  C_4
REMARK    3  A    between atoms: C_5  and  O_6
REMARK    4  A    between atoms: C_9  and  S_11
REMARK    5  A    between atoms: S_11  and  N_14
REMARK    6  A    between atoms: N_14  and  C_15
REMARK    7  A    between atoms: C_15  and  C_16
REMARK    8  A    between atoms: C_16  and  S_17
REMARK                            x       y       z     vdW  Elec       q    Type
REMARK                         _______ _______ _______ _____ _____    ______ ____
ROOT
ATOM      1  C   UNL     1       5.751  -5.683  23.982  0.00  0.00    +0.102 A 
ATOM      2  C   UNL     1       6.802  -5.051  24.660  0.00  0.00    +0.047 A 
ATOM      3  C   UNL     1       7.799  -4.398  23.922  0.00  0.00    +0.106 A 
ATOM      4  C   UNL     1       7.739  -4.342  22.527  0.00  0.00    +0.032 A 
ATOM      5  C   UNL     1       6.669  -4.939  21.859  0.00  0.00    +0.048 A 
ATOM      6  C   UNL     1       5.680  -5.603  22.584  0.00  0.00    +0.131 A 
ENDROOT
BRANCH   3   7
ATOM      7  S   UNL     1       9.244  -3.799  24.763  0.00  0.00    +0.058 S 
ATOM      8  O   UNL     1      10.056  -4.924  25.162  0.00  0.00    -0.153 OA
ATOM      9  O   UNL     1       8.779  -2.813  25.714  0.00  0.00    -0.153 OA
BRANCH   7  10
ATOM     10  N   UNL     1      10.071  -2.937  23.577  0.00  0.00    -0.189 NA
ATOM     11  H   UNL     1       9.989  -3.446  22.694  0.00  0.00    +0.148 HD
BRANCH  10  12
ATOM     12  C   UNL     1       9.815  -1.484  23.492  0.00  0.00    +0.116 C 
BRANCH  12  13
ATOM     13  C   UNL     1       9.529  -1.061  22.047  0.00  0.00    +0.082 C 
BRANCH  13  14
ATOM     14  S   UNL     1       9.525   0.752  21.843  0.00  0.00    -0.177 S 
ATOM     15  H   UNL     1       8.705   0.800  20.784  0.00  0.00    +0.102 HD
ENDBRANCH  13  14
ENDBRANCH  12  13
ENDBRANCH  10  12
ENDBRANCH   7  10
ENDBRANCH   3   7
BRANCH   1  16
ATOM     16  C   UNL     1       4.704  -6.435  24.709  0.00  0.00    +0.340 C 
ATOM     17  O   UNL     1       4.133  -5.959  25.678  0.00  0.00    -0.245 OA
BRANCH  16  18
ATOM     18  O   UNL     1       4.388  -7.631  24.173  0.00  0.00    -0.477 OA
ATOM     19  H   UNL     1       3.730  -7.616  23.451  0.00  0.00    +0.295 HD
ENDBRANCH  16  18
ENDBRANCH   1  16
BRANCH   6  20
ATOM     20  O   UNL     1       4.675  -6.174  21.847  0.00  0.00    -0.506 OA
ATOM     21  H   UNL     1       3.872  -5.609  21.907  0.00  0.00    +0.292 HD
ENDBRANCH   6  20
TORSDOF 8
ENDMDL
MODEL 6
REMARK VINA RESULT:      -5.3      3.744      6.649
REMARK  Name = 
REMARK  8 active torsions:
REMARK  status: ('A' for Active; 'I' for Inactive)
REMARK    1  A    between atoms: O_1  and  C_2
REMARK    2  A    between atoms: C_2  and  C_4
REMARK    3  A    between atoms: C_5  and  O_6
REMARK    4  A    between atoms: C_9  and  S_11
REMARK    5  A    between atoms: S_11  and  N_14
REMARK    6  A    between atoms: N_14  and  C_15
REMARK    7  A    between atoms: C_15  and  C_16
REMARK    8  A    between atoms: C_16  and  S_17
REMARK                            x       y       z     vdW  Elec       q    Type
REMARK                         _______ _______ _______ _____ _____    ______ ____
ROOT
ATOM      1  C   UNL     1       6.260  -5.316  22.660  0.00  0.00    +0.102 A 
ATOM      2  C   UNL     1       7.454  -4.900  23.266  0.00  0.00    +0.047 A 
ATOM      3  C   UNL     1       7.580  -4.983  24.659  0.00  0.00    +0.106 A 
ATOM      4  C   UNL     1       6.547  -5.504  25.444  0.00  0.00    +0.032 A 
ATOM      5  C   UNL     1       5.377  -5.953  24.831  0.00  0.00    +0.048 A 
ATOM      6  C   UNL     1       5.237  -5.863  23.447  0.00  0.00    +0.131 A 
ENDROOT
BRANCH   3   7
ATOM      7  S   UNL     1       8.993  -4.247  25.444  0.00  0.00    +0.058 S 
ATOM      8  O   UNL     1      10.188  -4.909  24.976  0.00  0.00    -0.153 OA
ATOM      9  O   UNL     1       8.670  -4.151  26.850  0.00  0.00    -0.153 OA
BRANCH   7  10
ATOM     10  N   UNL     1       8.997  -2.666  24.864  0.00  0.00    -0.189 NA
ATOM     11  H   UNL     1       8.999  -2.030  25.664  0.00  0.00    +0.148 HD
BRANCH  10  12
ATOM     12  C   UNL     1       9.965  -2.338  23.796  0.00  0.00    +0.116 C 
BRANCH  12  13
ATOM     13  C   UNL     1      10.051  -0.824  23.581  0.00  0.00    +0.082 C 
BRANCH  13  14
ATOM     14  S   UNL     1       9.638  -0.342  21.870  0.00  0.00    -0.177 S 
ATOM     15  H   UNL     1      10.876  -0.438  21.365  0.00  0.00    +0.102 HD
ENDBRANCH  13  14
ENDBRANCH  12  13
ENDBRANCH  10  12
ENDBRANCH   7  10
ENDBRANCH   3   7
BRANCH   1  16
ATOM     16  C   UNL     1       6.053  -5.197  21.199  0.00  0.00    +0.340 C 
ATOM     17  O   UNL     1       6.110  -6.171  20.465  0.00  0.00    -0.245 OA
BRANCH  16  18
ATOM     18  O   UNL     1       5.728  -3.961  20.770  0.00  0.00    -0.477 OA
ATOM     19  H   UNL     1       6.450  -3.303  20.775  0.00  0.00    +0.295 HD
ENDBRANCH  16  18
ENDBRANCH   1  16
BRANCH   6  20
ATOM     20  O   UNL     1       4.050  -6.312  22.931  0.00  0.00    -0.506 OA
ATOM     21  H   UNL     1       3.972  -7.278  23.098  0.00  0.00    +0.292 HD
ENDBRANCH   6  20
TORSDOF 8
ENDMDL
MODEL 7
REMARK VINA RESULT:      -5.3      5.271      6.738
REMARK  Name = 
REMARK  8 active torsions:
REMARK  status: ('A' for Active; 'I' for Inactive)
REMARK    1  A    between atoms: O_1  and  C_2
REMARK    2  A    between atoms: C_2  and  C_4
REMARK    3  A    between atoms: C_5  and  O_6
REMARK    4  A    between atoms: C_9  and  S_11
REMARK    5  A    between atoms: S_11  and  N_14
REMARK    6  A    between atoms: N_14  and  C_15
REMARK    7  A    between atoms: C_15  and  C_16
REMARK    8  A    between atoms: C_16  and  S_17
REMARK                            x       y       z     vdW  Elec       q    Type
REMARK                         _______ _______ _______ _____ _____    ______ ____
ROOT
ATOM      1  C   UNL     1       7.013  -5.330  26.264  0.00  0.00    +0.102 A 
ATOM      2  C   UNL     1       6.129  -5.519  25.192  0.00  0.00    +0.047 A 
ATOM      3  C   UNL     1       6.586  -5.315  23.883  0.00  0.00    +0.106 A 
ATOM      4  C   UNL     1       7.915  -4.960  23.634  0.00  0.00    +0.032 A 
ATOM      5  C   UNL     1       8.800  -4.812  24.703  0.00  0.00    +0.048 A 
ATOM      6  C   UNL     1       8.351  -5.000  26.009  0.00  0.00    +0.131 A 
ENDROOT
BRANCH   3   7
ATOM      7  S   UNL     1       5.417  -5.330  22.547  0.00  0.00    +0.058 S 
ATOM      8  O   UNL     1       6.009  -5.998  21.412  0.00  0.00    -0.153 OA
ATOM      9  O   UNL     1       4.889  -3.986  22.456  0.00  0.00    -0.153 OA
BRANCH   7  10
ATOM     10  N   UNL     1       4.155  -6.281  23.128  0.00  0.00    -0.189 NA
ATOM     11  H   UNL     1       4.481  -6.775  23.961  0.00  0.00    +0.148 HD
BRANCH  10  12
ATOM     12  C   UNL     1       2.828  -5.642  23.254  0.00  0.00    +0.116 C 
BRANCH  12  13
ATOM     13  C   UNL     1       1.706  -6.665  23.051  0.00  0.00    +0.082 C 
BRANCH  13  14
ATOM     14  S   UNL     1       1.958  -8.178  24.041  0.00  0.00    -0.177 S 
ATOM     15  H   UNL     1       3.208  -7.908  24.443  0.00  0.00    +0.102 HD
ENDBRANCH  13  14
ENDBRANCH  12  13
ENDBRANCH  10  12
ENDBRANCH   7  10
ENDBRANCH   3   7
BRANCH   1  16
ATOM     16  C   UNL     1       6.566  -5.477  27.667  0.00  0.00    +0.340 C 
ATOM     17  O   UNL     1       5.619  -4.843  28.105  0.00  0.00    -0.245 OA
BRANCH  16  18
ATOM     18  O   UNL     1       7.233  -6.407  28.381  0.00  0.00    -0.477 OA
ATOM     19  H   UNL     1       8.024  -6.789  27.953  0.00  0.00    +0.295 HD
ENDBRANCH  16  18
ENDBRANCH   1  16
BRANCH   6  20
ATOM     20  O   UNL     1       9.282  -4.819  26.998  0.00  0.00    -0.506 OA
ATOM     21  H   UNL     1       9.961  -5.528  26.934  0.00  0.00    +0.292 HD
ENDBRANCH   6  20
TORSDOF 8
ENDMDL
MODEL 8
REMARK VINA RESULT:      -5.3      2.166      3.247
REMARK  Name = 
REMARK  8 active torsions:
REMARK  status: ('A' for Active; 'I' for Inactive)
REMARK    1  A    between atoms: O_1  and  C_2
REMARK    2  A    between atoms: C_2  and  C_4
REMARK    3  A    between atoms: C_5  and  O_6
REMARK    4  A    between atoms: C_9  and  S_11
REMARK    5  A    between atoms: S_11  and  N_14
REMARK    6  A    between atoms: N_14  and  C_15
REMARK    7  A    between atoms: C_15  and  C_16
REMARK    8  A    between atoms: C_16  and  S_17
REMARK                            x       y       z     vdW  Elec       q    Type
REMARK                         _______ _______ _______ _____ _____    ______ ____
ROOT
ATOM      1  C   UNL     1       9.562  -1.325  24.083  0.00  0.00    +0.102 A 
ATOM      2  C   UNL     1       9.154  -2.666  24.055  0.00  0.00    +0.047 A 
ATOM      3  C   UNL     1       8.590  -3.235  25.205  0.00  0.00    +0.106 A 
ATOM      4  C   UNL     1       8.401  -2.475  26.363  0.00  0.00    +0.032 A 
ATOM      5  C   UNL     1       8.773  -1.131  26.372  0.00  0.00    +0.048 A 
ATOM      6  C   UNL     1       9.347  -0.559  25.238  0.00  0.00    +0.131 A 
ENDROOT
BRANCH   3   7
ATOM      7  S   UNL     1       8.286  -4.984  25.243  0.00  0.00    +0.058 S 
ATOM      8  O   UNL     1       7.947  -5.373  26.592  0.00  0.00    -0.153 OA
ATOM      9  O   UNL     1       9.375  -5.601  24.518  0.00  0.00    -0.153 OA
BRANCH   7  10
ATOM     10  N   UNL     1       6.922  -5.176  24.274  0.00  0.00    -0.189 NA
ATOM     11  H   UNL     1       6.314  -4.366  24.410  0.00  0.00    +0.148 HD
BRANCH  10  12
ATOM     12  C   UNL     1       7.141  -5.570  22.867  0.00  0.00    +0.116 C 
BRANCH  12  13
ATOM     13  C   UNL     1       6.621  -4.494  21.909  0.00  0.00    +0.082 C 
BRANCH  13  14
ATOM     14  S   UNL     1       5.509  -3.307  22.736  0.00  0.00    -0.177 S 
ATOM     15  H   UNL     1       6.361  -2.918  23.694  0.00  0.00    +0.102 HD
ENDBRANCH  13  14
ENDBRANCH  12  13
ENDBRANCH  10  12
ENDBRANCH   7  10
ENDBRANCH   3   7
BRANCH   1  16
ATOM     16  C   UNL     1      10.215  -0.692  22.915  0.00  0.00    +0.340 C 
ATOM     17  O   UNL     1      10.464   0.503  22.894  0.00  0.00    -0.245 OA
BRANCH  16  18
ATOM     18  O   UNL     1      10.572  -1.544  21.933  0.00  0.00    -0.477 OA
ATOM     19  H   UNL     1      10.551  -1.182  21.025  0.00  0.00    +0.295 HD
ENDBRANCH  16  18
ENDBRANCH   1  16
BRANCH   6  20
ATOM     20  O   UNL     1       9.697   0.762  25.340  0.00  0.00    -0.506 OA
ATOM     21  H   UNL     1      10.677   0.833  25.373  0.00  0.00    +0.292 HD
ENDBRANCH   6  20
TORSDOF 8
ENDMDL
MODEL 9
REMARK VINA RESULT:      -5.2      3.040      6.441
REMARK  Name = 
REMARK  8 active torsions:
REMARK  status: ('A' for Active; 'I' for Inactive)
REMARK    1  A    between atoms: O_1  and  C_2
REMARK    2  A    between atoms: C_2  and  C_4
REMARK    3  A    between atoms: C_5  and  O_6
REMARK    4  A    between atoms: C_9  and  S_11
REMARK    5  A    between atoms: S_11  and  N_14
REMARK    6  A    between atoms: N_14  and  C_15
REMARK    7  A    between atoms: C_15  and  C_16
REMARK    8  A    between atoms: C_16  and  S_17
REMARK                            x       y       z     vdW  Elec       q    Type
REMARK                         _______ _______ _______ _____ _____    ______ ____
ROOT
ATOM      1  C   UNL     1       6.937  -4.333  23.052  0.00  0.00    +0.102 A 
ATOM      2  C   UNL     1       7.891  -3.366  22.707  0.00  0.00    +0.047 A 
ATOM      3  C   UNL     1       8.694  -2.808  23.710  0.00  0.00    +0.106 A 
ATOM      4  C   UNL     1       8.578  -3.226  25.039  0.00  0.00    +0.032 A 
ATOM      5  C   UNL     1       7.654  -4.217  25.370  0.00  0.00    +0.048 A 
ATOM      6  C   UNL     1       6.841  -4.769  24.381  0.00  0.00    +0.131 A 
ENDROOT
BRANCH   3   7
ATOM      7  S   UNL     1       9.738  -1.426  23.313  0.00  0.00    +0.058 S 
ATOM      8  O   UNL     1      10.727  -1.847  22.349  0.00  0.00    -0.153 OA
ATOM      9  O   UNL     1      10.105  -0.821  24.574  0.00  0.00    -0.153 OA
BRANCH   7  10
ATOM     10  N   UNL     1       8.694  -0.336  22.567  0.00  0.00    -0.189 NA
ATOM     11  H   UNL     1       8.197   0.183  23.293  0.00  0.00    +0.148 HD
BRANCH  10  12
ATOM     12  C   UNL     1       9.246   0.488  21.471  0.00  0.00    +0.116 C 
BRANCH  12  13
ATOM     13  C   UNL     1       9.977   1.716  22.023  0.00  0.00    +0.082 C 
BRANCH  13  14
ATOM     14  S   UNL     1       9.064   2.511  23.389  0.00  0.00    -0.177 S 
ATOM     15  H   UNL     1       9.425   1.653  24.353  0.00  0.00    +0.102 HD
ENDBRANCH  13  14
ENDBRANCH  12  13
ENDBRANCH  10  12
ENDBRANCH   7  10
ENDBRANCH   3   7
BRANCH   1  16
ATOM     16  C   UNL     1       6.024  -4.913  22.041  0.00  0.00    +0.340 C 
ATOM     17  O   UNL     1       6.447  -5.569  21.101  0.00  0.00    -0.245 OA
BRANCH  16  18
ATOM     18  O   UNL     1       4.712  -4.723  22.285  0.00  0.00    -0.477 OA
ATOM     19  H   UNL     1       4.390  -5.031  23.155  0.00  0.00    +0.295 HD
ENDBRANCH  16  18
ENDBRANCH   1  16
BRANCH   6  20
ATOM     20  O   UNL     1       5.950  -5.725  24.796  0.00  0.00    -0.506 OA
ATOM     21  H   UNL     1       5.066  -5.311  24.913  0.00  0.00    +0.292 HD
ENDBRANCH   6  20
TORSDOF 8
ENDMDL
