MODEL 1
REMARK VINA RESULT:      -6.7      0.000      0.000
REMARK  Name = 
REMARK  7 active torsions:
REMARK  status: ('A' for Active; 'I' for Inactive)
REMARK    1  A    between atoms: C_1  and  C_2
REMARK    2  A    between atoms: N_4  and  C_5
REMARK    3  A    between atoms: C_9  and  C_11
REMARK    4  A    between atoms: C_11  and  O_12
REMARK    5  A    between atoms: O_12  and  P_13
REMARK    6  A    between atoms: P_13  and  O_14
REMARK    7  A    between atoms: P_13  and  O_15
REMARK                            x       y       z     vdW  Elec       q    Type
REMARK                         _______ _______ _______ _____ _____    ______ ____
ROOT
ATOM      1  C   UNL     1       9.071  -2.830  24.133  0.00  0.00    +0.224 C 
ATOM      2  O   UNL     1       9.158  -1.474  24.601  0.00  0.00    -0.351 OA
ATOM      3  C   UNL     1       9.219  -0.598  23.458  0.00  0.00    +0.147 C 
ATOM      4  C   UNL     1       8.943  -1.461  22.231  0.00  0.00    +0.038 C 
ATOM      5  C   UNL     1       8.304  -2.696  22.825  0.00  0.00    +0.057 C 
ENDROOT
BRANCH   1  14
ATOM      6  C   UNL     1       5.534  -3.852  27.518  0.00  0.00    +0.051 C 
ATOM      7  C   UNL     1       6.826  -4.118  26.815  0.00  0.00    +0.030 A 
ATOM      8  C   UNL     1       7.573  -5.342  27.190  0.00  0.00    +0.257 A 
ATOM      9  O   UNL     1       7.154  -6.102  28.056  0.00  0.00    -0.267 OA
ATOM     10  N   UNL     1       8.732  -5.566  26.522  0.00  0.00    -0.275 N 
ATOM     11  H   UNL     1       9.222  -6.415  26.740  0.00  0.00    +0.173 HD
ATOM     12  C   UNL     1       9.221  -4.822  25.489  0.00  0.00    +0.331 A 
ATOM     13  O   UNL     1      10.207  -5.223  24.873  0.00  0.00    -0.246 OA
ATOM     14  N   UNL     1       8.519  -3.649  25.198  0.00  0.00    -0.274 N 
ATOM     15  C   UNL     1       7.343  -3.342  25.861  0.00  0.00    +0.101 A 
ENDBRANCH   1  14
BRANCH   3  16
ATOM     16  C   UNL     1       8.185   0.504  23.659  0.00  0.00    +0.204 C 
BRANCH  16  17
ATOM     17  O   UNL     1       8.412   1.552  22.711  0.00  0.00    -0.284 OA
BRANCH  17  18
ATOM     18  P   UNL     1       9.847   2.435  23.103  0.00  0.00    +0.472 P 
ATOM     19  O   UNL     1      11.131   3.226  23.455  0.00  0.00    -0.228 OA
BRANCH  18  20
ATOM     20  O   UNL     1       8.879   3.722  22.818  0.00  0.00    -0.303 OA
ATOM     21  H   UNL     1       8.372   3.869  23.639  0.00  0.00    +0.222 HD
ENDBRANCH  18  20
BRANCH  18  22
ATOM     22  O   UNL     1      10.240   2.162  21.540  0.00  0.00    -0.303 OA
ATOM     23  H   UNL     1      10.149   2.987  21.028  0.00  0.00    +0.222 HD
ENDBRANCH  18  22
ENDBRANCH  17  18
ENDBRANCH  16  17
ENDBRANCH   3  16
TORSDOF 6
ENDMDL
MODEL 2
REMARK VINA RESULT:      -6.2      1.998      2.458
REMARK  Name = 
REMARK  7 active torsions:
REMARK  status: ('A' for Active; 'I' for Inactive)
REMARK    1  A    between atoms: C_1  and  C_2
REMARK    2  A    between atoms: N_4  and  C_5
REMARK    3  A    between atoms: C_9  and  C_11
REMARK    4  A    between atoms: C_11  and  O_12
REMARK    5  A    between atoms: O_12  and  P_13
REMARK    6  A    between atoms: P_13  and  O_14
REMARK    7  A    between atoms: P_13  and  O_15
REMARK                            x       y       z     vdW  Elec       q    Type
REMARK                         _______ _______ _______ _____ _____    ______ ____
ROOT
ATOM      1  C   UNL     1       9.086  -2.895  24.008  0.00  0.00    +0.224 C 
ATOM      2  O   UNL     1       9.285  -1.548  24.468  0.00  0.00    -0.351 OA
ATOM      3  C   UNL     1       9.348  -0.676  23.322  0.00  0.00    +0.147 C 
ATOM      4  C   UNL     1       8.956  -1.517  22.112  0.00  0.00    +0.038 C 
ATOM      5  C   UNL     1       8.266  -2.708  22.738  0.00  0.00    +0.057 C 
ENDROOT
BRANCH   1  14
ATOM      6  C   UNL     1       5.526  -3.828  27.395  0.00  0.00    +0.051 C 
ATOM      7  C   UNL     1       6.830  -4.104  26.717  0.00  0.00    +0.030 A 
ATOM      8  C   UNL     1       7.590  -5.299  27.150  0.00  0.00    +0.257 A 
ATOM      9  O   UNL     1       7.172  -6.030  28.043  0.00  0.00    -0.267 OA
ATOM     10  N   UNL     1       8.759  -5.535  26.504  0.00  0.00    -0.275 N 
ATOM     11  H   UNL     1       9.259  -6.367  26.762  0.00  0.00    +0.173 HD
ATOM     12  C   UNL     1       9.249  -4.826  25.446  0.00  0.00    +0.331 A 
ATOM     13  O   UNL     1      10.247  -5.238  24.858  0.00  0.00    -0.246 OA
ATOM     14  N   UNL     1       8.534  -3.677  25.100  0.00  0.00    -0.274 N 
ATOM     15  C   UNL     1       7.347  -3.360  25.737  0.00  0.00    +0.101 A 
ENDBRANCH   1  14
BRANCH   3  16
ATOM     16  C   UNL     1       8.400   0.491  23.572  0.00  0.00    +0.204 C 
BRANCH  16  17
ATOM     17  O   UNL     1       7.522   0.171  24.656  0.00  0.00    -0.284 OA
BRANCH  17  18
ATOM     18  P   UNL     1       6.036   1.047  24.523  0.00  0.00    +0.472 P 
ATOM     19  O   UNL     1       4.706   1.830  24.404  0.00  0.00    -0.228 OA
BRANCH  18  20
ATOM     20  O   UNL     1       5.388  -0.450  24.650  0.00  0.00    -0.303 OA
ATOM     21  H   UNL     1       5.973  -0.949  25.251  0.00  0.00    +0.222 HD
ENDBRANCH  18  20
BRANCH  18  22
ATOM     22  O   UNL     1       6.332   0.973  22.917  0.00  0.00    -0.303 OA
ATOM     23  H   UNL     1       5.646   1.469  22.432  0.00  0.00    +0.222 HD
ENDBRANCH  18  22
ENDBRANCH  17  18
ENDBRANCH  16  17
ENDBRANCH   3  16
TORSDOF 6
ENDMDL
MODEL 3
REMARK VINA RESULT:      -6.2      2.946      3.349
REMARK  Name = 
REMARK  7 active torsions:
REMARK  status: ('A' for Active; 'I' for Inactive)
REMARK    1  A    between atoms: C_1  and  C_2
REMARK    2  A    between atoms: N_4  and  C_5
REMARK    3  A    between atoms: C_9  and  C_11
REMARK    4  A    between atoms: C_11  and  O_12
REMARK    5  A    between atoms: O_12  and  P_13
REMARK    6  A    between atoms: P_13  and  O_14
REMARK    7  A    between atoms: P_13  and  O_15
REMARK                            x       y       z     vdW  Elec       q    Type
REMARK                         _______ _______ _______ _____ _____    ______ ____
ROOT
ATOM      1  C   UNL     1       7.507  -3.755  22.663  0.00  0.00    +0.224 C 
ATOM      2  O   UNL     1       8.592  -3.541  23.579  0.00  0.00    -0.351 OA
ATOM      3  C   UNL     1       9.174  -2.250  23.307  0.00  0.00    +0.147 C 
ATOM      4  C   UNL     1       8.253  -1.558  22.308  0.00  0.00    +0.038 C 
ATOM      5  C   UNL     1       6.970  -2.350  22.428  0.00  0.00    +0.057 C 
ENDROOT
BRANCH   1  14
ATOM      6  C   UNL     1       5.419  -6.114  26.548  0.00  0.00    +0.051 C 
ATOM      7  C   UNL     1       5.645  -5.888  25.087  0.00  0.00    +0.030 A 
ATOM      8  C   UNL     1       4.869  -6.716  24.135  0.00  0.00    +0.257 A 
ATOM      9  O   UNL     1       4.079  -7.568  24.531  0.00  0.00    -0.267 OA
ATOM     10  N   UNL     1       5.081  -6.475  22.818  0.00  0.00    -0.275 N 
ATOM     11  H   UNL     1       4.527  -7.003  22.167  0.00  0.00    +0.173 HD
ATOM     12  C   UNL     1       5.870  -5.492  22.297  0.00  0.00    +0.331 A 
ATOM     13  O   UNL     1       5.856  -5.288  21.086  0.00  0.00    -0.246 OA
ATOM     14  N   UNL     1       6.626  -4.766  23.222  0.00  0.00    -0.274 N 
ATOM     15  C   UNL     1       6.482  -4.979  24.582  0.00  0.00    +0.101 A 
ENDBRANCH   1  14
BRANCH   3  16
ATOM     16  C   UNL     1       9.289  -1.503  24.631  0.00  0.00    +0.204 C 
BRANCH  16  17
ATOM     17  O   UNL     1       8.644  -0.230  24.519  0.00  0.00    -0.284 OA
BRANCH  17  18
ATOM     18  P   UNL     1       9.803   1.028  24.265  0.00  0.00    +0.472 P 
ATOM     19  O   UNL     1      10.842   2.153  24.037  0.00  0.00    -0.228 OA
BRANCH  18  20
ATOM     20  O   UNL     1      10.571   0.281  25.502  0.00  0.00    -0.303 OA
ATOM     21  H   UNL     1      10.934   0.991  26.065  0.00  0.00    +0.222 HD
ENDBRANCH  18  20
BRANCH  18  22
ATOM     22  O   UNL     1       8.795   1.915  25.196  0.00  0.00    -0.303 OA
ATOM     23  H   UNL     1       8.014   1.383  25.437  0.00  0.00    +0.222 HD
ENDBRANCH  18  22
ENDBRANCH  17  18
ENDBRANCH  16  17
ENDBRANCH   3  16
TORSDOF 6
ENDMDL
MODEL 4
REMARK VINA RESULT:      -6.2      2.314      2.942
REMARK  Name = 
REMARK  7 active torsions:
REMARK  status: ('A' for Active; 'I' for Inactive)
REMARK    1  A    between atoms: C_1  and  C_2
REMARK    2  A    between atoms: N_4  and  C_5
REMARK    3  A    between atoms: C_9  and  C_11
REMARK    4  A    between atoms: C_11  and  O_12
REMARK    5  A    between atoms: O_12  and  P_13
REMARK    6  A    between atoms: P_13  and  O_14
REMARK    7  A    between atoms: P_13  and  O_15
REMARK                            x       y       z     vdW  Elec       q    Type
REMARK                         _______ _______ _______ _____ _____    ______ ____
ROOT
ATOM      1  C   UNL     1       9.745  -1.833  24.087  0.00  0.00    +0.224 C 
ATOM      2  O   UNL     1       9.156  -0.906  25.012  0.00  0.00    -0.351 OA
ATOM      3  C   UNL     1       9.886   0.335  24.946  0.00  0.00    +0.147 C 
ATOM      4  C   UNL     1      10.840   0.218  23.762  0.00  0.00    +0.038 C 
ATOM      5  C   UNL     1      10.255  -0.931  22.971  0.00  0.00    +0.057 C 
ENDROOT
BRANCH   1  14
ATOM      6  C   UNL     1       5.568  -3.389  21.818  0.00  0.00    +0.051 C 
ATOM      7  C   UNL     1       6.765  -3.584  22.694  0.00  0.00    +0.030 A 
ATOM      8  C   UNL     1       7.002  -4.940  23.241  0.00  0.00    +0.257 A 
ATOM      9  O   UNL     1       6.238  -5.868  22.995  0.00  0.00    -0.267 OA
ATOM     10  N   UNL     1       8.105  -5.090  24.016  0.00  0.00    -0.275 N 
ATOM     11  H   UNL     1       8.297  -6.016  24.355  0.00  0.00    +0.173 HD
ATOM     12  C   UNL     1       9.049  -4.138  24.264  0.00  0.00    +0.331 A 
ATOM     13  O   UNL     1      10.076  -4.451  24.861  0.00  0.00    -0.246 OA
ATOM     14  N   UNL     1       8.765  -2.859  23.777  0.00  0.00    -0.274 N 
ATOM     15  C   UNL     1       7.642  -2.627  23.002  0.00  0.00    +0.101 A 
ENDBRANCH   1  14
BRANCH   3  16
ATOM     16  C   UNL     1       8.874   1.464  24.789  0.00  0.00    +0.204 C 
BRANCH  16  17
ATOM     17  O   UNL     1       9.344   2.395  23.809  0.00  0.00    -0.284 OA
BRANCH  17  18
ATOM     18  P   UNL     1       8.057   2.892  22.765  0.00  0.00    +0.472 P 
ATOM     19  O   UNL     1       6.905   3.336  21.831  0.00  0.00    -0.228 OA
BRANCH  18  20
ATOM     20  O   UNL     1       7.483   1.400  23.112  0.00  0.00    -0.303 OA
ATOM     21  H   UNL     1       6.532   1.417  22.895  0.00  0.00    +0.222 HD
ENDBRANCH  18  20
BRANCH  18  22
ATOM     22  O   UNL     1       9.068   2.416  21.571  0.00  0.00    -0.303 OA
ATOM     23  H   UNL     1       9.976   2.336  21.919  0.00  0.00    +0.222 HD
ENDBRANCH  18  22
ENDBRANCH  17  18
ENDBRANCH  16  17
ENDBRANCH   3  16
TORSDOF 6
ENDMDL
MODEL 5
REMARK VINA RESULT:      -6.1      3.500      6.435
REMARK  Name = 
REMARK  7 active torsions:
REMARK  status: ('A' for Active; 'I' for Inactive)
REMARK    1  A    between atoms: C_1  and  C_2
REMARK    2  A    between atoms: N_4  and  C_5
REMARK    3  A    between atoms: C_9  and  C_11
REMARK    4  A    between atoms: C_11  and  O_12
REMARK    5  A    between atoms: O_12  and  P_13
REMARK    6  A    between atoms: P_13  and  O_14
REMARK    7  A    between atoms: P_13  and  O_15
REMARK                            x       y       z     vdW  Elec       q    Type
REMARK                         _______ _______ _______ _____ _____    ______ ____
ROOT
ATOM      1  C   UNL     1       9.191  -2.521  24.493  0.00  0.00    +0.224 C 
ATOM      2  O   UNL     1       8.688  -3.694  23.834  0.00  0.00    -0.351 OA
ATOM      3  C   UNL     1       8.497  -4.728  24.820  0.00  0.00    +0.147 C 
ATOM      4  C   UNL     1       8.699  -4.074  26.183  0.00  0.00    +0.038 C 
ATOM      5  C   UNL     1       8.554  -2.601  25.874  0.00  0.00    +0.057 C 
ENDROOT
BRANCH   1  14
ATOM      6  C   UNL     1       6.585   1.601  23.383  0.00  0.00    +0.051 C 
ATOM      7  C   UNL     1       7.659   0.592  23.131  0.00  0.00    +0.030 A 
ATOM      8  C   UNL     1       8.552   0.814  21.970  0.00  0.00    +0.257 A 
ATOM      9  O   UNL     1       8.407   1.784  21.233  0.00  0.00    -0.267 OA
ATOM     10  N   UNL     1       9.528  -0.108  21.779  0.00  0.00    -0.275 N 
ATOM     11  H   UNL     1      10.164   0.059  21.020  0.00  0.00    +0.173 HD
ATOM     12  C   UNL     1       9.812  -1.160  22.599  0.00  0.00    +0.331 A 
ATOM     13  O   UNL     1      10.819  -1.832  22.388  0.00  0.00    -0.246 OA
ATOM     14  N   UNL     1       8.918  -1.369  23.652  0.00  0.00    -0.274 N 
ATOM     15  C   UNL     1       7.881  -0.483  23.890  0.00  0.00    +0.101 A 
ENDBRANCH   1  14
BRANCH   3  16
ATOM     16  C   UNL     1       7.096  -5.299  24.632  0.00  0.00    +0.204 C 
BRANCH  16  17
ATOM     17  O   UNL     1       6.309  -4.389  23.857  0.00  0.00    -0.284 OA
BRANCH  17  18
ATOM     18  P   UNL     1       6.038  -5.011  22.265  0.00  0.00    +0.472 P 
ATOM     19  O   UNL     1       5.796  -5.567  20.841  0.00  0.00    -0.228 OA
BRANCH  18  20
ATOM     20  O   UNL     1       6.661  -3.564  21.823  0.00  0.00    -0.303 OA
ATOM     21  H   UNL     1       6.628  -3.000  22.618  0.00  0.00    +0.222 HD
ENDBRANCH  18  20
BRANCH  18  22
ATOM     22  O   UNL     1       4.511  -4.479  22.500  0.00  0.00    -0.303 OA
ATOM     23  H   UNL     1       4.475  -3.512  22.377  0.00  0.00    +0.222 HD
ENDBRANCH  18  22
ENDBRANCH  17  18
ENDBRANCH  16  17
ENDBRANCH   3  16
TORSDOF 6
ENDMDL
MODEL 6
REMARK VINA RESULT:      -6.0      2.850      3.598
REMARK  Name = 
REMARK  7 active torsions:
REMARK  status: ('A' for Active; 'I' for Inactive)
REMARK    1  A    between atoms: C_1  and  C_2
REMARK    2  A    between atoms: N_4  and  C_5
REMARK    3  A    between atoms: C_9  and  C_11
REMARK    4  A    between atoms: C_11  and  O_12
REMARK    5  A    between atoms: O_12  and  P_13
REMARK    6  A    between atoms: P_13  and  O_14
REMARK    7  A    between atoms: P_13  and  O_15
REMARK                            x       y       z     vdW  Elec       q    Type
REMARK                         _______ _______ _______ _____ _____    ______ ____
ROOT
ATOM      1  C   UNL     1       7.873  -1.766  24.245  0.00  0.00    +0.224 C 
ATOM      2  O   UNL     1       7.950  -0.689  23.297  0.00  0.00    -0.351 OA
ATOM      3  C   UNL     1       9.155   0.060  23.550  0.00  0.00    +0.147 C 
ATOM      4  C   UNL     1       9.956  -0.735  24.577  0.00  0.00    +0.038 C 
ATOM      5  C   UNL     1       9.334  -2.112  24.495  0.00  0.00    +0.057 C 
ENDROOT
BRANCH   1  14
ATOM      6  C   UNL     1       7.053  -6.078  21.848  0.00  0.00    +0.051 C 
ATOM      7  C   UNL     1       6.609  -4.840  22.559  0.00  0.00    +0.030 A 
ATOM      8  C   UNL     1       5.157  -4.665  22.791  0.00  0.00    +0.257 A 
ATOM      9  O   UNL     1       4.345  -5.499  22.402  0.00  0.00    -0.267 OA
ATOM     10  N   UNL     1       4.786  -3.542  23.455  0.00  0.00    -0.275 N 
ATOM     11  H   UNL     1       3.807  -3.437  23.655  0.00  0.00    +0.173 HD
ATOM     12  C   UNL     1       5.626  -2.614  23.997  0.00  0.00    +0.331 A 
ATOM     13  O   UNL     1       5.162  -1.722  24.703  0.00  0.00    -0.246 OA
ATOM     14  N   UNL     1       6.984  -2.783  23.712  0.00  0.00    -0.274 N 
ATOM     15  C   UNL     1       7.431  -3.892  23.015  0.00  0.00    +0.101 A 
ENDBRANCH   1  14
BRANCH   3  16
ATOM     16  C   UNL     1       9.887   0.230  22.224  0.00  0.00    +0.204 C 
BRANCH  16  17
ATOM     17  O   UNL     1       9.817   1.599  21.811  0.00  0.00    -0.284 OA
BRANCH  17  18
ATOM     18  P   UNL     1       9.520   2.636  23.164  0.00  0.00    +0.472 P 
ATOM     19  O   UNL     1       9.255   3.563  24.375  0.00  0.00    -0.228 OA
BRANCH  18  20
ATOM     20  O   UNL     1       8.535   3.392  22.100  0.00  0.00    -0.303 OA
ATOM     21  H   UNL     1       7.921   2.711  21.767  0.00  0.00    +0.222 HD
ENDBRANCH  18  20
BRANCH  18  22
ATOM     22  O   UNL     1      10.897   3.375  22.685  0.00  0.00    -0.303 OA
ATOM     23  H   UNL     1      10.708   4.303  22.450  0.00  0.00    +0.222 HD
ENDBRANCH  18  22
ENDBRANCH  17  18
ENDBRANCH  16  17
ENDBRANCH   3  16
TORSDOF 6
ENDMDL
MODEL 7
REMARK VINA RESULT:      -6.0      3.643      6.493
REMARK  Name = 
REMARK  7 active torsions:
REMARK  status: ('A' for Active; 'I' for Inactive)
REMARK    1  A    between atoms: C_1  and  C_2
REMARK    2  A    between atoms: N_4  and  C_5
REMARK    3  A    between atoms: C_9  and  C_11
REMARK    4  A    between atoms: C_11  and  O_12
REMARK    5  A    between atoms: O_12  and  P_13
REMARK    6  A    between atoms: P_13  and  O_14
REMARK    7  A    between atoms: P_13  and  O_15
REMARK                            x       y       z     vdW  Elec       q    Type
REMARK                         _______ _______ _______ _____ _____    ______ ____
ROOT
ATOM      1  C   UNL     1       6.904  -2.322  25.623  0.00  0.00    +0.224 C 
ATOM      2  O   UNL     1       7.203  -3.709  25.398  0.00  0.00    -0.351 OA
ATOM      3  C   UNL     1       5.967  -4.450  25.394  0.00  0.00    +0.147 C 
ATOM      4  C   UNL     1       4.841  -3.422  25.410  0.00  0.00    +0.038 C 
ATOM      5  C   UNL     1       5.538  -2.153  24.972  0.00  0.00    +0.057 C 
ENDROOT
BRANCH   1  14
ATOM      6  C   UNL     1       9.819  -0.591  21.947  0.00  0.00    +0.051 C 
ATOM      7  C   UNL     1       9.409  -0.716  23.379  0.00  0.00    +0.030 A 
ATOM      8  C   UNL     1      10.160   0.075  24.381  0.00  0.00    +0.257 A 
ATOM      9  O   UNL     1      11.095   0.798  24.049  0.00  0.00    -0.267 OA
ATOM     10  N   UNL     1       9.753  -0.044  25.669  0.00  0.00    -0.275 N 
ATOM     11  H   UNL     1      10.229   0.522  26.348  0.00  0.00    +0.173 HD
ATOM     12  C   UNL     1       8.672  -0.753  26.108  0.00  0.00    +0.331 A 
ATOM     13  O   UNL     1       8.327  -0.655  27.283  0.00  0.00    -0.246 OA
ATOM     14  N   UNL     1       8.021  -1.527  25.144  0.00  0.00    -0.274 N 
ATOM     15  C   UNL     1       8.402  -1.476  23.814  0.00  0.00    +0.101 A 
ENDBRANCH   1  14
BRANCH   3  16
ATOM     16  C   UNL     1       5.955  -5.331  24.150  0.00  0.00    +0.204 C 
BRANCH  16  17
ATOM     17  O   UNL     1       6.908  -4.835  23.203  0.00  0.00    -0.284 OA
BRANCH  17  18
ATOM     18  P   UNL     1       6.428  -5.222  21.587  0.00  0.00    +0.472 P 
ATOM     19  O   UNL     1       5.999  -5.568  20.140  0.00  0.00    -0.228 OA
BRANCH  18  20
ATOM     20  O   UNL     1       5.070  -4.423  22.024  0.00  0.00    -0.303 OA
ATOM     21  H   UNL     1       4.917  -3.749  21.334  0.00  0.00    +0.222 HD
ENDBRANCH  18  20
BRANCH  18  22
ATOM     22  O   UNL     1       6.002  -6.660  22.237  0.00  0.00    -0.303 OA
ATOM     23  H   UNL     1       5.152  -6.571  22.707  0.00  0.00    +0.222 HD
ENDBRANCH  18  22
ENDBRANCH  17  18
ENDBRANCH  16  17
ENDBRANCH   3  16
TORSDOF 6
ENDMDL
MODEL 8
REMARK VINA RESULT:      -5.9      3.254      4.127
REMARK  Name = 
REMARK  7 active torsions:
REMARK  status: ('A' for Active; 'I' for Inactive)
REMARK    1  A    between atoms: C_1  and  C_2
REMARK    2  A    between atoms: N_4  and  C_5
REMARK    3  A    between atoms: C_9  and  C_11
REMARK    4  A    between atoms: C_11  and  O_12
REMARK    5  A    between atoms: O_12  and  P_13
REMARK    6  A    between atoms: P_13  and  O_14
REMARK    7  A    between atoms: P_13  and  O_15
REMARK                            x       y       z     vdW  Elec       q    Type
REMARK                         _______ _______ _______ _____ _____    ______ ____
ROOT
ATOM      1  C   UNL     1       7.425  -3.935  22.745  0.00  0.00    +0.224 C 
ATOM      2  O   UNL     1       8.538  -3.790  23.641  0.00  0.00    -0.351 OA
ATOM      3  C   UNL     1       9.167  -2.518  23.389  0.00  0.00    +0.147 C 
ATOM      4  C   UNL     1       8.255  -1.762  22.429  0.00  0.00    +0.038 C 
ATOM      5  C   UNL     1       6.943  -2.503  22.558  0.00  0.00    +0.057 C 
ENDROOT
BRANCH   1  14
ATOM      6  C   UNL     1       5.249  -6.237  26.615  0.00  0.00    +0.051 C 
ATOM      7  C   UNL     1       5.492  -6.018  25.156  0.00  0.00    +0.030 A 
ATOM      8  C   UNL     1       4.703  -6.828  24.199  0.00  0.00    +0.257 A 
ATOM      9  O   UNL     1       3.889  -7.659  24.590  0.00  0.00    -0.267 OA
ATOM     10  N   UNL     1       4.931  -6.594  22.883  0.00  0.00    -0.275 N 
ATOM     11  H   UNL     1       4.369  -7.108  22.229  0.00  0.00    +0.173 HD
ATOM     12  C   UNL     1       5.749  -5.631  22.368  0.00  0.00    +0.331 A 
ATOM     13  O   UNL     1       5.749  -5.428  21.156  0.00  0.00    -0.246 OA
ATOM     14  N   UNL     1       6.515  -4.923  23.298  0.00  0.00    -0.274 N 
ATOM     15  C   UNL     1       6.355  -5.131  24.657  0.00  0.00    +0.101 A 
ENDBRANCH   1  14
BRANCH   3  16
ATOM     16  C   UNL     1       9.342  -1.810  24.728  0.00  0.00    +0.204 C 
BRANCH  16  17
ATOM     17  O   UNL     1       8.631  -0.568  24.710  0.00  0.00    -0.284 OA
BRANCH  17  18
ATOM     18  P   UNL     1       7.709  -0.366  26.160  0.00  0.00    +0.472 P 
ATOM     19  O   UNL     1       6.884  -0.184  27.457  0.00  0.00    -0.228 OA
BRANCH  18  20
ATOM     20  O   UNL     1       9.183  -0.472  26.861  0.00  0.00    -0.303 OA
ATOM     21  H   UNL     1       9.286   0.333  27.402  0.00  0.00    +0.222 HD
ENDBRANCH  18  20
BRANCH  18  22
ATOM     22  O   UNL     1       7.462  -1.976  26.027  0.00  0.00    -0.303 OA
ATOM     23  H   UNL     1       8.249  -2.458  26.342  0.00  0.00    +0.222 HD
ENDBRANCH  18  22
ENDBRANCH  17  18
ENDBRANCH  16  17
ENDBRANCH   3  16
TORSDOF 6
ENDMDL
MODEL 9
REMARK VINA RESULT:      -5.9      3.403      7.313
REMARK  Name = 
REMARK  7 active torsions:
REMARK  status: ('A' for Active; 'I' for Inactive)
REMARK    1  A    between atoms: C_1  and  C_2
REMARK    2  A    between atoms: N_4  and  C_5
REMARK    3  A    between atoms: C_9  and  C_11
REMARK    4  A    between atoms: C_11  and  O_12
REMARK    5  A    between atoms: O_12  and  P_13
REMARK    6  A    between atoms: P_13  and  O_14
REMARK    7  A    between atoms: P_13  and  O_15
REMARK                            x       y       z     vdW  Elec       q    Type
REMARK                         _______ _______ _______ _____ _____    ______ ____
ROOT
ATOM      1  C   UNL     1       8.863  -0.689  22.829  0.00  0.00    +0.224 C 
ATOM      2  O   UNL     1       7.821  -1.677  22.783  0.00  0.00    -0.351 OA
ATOM      3  C   UNL     1       8.308  -2.886  23.397  0.00  0.00    +0.147 C 
ATOM      4  C   UNL     1       9.648  -2.542  24.038  0.00  0.00    +0.038 C 
ATOM      5  C   UNL     1       9.608  -1.031  24.112  0.00  0.00    +0.057 C 
ENDROOT
BRANCH   1  14
ATOM      6  C   UNL     1       5.129   2.544  23.615  0.00  0.00    +0.051 C 
ATOM      7  C   UNL     1       6.463   2.153  23.065  0.00  0.00    +0.030 A 
ATOM      8  C   UNL     1       7.256   3.198  22.377  0.00  0.00    +0.257 A 
ATOM      9  O   UNL     1       6.827   4.341  22.251  0.00  0.00    -0.267 OA
ATOM     10  N   UNL     1       8.470   2.819  21.907  0.00  0.00    -0.275 N 
ATOM     11  H   UNL     1       9.031   3.532  21.478  0.00  0.00    +0.173 HD
ATOM     12  C   UNL     1       9.055   1.599  22.084  0.00  0.00    +0.331 A 
ATOM     13  O   UNL     1      10.222   1.436  21.734  0.00  0.00    -0.246 OA
ATOM     14  N   UNL     1       8.258   0.624  22.689  0.00  0.00    -0.274 N 
ATOM     15  C   UNL     1       6.997   0.934  23.169  0.00  0.00    +0.101 A 
ENDBRANCH   1  14
BRANCH   3  16
ATOM     16  C   UNL     1       7.264  -3.349  24.407  0.00  0.00    +0.204 C 
BRANCH  16  17
ATOM     17  O   UNL     1       7.916  -3.985  25.511  0.00  0.00    -0.284 OA
BRANCH  17  18
ATOM     18  P   UNL     1       6.933  -5.253  26.159  0.00  0.00    +0.472 P 
ATOM     19  O   UNL     1       6.053  -6.388  26.738  0.00  0.00    -0.228 OA
BRANCH  18  20
ATOM     20  O   UNL     1       6.697  -4.169  27.361  0.00  0.00    -0.303 OA
ATOM     21  H   UNL     1       7.324  -3.440  27.197  0.00  0.00    +0.222 HD
ENDBRANCH  18  20
BRANCH  18  22
ATOM     22  O   UNL     1       8.352  -5.835  26.725  0.00  0.00    -0.303 OA
ATOM     23  H   UNL     1       9.017  -5.122  26.744  0.00  0.00    +0.222 HD
ENDBRANCH  18  22
ENDBRANCH  17  18
ENDBRANCH  16  17
ENDBRANCH   3  16
TORSDOF 6
ENDMDL
