MODEL 1
REMARK VINA RESULT:      -7.8      0.000      0.000
REMARK  Name = 
REMARK  9 active torsions:
REMARK  status: ('A' for Active; 'I' for Inactive)
REMARK    1  A    between atoms: C_1  and  O_2
REMARK    2  A    between atoms: O_2  and  C_3
REMARK    3  A    between atoms: C_4  and  C_28
REMARK    4  A    between atoms: C_7  and  O_8
REMARK    5  A    between atoms: O_8  and  C_9
REMARK    6  A    between atoms: C_13  and  N_14
REMARK    7  A    between atoms: C_15  and  O_16
REMARK    8  A    between atoms: N_17  and  C_18
REMARK    9  A    between atoms: C_28  and  O_29
REMARK                            x       y       z     vdW  Elec       q    Type
REMARK                         _______ _______ _______ _____ _____    ______ ____
ROOT
ATOM      1  C   UNL     1       4.504  -6.585  25.712  0.00  0.00    +0.134 A 
ATOM      2  C   UNL     1       4.362  -6.486  24.321  0.00  0.00    +0.074 A 
ATOM      3  C   UNL     1       5.326  -5.902  23.519  0.00  0.00    +0.078 A 
ATOM      4  C   UNL     1       6.491  -5.390  24.116  0.00  0.00    +0.044 A 
ATOM      5  C   UNL     1       7.445  -4.797  23.257  0.00  0.00    +0.139 A 
ATOM      6  C   UNL     1       7.239  -4.814  21.877  0.00  0.00    +0.066 A 
ATOM      7  C   UNL     1       6.053  -5.330  21.404  0.00  0.00    +0.115 A 
ATOM      8  C   UNL     1       6.648  -5.500  25.523  0.00  0.00    +0.030 A 
ATOM      9  N   UNL     1       5.101  -5.859  22.198  0.00  0.00    -0.255 NA
ATOM     10  C   UNL     1       5.674  -6.109  26.336  0.00  0.00    +0.078 A 
ENDROOT
BRANCH  10  11
ATOM     11  C   UNL     1       5.858  -6.232  27.822  0.00  0.00    +0.216 C 
ATOM     12  N   UNL     1       6.281  -5.308  28.610  0.00  0.00    -0.267 NA
ATOM     13  H   UNL     1       6.464  -4.449  28.076  0.00  0.00    +0.190 HD
BRANCH  11  14
ATOM     14  O   UNL     1       5.564  -7.399  28.415  0.00  0.00    -0.492 OA
ATOM     15  H   UNL     1       5.329  -8.134  27.841  0.00  0.00    +0.294 HD
ENDBRANCH  11  14
ENDBRANCH  10  11
BRANCH   1  17
ATOM     16  C   UNL     1       2.300  -6.528  26.613  0.00  0.00    +0.277 C 
ATOM     17  O   UNL     1       3.551  -7.204  26.486  0.00  0.00    -0.494 OA
ENDBRANCH   1  17
BRANCH   5  18
ATOM     18  O   UNL     1       8.583  -4.265  23.850  0.00  0.00    -0.455 OA
BRANCH  18  19
ATOM     19  C   UNL     1       8.748  -2.901  23.905  0.00  0.00    +0.130 A 
ATOM     20  C   UNL     1       8.690  -2.307  25.166  0.00  0.00    +0.048 A 
ATOM     21  C   UNL     1       8.974  -0.949  25.311  0.00  0.00    +0.028 A 
ATOM     22  C   UNL     1       9.336  -0.159  24.208  0.00  0.00    +0.053 A 
ATOM     23  C   UNL     1       9.250  -0.747  22.933  0.00  0.00    +0.066 A 
ATOM     24 CL   UNL     1       9.622   0.167  21.511  0.00  0.00    -0.082 Cl
ATOM     25  C   UNL     1       8.933  -2.101  22.778  0.00  0.00    +0.068 A 
BRANCH  22  26
ATOM     26  N   UNL     1       9.906   1.118  24.377  0.00  0.00    -0.268 N 
ATOM     27  H   UNL     1      10.884   1.129  24.648  0.00  0.00    +0.157 HD
ATOM     28  C   UNL     1       9.362   2.348  24.161  0.00  0.00    +0.280 C 
ATOM     29  N   UNL     1      10.055   3.430  23.993  0.00  0.00    -0.233 NA
BRANCH  29  30
ATOM     30  C   UNL     1       9.328   4.657  23.823  0.00  0.00    +0.110 C 
ATOM     31  C   UNL     1      10.163   5.909  23.772  0.00  0.00    +0.029 C 
ATOM     32  C   UNL     1       9.327   5.622  24.980  0.00  0.00    +0.029 C 
ENDBRANCH  29  30
BRANCH  28  33
ATOM     33  O   UNL     1       8.017   2.398  24.202  0.00  0.00    -0.482 OA
ATOM     34  H   UNL     1       7.647   1.507  24.276  0.00  0.00    +0.295 HD
ENDBRANCH  28  33
ENDBRANCH  22  26
ENDBRANCH  18  19
ENDBRANCH   5  18
TORSDOF 8
ENDMDL
MODEL 2
REMARK VINA RESULT:      -7.8      1.359      1.606
REMARK  Name = 
REMARK  9 active torsions:
REMARK  status: ('A' for Active; 'I' for Inactive)
REMARK    1  A    between atoms: C_1  and  O_2
REMARK    2  A    between atoms: O_2  and  C_3
REMARK    3  A    between atoms: C_4  and  C_28
REMARK    4  A    between atoms: C_7  and  O_8
REMARK    5  A    between atoms: O_8  and  C_9
REMARK    6  A    between atoms: C_13  and  N_14
REMARK    7  A    between atoms: C_15  and  O_16
REMARK    8  A    between atoms: N_17  and  C_18
REMARK    9  A    between atoms: C_28  and  O_29
REMARK                            x       y       z     vdW  Elec       q    Type
REMARK                         _______ _______ _______ _____ _____    ______ ____
ROOT
ATOM      1  C   UNL     1       4.393  -6.170  25.677  0.00  0.00    +0.134 A 
ATOM      2  C   UNL     1       4.275  -5.841  24.320  0.00  0.00    +0.074 A 
ATOM      3  C   UNL     1       5.322  -5.302  23.594  0.00  0.00    +0.078 A 
ATOM      4  C   UNL     1       6.550  -5.074  24.238  0.00  0.00    +0.044 A 
ATOM      5  C   UNL     1       7.589  -4.516  23.458  0.00  0.00    +0.139 A 
ATOM      6  C   UNL     1       7.389  -4.293  22.096  0.00  0.00    +0.066 A 
ATOM      7  C   UNL     1       6.138  -4.540  21.575  0.00  0.00    +0.115 A 
ATOM      8  C   UNL     1       6.683  -5.418  25.609  0.00  0.00    +0.030 A 
ATOM      9  N   UNL     1       5.112  -5.026  22.300  0.00  0.00    -0.255 NA
ATOM     10  C   UNL     1       5.622  -5.983  26.341  0.00  0.00    +0.078 A 
ENDROOT
BRANCH  10  11
ATOM     11  C   UNL     1       5.779  -6.355  27.789  0.00  0.00    +0.216 C 
ATOM     12  N   UNL     1       6.356  -5.647  28.693  0.00  0.00    -0.267 NA
ATOM     13  H   UNL     1       6.689  -4.763  28.287  0.00  0.00    +0.190 HD
BRANCH  11  14
ATOM     14  O   UNL     1       5.282  -7.528  28.211  0.00  0.00    -0.492 OA
ATOM     15  H   UNL     1       5.474  -8.302  27.674  0.00  0.00    +0.294 HD
ENDBRANCH  11  14
ENDBRANCH  10  11
BRANCH   1  17
ATOM     16  C   UNL     1       2.541  -7.666  25.646  0.00  0.00    +0.277 C 
ATOM     17  O   UNL     1       3.352  -6.741  26.369  0.00  0.00    -0.494 OA
ENDBRANCH   1  17
BRANCH   5  18
ATOM     18  O   UNL     1       8.795  -4.265  24.101  0.00  0.00    -0.455 OA
BRANCH  18  19
ATOM     19  C   UNL     1       9.106  -2.982  24.487  0.00  0.00    +0.130 A 
ATOM     20  C   UNL     1       9.951  -2.256  23.647  0.00  0.00    +0.048 A 
ATOM     21  C   UNL     1      10.207  -0.910  23.908  0.00  0.00    +0.028 A 
ATOM     22  C   UNL     1       9.614  -0.256  25.001  0.00  0.00    +0.053 A 
ATOM     23  C   UNL     1       8.882  -1.041  25.908  0.00  0.00    +0.066 A 
ATOM     24 CL   UNL     1       8.164  -0.331  27.314  0.00  0.00    -0.082 Cl
ATOM     25  C   UNL     1       8.650  -2.400  25.669  0.00  0.00    +0.068 A 
BRANCH  22  26
ATOM     26  N   UNL     1       9.623   1.150  25.104  0.00  0.00    -0.268 N 
ATOM     27  H   UNL     1      10.268   1.535  25.785  0.00  0.00    +0.157 HD
ATOM     28  C   UNL     1       8.946   2.078  24.372  0.00  0.00    +0.280 C 
ATOM     29  N   UNL     1       9.283   3.327  24.292  0.00  0.00    -0.233 NA
BRANCH  29  30
ATOM     30  C   UNL     1       8.436   4.189  23.516  0.00  0.00    +0.110 C 
ATOM     31  C   UNL     1       8.797   5.651  23.535  0.00  0.00    +0.029 C 
ATOM     32  C   UNL     1       7.583   5.175  24.270  0.00  0.00    +0.029 C 
ENDBRANCH  29  30
BRANCH  28  33
ATOM     33  O   UNL     1       7.825   1.634  23.772  0.00  0.00    -0.482 OA
ATOM     34  H   UNL     1       7.964   0.748  23.409  0.00  0.00    +0.295 HD
ENDBRANCH  28  33
ENDBRANCH  22  26
ENDBRANCH  18  19
ENDBRANCH   5  18
TORSDOF 8
ENDMDL
MODEL 3
REMARK VINA RESULT:      -7.4      1.650      3.443
REMARK  Name = 
REMARK  9 active torsions:
REMARK  status: ('A' for Active; 'I' for Inactive)
REMARK    1  A    between atoms: C_1  and  O_2
REMARK    2  A    between atoms: O_2  and  C_3
REMARK    3  A    between atoms: C_4  and  C_28
REMARK    4  A    between atoms: C_7  and  O_8
REMARK    5  A    between atoms: O_8  and  C_9
REMARK    6  A    between atoms: C_13  and  N_14
REMARK    7  A    between atoms: C_15  and  O_16
REMARK    8  A    between atoms: N_17  and  C_18
REMARK    9  A    between atoms: C_28  and  O_29
REMARK                            x       y       z     vdW  Elec       q    Type
REMARK                         _______ _______ _______ _____ _____    ______ ____
ROOT
ATOM      1  C   UNL     1       4.558  -5.799  23.440  0.00  0.00    +0.134 A 
ATOM      2  C   UNL     1       4.462  -6.078  24.811  0.00  0.00    +0.074 A 
ATOM      3  C   UNL     1       5.499  -5.828  25.691  0.00  0.00    +0.078 A 
ATOM      4  C   UNL     1       6.694  -5.275  25.197  0.00  0.00    +0.044 A 
ATOM      5  C   UNL     1       7.727  -5.042  26.133  0.00  0.00    +0.139 A 
ATOM      6  C   UNL     1       7.504  -5.288  27.488  0.00  0.00    +0.066 A 
ATOM      7  C   UNL     1       6.299  -5.845  27.856  0.00  0.00    +0.115 A 
ATOM      8  C   UNL     1       6.793  -4.976  23.813  0.00  0.00    +0.030 A 
ATOM      9  N   UNL     1       5.310  -6.124  26.984  0.00  0.00    -0.255 NA
ATOM     10  C   UNL     1       5.731  -5.215  22.921  0.00  0.00    +0.078 A 
ENDROOT
BRANCH  10  11
ATOM     11  C   UNL     1       5.843  -4.883  21.461  0.00  0.00    +0.216 C 
ATOM     12  N   UNL     1       6.075  -5.718  20.511  0.00  0.00    -0.267 NA
ATOM     13  H   UNL     1       6.159  -6.668  20.893  0.00  0.00    +0.190 HD
BRANCH  11  14
ATOM     14  O   UNL     1       5.693  -3.606  21.075  0.00  0.00    -0.492 OA
ATOM     15  H   UNL     1       4.948  -3.123  21.442  0.00  0.00    +0.294 HD
ENDBRANCH  11  14
ENDBRANCH  10  11
BRANCH   1  17
ATOM     16  C   UNL     1       2.200  -5.996  23.175  0.00  0.00    +0.277 C 
ATOM     17  O   UNL     1       3.501  -6.019  22.589  0.00  0.00    -0.494 OA
ENDBRANCH   1  17
BRANCH   5  18
ATOM     18  O   UNL     1       8.918  -4.522  25.641  0.00  0.00    -0.455 OA
BRANCH  18  19
ATOM     19  C   UNL     1       9.009  -3.178  25.360  0.00  0.00    +0.130 A 
ATOM     20  C   UNL     1       8.595  -2.295  26.357  0.00  0.00    +0.048 A 
ATOM     21  C   UNL     1       8.777  -0.922  26.192  0.00  0.00    +0.028 A 
ATOM     22  C   UNL     1       9.387  -0.402  25.039  0.00  0.00    +0.053 A 
ATOM     23  C   UNL     1       9.666  -1.299  23.992  0.00  0.00    +0.066 A 
ATOM     24 CL   UNL     1      10.365  -0.740  22.511  0.00  0.00    -0.082 Cl
ATOM     25  C   UNL     1       9.455  -2.674  24.139  0.00  0.00    +0.068 A 
BRANCH  22  26
ATOM     26  N   UNL     1       9.842   0.931  24.988  0.00  0.00    -0.268 N 
ATOM     27  H   UNL     1      10.811   1.074  25.252  0.00  0.00    +0.157 HD
ATOM     28  C   UNL     1       9.195   2.053  24.566  0.00  0.00    +0.280 C 
ATOM     29  N   UNL     1       9.793   3.149  24.217  0.00  0.00    -0.233 NA
BRANCH  29  30
ATOM     30  C   UNL     1       8.964   4.260  23.841  0.00  0.00    +0.110 C 
ATOM     31  C   UNL     1       9.645   5.603  23.815  0.00  0.00    +0.029 C 
ATOM     32  C   UNL     1       8.667   5.285  24.903  0.00  0.00    +0.029 C 
ENDBRANCH  29  30
BRANCH  28  33
ATOM     33  O   UNL     1       7.850   1.991  24.600  0.00  0.00    -0.482 OA
ATOM     34  H   UNL     1       7.487   2.761  25.060  0.00  0.00    +0.295 HD
ENDBRANCH  28  33
ENDBRANCH  22  26
ENDBRANCH  18  19
ENDBRANCH   5  18
TORSDOF 8
ENDMDL
MODEL 4
REMARK VINA RESULT:      -7.2      2.074      3.252
REMARK  Name = 
REMARK  9 active torsions:
REMARK  status: ('A' for Active; 'I' for Inactive)
REMARK    1  A    between atoms: C_1  and  O_2
REMARK    2  A    between atoms: O_2  and  C_3
REMARK    3  A    between atoms: C_4  and  C_28
REMARK    4  A    between atoms: C_7  and  O_8
REMARK    5  A    between atoms: O_8  and  C_9
REMARK    6  A    between atoms: C_13  and  N_14
REMARK    7  A    between atoms: C_15  and  O_16
REMARK    8  A    between atoms: N_17  and  C_18
REMARK    9  A    between atoms: C_28  and  O_29
REMARK                            x       y       z     vdW  Elec       q    Type
REMARK                         _______ _______ _______ _____ _____    ______ ____
ROOT
ATOM      1  C   UNL     1       3.862  -6.853  25.571  0.00  0.00    +0.134 A 
ATOM      2  C   UNL     1       4.920  -6.676  26.473  0.00  0.00    +0.074 A 
ATOM      3  C   UNL     1       6.057  -5.959  26.149  0.00  0.00    +0.078 A 
ATOM      4  C   UNL     1       6.159  -5.386  24.869  0.00  0.00    +0.044 A 
ATOM      5  C   UNL     1       7.343  -4.667  24.582  0.00  0.00    +0.139 A 
ATOM      6  C   UNL     1       8.305  -4.489  25.576  0.00  0.00    +0.066 A 
ATOM      7  C   UNL     1       8.105  -5.110  26.790  0.00  0.00    +0.115 A 
ATOM      8  C   UNL     1       5.086  -5.547  23.955  0.00  0.00    +0.030 A 
ATOM      9  N   UNL     1       7.012  -5.842  27.082  0.00  0.00    -0.255 NA
ATOM     10  C   UNL     1       3.922  -6.262  24.292  0.00  0.00    +0.078 A 
ENDROOT
BRANCH  10  11
ATOM     11  C   UNL     1       2.786  -6.416  23.320  0.00  0.00    +0.216 C 
ATOM     12  N   UNL     1       2.318  -7.528  22.875  0.00  0.00    -0.267 NA
ATOM     13  H   UNL     1       2.825  -8.316  23.296  0.00  0.00    +0.190 HD
BRANCH  11  14
ATOM     14  O   UNL     1       2.183  -5.313  22.852  0.00  0.00    -0.492 OA
ATOM     15  H   UNL     1       1.512  -5.435  22.175  0.00  0.00    +0.294 HD
ENDBRANCH  11  14
ENDBRANCH  10  11
BRANCH   1  17
ATOM     16  C   UNL     1       1.854  -6.882  26.850  0.00  0.00    +0.277 C 
ATOM     17  O   UNL     1       2.724  -7.536  25.926  0.00  0.00    -0.494 OA
ENDBRANCH   1  17
BRANCH   5  18
ATOM     18  O   UNL     1       7.456  -4.123  23.308  0.00  0.00    -0.455 OA
BRANCH  18  19
ATOM     19  C   UNL     1       7.484  -2.757  23.151  0.00  0.00    +0.130 A 
ATOM     20  C   UNL     1       6.481  -2.028  23.789  0.00  0.00    +0.048 A 
ATOM     21  C   UNL     1       6.519  -0.633  23.780  0.00  0.00    +0.028 A 
ATOM     22  C   UNL     1       7.564   0.062  23.148  0.00  0.00    +0.053 A 
ATOM     23  C   UNL     1       8.482  -0.691  22.395  0.00  0.00    +0.066 A 
ATOM     24 CL   UNL     1       9.768   0.085  21.536  0.00  0.00    -0.082 Cl
ATOM     25  C   UNL     1       8.429  -2.089  22.374  0.00  0.00    +0.068 A 
BRANCH  22  26
ATOM     26  N   UNL     1       7.775   1.435  23.381  0.00  0.00    -0.268 N 
ATOM     27  H   UNL     1       8.519   1.660  24.033  0.00  0.00    +0.157 HD
ATOM     28  C   UNL     1       7.177   2.516  22.805  0.00  0.00    +0.280 C 
ATOM     29  N   UNL     1       7.676   3.712  22.810  0.00  0.00    -0.233 NA
BRANCH  29  30
ATOM     30  C   UNL     1       6.898   4.753  22.199  0.00  0.00    +0.110 C 
ATOM     31  C   UNL     1       7.528   6.120  22.189  0.00  0.00    +0.029 C 
ATOM     32  C   UNL     1       6.375   5.839  23.102  0.00  0.00    +0.029 C 
ENDBRANCH  29  30
BRANCH  28  33
ATOM     33  O   UNL     1       5.962   2.286  22.271  0.00  0.00    -0.482 OA
ATOM     34  H   UNL     1       5.486   3.119  22.144  0.00  0.00    +0.295 HD
ENDBRANCH  28  33
ENDBRANCH  22  26
ENDBRANCH  18  19
ENDBRANCH   5  18
TORSDOF 8
ENDMDL
MODEL 5
REMARK VINA RESULT:      -7.2      2.578     10.122
REMARK  Name = 
REMARK  9 active torsions:
REMARK  status: ('A' for Active; 'I' for Inactive)
REMARK    1  A    between atoms: C_1  and  O_2
REMARK    2  A    between atoms: O_2  and  C_3
REMARK    3  A    between atoms: C_4  and  C_28
REMARK    4  A    between atoms: C_7  and  O_8
REMARK    5  A    between atoms: O_8  and  C_9
REMARK    6  A    between atoms: C_13  and  N_14
REMARK    7  A    between atoms: C_15  and  O_16
REMARK    8  A    between atoms: N_17  and  C_18
REMARK    9  A    between atoms: C_28  and  O_29
REMARK                            x       y       z     vdW  Elec       q    Type
REMARK                         _______ _______ _______ _____ _____    ______ ____
ROOT
ATOM      1  C   UNL     1      10.883   5.606  24.173  0.00  0.00    +0.134 A 
ATOM      2  C   UNL     1       9.674   5.308  24.818  0.00  0.00    +0.074 A 
ATOM      3  C   UNL     1       9.058   4.075  24.700  0.00  0.00    +0.078 A 
ATOM      4  C   UNL     1       9.661   3.085  23.905  0.00  0.00    +0.044 A 
ATOM      5  C   UNL     1       8.991   1.843  23.809  0.00  0.00    +0.139 A 
ATOM      6  C   UNL     1       7.829   1.624  24.549  0.00  0.00    +0.066 A 
ATOM      7  C   UNL     1       7.320   2.673  25.283  0.00  0.00    +0.115 A 
ATOM      8  C   UNL     1      10.893   3.375  23.261  0.00  0.00    +0.030 A 
ATOM      9  N   UNL     1       7.906   3.884  25.359  0.00  0.00    -0.255 NA
ATOM     10  C   UNL     1      11.528   4.623  23.397  0.00  0.00    +0.078 A 
ENDROOT
BRANCH  10  11
ATOM     11  C   UNL     1      12.838   4.914  22.720  0.00  0.00    +0.216 C 
ATOM     12  N   UNL     1      13.978   5.033  23.301  0.00  0.00    -0.267 NA
ATOM     13  H   UNL     1      13.874   4.881  24.312  0.00  0.00    +0.190 HD
BRANCH  11  14
ATOM     14  O   UNL     1      12.856   5.072  21.388  0.00  0.00    -0.492 OA
ATOM     15  H   UNL     1      12.828   4.273  20.853  0.00  0.00    +0.294 HD
ENDBRANCH  11  14
ENDBRANCH  10  11
BRANCH   1  17
ATOM     16  C   UNL     1      12.012   7.107  25.637  0.00  0.00    +0.277 C 
ATOM     17  O   UNL     1      11.499   6.824  24.335  0.00  0.00    -0.494 OA
ENDBRANCH   1  17
BRANCH   5  18
ATOM     18  O   UNL     1       9.573   0.873  23.002  0.00  0.00    -0.455 OA
BRANCH  18  19
ATOM     19  C   UNL     1       9.210  -0.445  23.153  0.00  0.00    +0.130 A 
ATOM     20  C   UNL     1       9.892  -1.181  24.121  0.00  0.00    +0.048 A 
ATOM     21  C   UNL     1       9.492  -2.484  24.417  0.00  0.00    +0.028 A 
ATOM     22  C   UNL     1       8.396  -3.074  23.766  0.00  0.00    +0.053 A 
ATOM     23  C   UNL     1       7.816  -2.365  22.699  0.00  0.00    +0.066 A 
ATOM     24 CL   UNL     1       6.497  -3.038  21.803  0.00  0.00    -0.082 Cl
ATOM     25  C   UNL     1       8.235  -1.070  22.376  0.00  0.00    +0.068 A 
BRANCH  22  26
ATOM     26  N   UNL     1       7.804  -4.256  24.255  0.00  0.00    -0.268 N 
ATOM     27  H   UNL     1       8.210  -5.122  23.918  0.00  0.00    +0.157 HD
ATOM     28  C   UNL     1       6.810  -4.413  25.174  0.00  0.00    +0.280 C 
ATOM     29  N   UNL     1       6.585  -5.513  25.821  0.00  0.00    -0.233 NA
BRANCH  29  30
ATOM     30  C   UNL     1       5.467  -5.530  26.722  0.00  0.00    +0.110 C 
ATOM     31  C   UNL     1       5.810  -5.524  28.189  0.00  0.00    +0.029 C 
ATOM     32  C   UNL     1       5.275  -6.770  27.555  0.00  0.00    +0.029 C 
ENDBRANCH  29  30
BRANCH  28  33
ATOM     33  O   UNL     1       5.997  -3.350  25.332  0.00  0.00    -0.482 OA
ATOM     34  H   UNL     1       6.458  -2.638  25.798  0.00  0.00    +0.295 HD
ENDBRANCH  28  33
ENDBRANCH  22  26
ENDBRANCH  18  19
ENDBRANCH   5  18
TORSDOF 8
ENDMDL
MODEL 6
REMARK VINA RESULT:      -7.1      3.008      9.724
REMARK  Name = 
REMARK  9 active torsions:
REMARK  status: ('A' for Active; 'I' for Inactive)
REMARK    1  A    between atoms: C_1  and  O_2
REMARK    2  A    between atoms: O_2  and  C_3
REMARK    3  A    between atoms: C_4  and  C_28
REMARK    4  A    between atoms: C_7  and  O_8
REMARK    5  A    between atoms: O_8  and  C_9
REMARK    6  A    between atoms: C_13  and  N_14
REMARK    7  A    between atoms: C_15  and  O_16
REMARK    8  A    between atoms: N_17  and  C_18
REMARK    9  A    between atoms: C_28  and  O_29
REMARK                            x       y       z     vdW  Elec       q    Type
REMARK                         _______ _______ _______ _____ _____    ______ ____
ROOT
ATOM      1  C   UNL     1       8.081   2.203  23.918  0.00  0.00    +0.134 A 
ATOM      2  C   UNL     1       9.048   1.295  24.371  0.00  0.00    +0.074 A 
ATOM      3  C   UNL     1       9.047  -0.036  23.995  0.00  0.00    +0.078 A 
ATOM      4  C   UNL     1       8.042  -0.499  23.128  0.00  0.00    +0.044 A 
ATOM      5  C   UNL     1       8.079  -1.868  22.777  0.00  0.00    +0.139 A 
ATOM      6  C   UNL     1       9.128  -2.671  23.226  0.00  0.00    +0.066 A 
ATOM      7  C   UNL     1      10.050  -2.113  24.085  0.00  0.00    +0.115 A 
ATOM      8  C   UNL     1       7.068   0.417  22.653  0.00  0.00    +0.030 A 
ATOM      9  N   UNL     1      10.018  -0.825  24.478  0.00  0.00    -0.255 NA
ATOM     10  C   UNL     1       7.080   1.775  23.022  0.00  0.00    +0.078 A 
ENDROOT
BRANCH  10  11
ATOM     11  C   UNL     1       6.051   2.738  22.502  0.00  0.00    +0.216 C 
ATOM     12  N   UNL     1       4.776   2.614  22.611  0.00  0.00    -0.267 NA
ATOM     13  H   UNL     1       4.550   1.755  23.128  0.00  0.00    +0.190 HD
BRANCH  11  14
ATOM     14  O   UNL     1       6.465   3.841  21.859  0.00  0.00    -0.492 OA
ATOM     15  H   UNL     1       5.984   4.655  22.033  0.00  0.00    +0.294 HD
ENDBRANCH  11  14
ENDBRANCH  10  11
BRANCH   1  17
ATOM     16  C   UNL     1       9.314   4.239  23.936  0.00  0.00    +0.277 C 
ATOM     17  O   UNL     1       8.122   3.530  24.272  0.00  0.00    -0.494 OA
ENDBRANCH   1  17
BRANCH   5  18
ATOM     18  O   UNL     1       7.070  -2.332  21.942  0.00  0.00    -0.455 OA
BRANCH  18  19
ATOM     19  C   UNL     1       6.272  -3.374  22.354  0.00  0.00    +0.130 A 
ATOM     20  C   UNL     1       6.435  -4.593  21.697  0.00  0.00    +0.048 A 
ATOM     21  C   UNL     1       5.752  -5.724  22.145  0.00  0.00    +0.028 A 
ATOM     22  C   UNL     1       4.905  -5.667  23.264  0.00  0.00    +0.053 A 
ATOM     23  C   UNL     1       4.649  -4.401  23.820  0.00  0.00    +0.066 A 
ATOM     24 CL   UNL     1       3.575  -4.227  25.165  0.00  0.00    -0.082 Cl
ATOM     25  C   UNL     1       5.307  -3.257  23.353  0.00  0.00    +0.068 A 
BRANCH  22  26
ATOM     26  N   UNL     1       4.451  -6.840  23.899  0.00  0.00    -0.268 N 
ATOM     27  H   UNL     1       5.123  -7.298  24.506  0.00  0.00    +0.157 HD
ATOM     28  C   UNL     1       3.216  -7.415  23.880  0.00  0.00    +0.280 C 
ATOM     29  N   UNL     1       2.797  -8.266  24.763  0.00  0.00    -0.233 NA
BRANCH  29  30
ATOM     30  C   UNL     1       1.485  -8.818  24.574  0.00  0.00    +0.110 C 
ATOM     31  C   UNL     1       0.618  -8.879  25.803  0.00  0.00    +0.029 C 
ATOM     32  C   UNL     1       1.193 -10.139  25.235  0.00  0.00    +0.029 C 
ENDBRANCH  29  30
BRANCH  28  33
ATOM     33  O   UNL     1       2.449  -7.099  22.819  0.00  0.00    -0.482 OA
ATOM     34  H   UNL     1       1.511  -7.155  23.051  0.00  0.00    +0.295 HD
ENDBRANCH  28  33
ENDBRANCH  22  26
ENDBRANCH  18  19
ENDBRANCH   5  18
TORSDOF 8
ENDMDL
MODEL 7
REMARK VINA RESULT:      -7.0      2.769      9.890
REMARK  Name = 
REMARK  9 active torsions:
REMARK  status: ('A' for Active; 'I' for Inactive)
REMARK    1  A    between atoms: C_1  and  O_2
REMARK    2  A    between atoms: O_2  and  C_3
REMARK    3  A    between atoms: C_4  and  C_28
REMARK    4  A    between atoms: C_7  and  O_8
REMARK    5  A    between atoms: O_8  and  C_9
REMARK    6  A    between atoms: C_13  and  N_14
REMARK    7  A    between atoms: C_15  and  O_16
REMARK    8  A    between atoms: N_17  and  C_18
REMARK    9  A    between atoms: C_28  and  O_29
REMARK                            x       y       z     vdW  Elec       q    Type
REMARK                         _______ _______ _______ _____ _____    ______ ____
ROOT
ATOM      1  C   UNL     1       8.761   4.063  23.484  0.00  0.00    +0.134 A 
ATOM      2  C   UNL     1       9.748   3.226  24.022  0.00  0.00    +0.074 A 
ATOM      3  C   UNL     1       9.664   1.847  23.959  0.00  0.00    +0.078 A 
ATOM      4  C   UNL     1       8.550   1.260  23.333  0.00  0.00    +0.044 A 
ATOM      5  C   UNL     1       8.505  -0.152  23.298  0.00  0.00    +0.139 A 
ATOM      6  C   UNL     1       9.576  -0.893  23.799  0.00  0.00    +0.066 A 
ATOM      7  C   UNL     1      10.609  -0.211  24.404  0.00  0.00    +0.115 A 
ATOM      8  C   UNL     1       7.554   2.102  22.773  0.00  0.00    +0.030 A 
ATOM      9  N   UNL     1      10.662   1.132  24.498  0.00  0.00    -0.255 NA
ATOM     10  C   UNL     1       7.649   3.505  22.823  0.00  0.00    +0.078 A 
ENDROOT
BRANCH  10  11
ATOM     11  C   UNL     1       6.594   4.385  22.215  0.00  0.00    +0.216 C 
ATOM     12  N   UNL     1       5.327   4.170  22.235  0.00  0.00    -0.267 NA
ATOM     13  H   UNL     1       5.127   3.303  22.749  0.00  0.00    +0.190 HD
BRANCH  11  14
ATOM     14  O   UNL     1       6.974   5.507  21.584  0.00  0.00    -0.492 OA
ATOM     15  H   UNL     1       7.118   6.286  22.128  0.00  0.00    +0.294 HD
ENDBRANCH  11  14
ENDBRANCH  10  11
BRANCH   1  17
ATOM     16  C   UNL     1      10.149   5.944  23.940  0.00  0.00    +0.277 C 
ATOM     17  O   UNL     1       8.883   5.432  23.524  0.00  0.00    -0.494 OA
ENDBRANCH   1  17
BRANCH   5  18
ATOM     18  O   UNL     1       7.391  -0.733  22.704  0.00  0.00    -0.455 OA
BRANCH  18  19
ATOM     19  C   UNL     1       7.040  -2.022  23.031  0.00  0.00    +0.130 A 
ATOM     20  C   UNL     1       6.343  -2.205  24.225  0.00  0.00    +0.048 A 
ATOM     21  C   UNL     1       5.845  -3.464  24.557  0.00  0.00    +0.028 A 
ATOM     22  C   UNL     1       6.018  -4.564  23.700  0.00  0.00    +0.053 A 
ATOM     23  C   UNL     1       6.842  -4.386  22.575  0.00  0.00    +0.066 A 
ATOM     24 CL   UNL     1       7.158  -5.700  21.494  0.00  0.00    -0.082 Cl
ATOM     25  C   UNL     1       7.372  -3.132  22.255  0.00  0.00    +0.068 A 
BRANCH  22  26
ATOM     26  N   UNL     1       5.278  -5.750  23.873  0.00  0.00    -0.268 N 
ATOM     27  H   UNL     1       5.799  -6.545  24.227  0.00  0.00    +0.157 HD
ATOM     28  C   UNL     1       3.944  -5.974  23.707  0.00  0.00    +0.280 C 
ATOM     29  N   UNL     1       3.303  -6.972  24.229  0.00  0.00    -0.233 NA
BRANCH  29  30
ATOM     30  C   UNL     1       1.906  -7.093  23.918  0.00  0.00    +0.110 C 
ATOM     31  C   UNL     1       1.234  -8.348  24.409  0.00  0.00    +0.029 C 
ATOM     32  C   UNL     1       1.509  -8.174  22.948  0.00  0.00    +0.029 C 
ENDBRANCH  29  30
BRANCH  28  33
ATOM     33  O   UNL     1       3.313  -5.114  22.884  0.00  0.00    -0.482 OA
ATOM     34  H   UNL     1       2.771  -4.495  23.394  0.00  0.00    +0.295 HD
ENDBRANCH  28  33
ENDBRANCH  22  26
ENDBRANCH  18  19
ENDBRANCH   5  18
TORSDOF 8
ENDMDL
MODEL 8
REMARK VINA RESULT:      -6.9      2.379      4.232
REMARK  Name = 
REMARK  9 active torsions:
REMARK  status: ('A' for Active; 'I' for Inactive)
REMARK    1  A    between atoms: C_1  and  O_2
REMARK    2  A    between atoms: O_2  and  C_3
REMARK    3  A    between atoms: C_4  and  C_28
REMARK    4  A    between atoms: C_7  and  O_8
REMARK    5  A    between atoms: O_8  and  C_9
REMARK    6  A    between atoms: C_13  and  N_14
REMARK    7  A    between atoms: C_15  and  O_16
REMARK    8  A    between atoms: N_17  and  C_18
REMARK    9  A    between atoms: C_28  and  O_29
REMARK                            x       y       z     vdW  Elec       q    Type
REMARK                         _______ _______ _______ _____ _____    ______ ____
ROOT
ATOM      1  C   UNL     1       5.822  -5.190  23.889  0.00  0.00    +0.134 A 
ATOM      2  C   UNL     1       6.137  -4.673  25.153  0.00  0.00    +0.074 A 
ATOM      3  C   UNL     1       7.125  -3.723  25.339  0.00  0.00    +0.078 A 
ATOM      4  C   UNL     1       7.842  -3.258  24.223  0.00  0.00    +0.044 A 
ATOM      5  C   UNL     1       8.846  -2.292  24.463  0.00  0.00    +0.139 A 
ATOM      6  C   UNL     1       9.031  -1.791  25.751  0.00  0.00    +0.066 A 
ATOM      7  C   UNL     1       8.281  -2.332  26.772  0.00  0.00    +0.115 A 
ATOM      8  C   UNL     1       7.519  -3.766  22.937  0.00  0.00    +0.030 A 
ATOM      9  N   UNL     1       7.349  -3.287  26.586  0.00  0.00    -0.255 NA
ATOM     10  C   UNL     1       6.501  -4.719  22.747  0.00  0.00    +0.078 A 
ENDROOT
BRANCH  10  11
ATOM     11  C   UNL     1       6.160  -5.240  21.380  0.00  0.00    +0.216 C 
ATOM     12  N   UNL     1       6.113  -6.477  21.032  0.00  0.00    -0.267 NA
ATOM     13  H   UNL     1       6.328  -7.076  21.839  0.00  0.00    +0.190 HD
BRANCH  11  14
ATOM     14  O   UNL     1       5.874  -4.361  20.407  0.00  0.00    -0.492 OA
ATOM     15  H   UNL     1       6.518  -3.668  20.241  0.00  0.00    +0.294 HD
ENDBRANCH  11  14
ENDBRANCH  10  11
BRANCH   1  17
ATOM     16  C   UNL     1       4.496  -6.918  24.851  0.00  0.00    +0.277 C 
ATOM     17  O   UNL     1       4.810  -6.105  23.721  0.00  0.00    -0.494 OA
ENDBRANCH   1  17
BRANCH   5  18
ATOM     18  O   UNL     1       9.574  -1.853  23.364  0.00  0.00    -0.455 OA
BRANCH  18  19
ATOM     19  C   UNL     1       9.444  -0.551  22.938  0.00  0.00    +0.130 A 
ATOM     20  C   UNL     1       8.383  -0.270  22.078  0.00  0.00    +0.048 A 
ATOM     21  C   UNL     1       8.114   1.048  21.708  0.00  0.00    +0.028 A 
ATOM     22  C   UNL     1       8.887   2.113  22.200  0.00  0.00    +0.053 A 
ATOM     23  C   UNL     1      10.033   1.792  22.949  0.00  0.00    +0.066 A 
ATOM     24 CL   UNL     1      11.075   3.037  23.548  0.00  0.00    -0.082 Cl
ATOM     25  C   UNL     1      10.325   0.468  23.296  0.00  0.00    +0.068 A 
BRANCH  22  26
ATOM     26  N   UNL     1       8.454   3.448  22.078  0.00  0.00    -0.268 N 
ATOM     27  H   UNL     1       8.881   3.981  21.328  0.00  0.00    +0.157 HD
ATOM     28  C   UNL     1       7.488   4.114  22.772  0.00  0.00    +0.280 C 
ATOM     29  N   UNL     1       6.915   5.200  22.359  0.00  0.00    -0.233 NA
BRANCH  29  30
ATOM     30  C   UNL     1       5.949   5.808  23.231  0.00  0.00    +0.110 C 
ATOM     31  C   UNL     1       5.360   7.107  22.750  0.00  0.00    +0.029 C 
ATOM     32  C   UNL     1       6.335   7.108  23.885  0.00  0.00    +0.029 C 
ENDBRANCH  29  30
BRANCH  28  33
ATOM     33  O   UNL     1       7.199   3.609  23.987  0.00  0.00    -0.482 OA
ATOM     34  H   UNL     1       7.172   4.315  24.648  0.00  0.00    +0.295 HD
ENDBRANCH  28  33
ENDBRANCH  22  26
ENDBRANCH  18  19
ENDBRANCH   5  18
TORSDOF 8
ENDMDL
MODEL 9
REMARK VINA RESULT:      -6.9      2.413      9.465
REMARK  Name = 
REMARK  9 active torsions:
REMARK  status: ('A' for Active; 'I' for Inactive)
REMARK    1  A    between atoms: C_1  and  O_2
REMARK    2  A    between atoms: O_2  and  C_3
REMARK    3  A    between atoms: C_4  and  C_28
REMARK    4  A    between atoms: C_7  and  O_8
REMARK    5  A    between atoms: O_8  and  C_9
REMARK    6  A    between atoms: C_13  and  N_14
REMARK    7  A    between atoms: C_15  and  O_16
REMARK    8  A    between atoms: N_17  and  C_18
REMARK    9  A    between atoms: C_28  and  O_29
REMARK                            x       y       z     vdW  Elec       q    Type
REMARK                         _______ _______ _______ _____ _____    ______ ____
ROOT
ATOM      1  C   UNL     1       8.560   3.469  24.571  0.00  0.00    +0.134 A 
ATOM      2  C   UNL     1       7.656   3.113  25.582  0.00  0.00    +0.074 A 
ATOM      3  C   UNL     1       7.524   1.812  26.032  0.00  0.00    +0.078 A 
ATOM      4  C   UNL     1       8.322   0.808  25.456  0.00  0.00    +0.044 A 
ATOM      5  C   UNL     1       8.147  -0.508  25.944  0.00  0.00    +0.139 A 
ATOM      6  C   UNL     1       7.271  -0.743  27.004  0.00  0.00    +0.066 A 
ATOM      7  C   UNL     1       6.529   0.315  27.480  0.00  0.00    +0.115 A 
ATOM      8  C   UNL     1       9.250   1.162  24.442  0.00  0.00    +0.030 A 
ATOM      9  N   UNL     1       6.636   1.572  27.007  0.00  0.00    -0.255 NA
ATOM     10  C   UNL     1       9.396   2.490  23.998  0.00  0.00    +0.078 A 
ENDROOT
BRANCH  10  11
ATOM     11  C   UNL     1      10.391   2.855  22.933  0.00  0.00    +0.216 C 
ATOM     12  N   UNL     1      11.354   3.698  23.056  0.00  0.00    -0.267 NA
ATOM     13  H   UNL     1      11.363   4.084  24.008  0.00  0.00    +0.190 HD
BRANCH  11  14
ATOM     14  O   UNL     1      10.294   2.268  21.730  0.00  0.00    -0.492 OA
ATOM     15  H   UNL     1      10.262   2.847  20.963  0.00  0.00    +0.294 HD
ENDBRANCH  11  14
ENDBRANCH  10  11
BRANCH   1  17
ATOM     16  C   UNL     1       9.129   5.704  25.163  0.00  0.00    +0.277 C 
ATOM     17  O   UNL     1       8.704   4.774  24.166  0.00  0.00    -0.494 OA
ENDBRANCH   1  17
BRANCH   5  18
ATOM     18  O   UNL     1       8.915  -1.506  25.356  0.00  0.00    -0.455 OA
BRANCH  18  19
ATOM     19  C   UNL     1       8.297  -2.590  24.779  0.00  0.00    +0.130 A 
ATOM     20  C   UNL     1       8.458  -3.822  25.414  0.00  0.00    +0.048 A 
ATOM     21  C   UNL     1       7.757  -4.938  24.959  0.00  0.00    +0.028 A 
ATOM     22  C   UNL     1       6.871  -4.848  23.872  0.00  0.00    +0.053 A 
ATOM     23  C   UNL     1       6.834  -3.633  23.164  0.00  0.00    +0.066 A 
ATOM     24 CL   UNL     1       5.814  -3.449  21.778  0.00  0.00    -0.082 Cl
ATOM     25  C   UNL     1       7.560  -2.519  23.597  0.00  0.00    +0.068 A 
BRANCH  22  26
ATOM     26  N   UNL     1       5.947  -5.875  23.594  0.00  0.00    -0.268 N 
ATOM     27  H   UNL     1       6.260  -6.580  22.936  0.00  0.00    +0.157 HD
ATOM     28  C   UNL     1       4.718  -6.107  24.134  0.00  0.00    +0.280 C 
ATOM     29  N   UNL     1       4.108  -7.250  24.090  0.00  0.00    -0.233 NA
BRANCH  29  30
ATOM     30  C   UNL     1       2.794  -7.317  24.665  0.00  0.00    +0.110 C 
ATOM     31  C   UNL     1       2.235  -8.702  24.856  0.00  0.00    +0.029 C 
ATOM     32  C   UNL     1       1.682  -7.818  23.782  0.00  0.00    +0.029 C 
ENDBRANCH  29  30
BRANCH  28  33
ATOM     33  O   UNL     1       4.113  -5.031  24.674  0.00  0.00    -0.482 OA
ATOM     34  H   UNL     1       3.963  -4.354  24.000  0.00  0.00    +0.295 HD
ENDBRANCH  28  33
ENDBRANCH  22  26
ENDBRANCH  18  19
ENDBRANCH   5  18
TORSDOF 8
ENDMDL
