MODEL 1
REMARK VINA RESULT:      -5.3      0.000      0.000
REMARK  Name = 
REMARK  4 active torsions:
REMARK  status: ('A' for Active; 'I' for Inactive)
REMARK    1  A    between atoms: O_1  and  C_2
REMARK    2  A    between atoms: C_2  and  C_4
REMARK    3  A    between atoms: C_5  and  C_6
REMARK    4  A    between atoms: C_11  and  O_12
REMARK                            x       y       z     vdW  Elec       q    Type
REMARK                         _______ _______ _______ _____ _____    ______ ____
ROOT
ATOM      1  C   UNL     1      10.109  -0.710  23.383  0.00  0.00    +0.017 A 
ATOM      2  C   UNL     1       9.867  -0.162  22.117  0.00  0.00    +0.124 A 
ATOM      3  C   UNL     1       9.929   1.216  21.911  0.00  0.00    +0.046 A 
ATOM      4  C   UNL     1      10.240   2.061  22.977  0.00  0.00    +0.004 A 
ATOM      5  C   UNL     1      10.494   1.528  24.241  0.00  0.00    +0.001 A 
ATOM      6  C   UNL     1      10.429   0.148  24.444  0.00  0.00    +0.011 A 
ENDROOT
BRANCH   1   8
ATOM      7  C   UNL     1       8.926  -2.698  24.206  0.00  0.00    +0.092 C 
ATOM      8  C   UNL     1      10.007  -2.149  23.636  0.00  0.00    +0.018 C 
BRANCH   7   9
ATOM      9  C   UNL     1       8.900  -4.157  24.423  0.00  0.00    +0.330 C 
ATOM     10  O   UNL     1       7.907  -4.858  24.327  0.00  0.00    -0.246 OA
BRANCH   9  11
ATOM     11  O   UNL     1      10.116  -4.637  24.751  0.00  0.00    -0.478 OA
ATOM     12  H   UNL     1      10.766  -4.628  24.026  0.00  0.00    +0.295 HD
ENDBRANCH   9  11
ENDBRANCH   7   9
ENDBRANCH   1   8
BRANCH   2  13
ATOM     13  O   UNL     1       9.562  -0.995  21.074  0.00  0.00    -0.506 OA
ATOM     14  H   UNL     1       8.644  -0.831  20.802  0.00  0.00    +0.292 HD
ENDBRANCH   2  13
TORSDOF 4
ENDMDL
MODEL 2
REMARK VINA RESULT:      -5.2      3.590      6.195
REMARK  Name = 
REMARK  4 active torsions:
REMARK  status: ('A' for Active; 'I' for Inactive)
REMARK    1  A    between atoms: O_1  and  C_2
REMARK    2  A    between atoms: C_2  and  C_4
REMARK    3  A    between atoms: C_5  and  C_6
REMARK    4  A    between atoms: C_11  and  O_12
REMARK                            x       y       z     vdW  Elec       q    Type
REMARK                         _______ _______ _______ _____ _____    ______ ____
ROOT
ATOM      1  C   UNL     1      10.249   1.868  23.467  0.00  0.00    +0.017 A 
ATOM      2  C   UNL     1       9.705   1.293  22.311  0.00  0.00    +0.124 A 
ATOM      3  C   UNL     1       9.530  -0.088  22.213  0.00  0.00    +0.046 A 
ATOM      4  C   UNL     1       9.898  -0.907  23.282  0.00  0.00    +0.004 A 
ATOM      5  C   UNL     1      10.432  -0.347  24.442  0.00  0.00    +0.001 A 
ATOM      6  C   UNL     1      10.606   1.035  24.535  0.00  0.00    +0.011 A 
ENDROOT
BRANCH   1   8
ATOM      7  C   UNL     1      11.704   3.846  23.445  0.00  0.00    +0.092 C 
ATOM      8  C   UNL     1      10.484   3.309  23.577  0.00  0.00    +0.018 C 
BRANCH   7   9
ATOM      9  C   UNL     1      11.855   5.308  23.567  0.00  0.00    +0.330 C 
ATOM     10  O   UNL     1      10.941   6.111  23.496  0.00  0.00    -0.246 OA
BRANCH   9  11
ATOM     11  O   UNL     1      13.141   5.664  23.762  0.00  0.00    -0.478 OA
ATOM     12  H   UNL     1      13.272   6.596  24.012  0.00  0.00    +0.295 HD
ENDBRANCH   9  11
ENDBRANCH   7   9
ENDBRANCH   1   8
BRANCH   2  13
ATOM     13  O   UNL     1       9.346   2.102  21.266  0.00  0.00    -0.506 OA
ATOM     14  H   UNL     1       9.579   3.019  21.487  0.00  0.00    +0.292 HD
ENDBRANCH   2  13
TORSDOF 4
ENDMDL
MODEL 3
REMARK VINA RESULT:      -5.0      1.450      2.198
REMARK  Name = 
REMARK  4 active torsions:
REMARK  status: ('A' for Active; 'I' for Inactive)
REMARK    1  A    between atoms: O_1  and  C_2
REMARK    2  A    between atoms: C_2  and  C_4
REMARK    3  A    between atoms: C_5  and  C_6
REMARK    4  A    between atoms: C_11  and  O_12
REMARK                            x       y       z     vdW  Elec       q    Type
REMARK                         _______ _______ _______ _____ _____    ______ ____
ROOT
ATOM      1  C   UNL     1       9.825  -0.728  23.445  0.00  0.00    +0.017 A 
ATOM      2  C   UNL     1      10.244   0.457  24.064  0.00  0.00    +0.124 A 
ATOM      3  C   UNL     1      10.258   1.663  23.362  0.00  0.00    +0.046 A 
ATOM      4  C   UNL     1       9.846   1.691  22.029  0.00  0.00    +0.004 A 
ATOM      5  C   UNL     1       9.417   0.520  21.405  0.00  0.00    +0.001 A 
ATOM      6  C   UNL     1       9.406  -0.685  22.109  0.00  0.00    +0.011 A 
ENDROOT
BRANCH   1   8
ATOM      7  C   UNL     1       8.949  -2.978  23.891  0.00  0.00    +0.092 C 
ATOM      8  C   UNL     1       9.843  -2.014  24.146  0.00  0.00    +0.018 C 
BRANCH   7   9
ATOM      9  C   UNL     1       9.038  -4.247  24.638  0.00  0.00    +0.330 C 
ATOM     10  O   UNL     1      10.073  -4.846  24.872  0.00  0.00    -0.246 OA
BRANCH   9  11
ATOM     11  O   UNL     1       7.824  -4.681  25.035  0.00  0.00    -0.478 OA
ATOM     12  H   UNL     1       7.678  -4.655  25.997  0.00  0.00    +0.295 HD
ENDBRANCH   9  11
ENDBRANCH   7   9
ENDBRANCH   1   8
BRANCH   2  13
ATOM     13  O   UNL     1      10.647   0.424  25.372  0.00  0.00    -0.506 OA
ATOM     14  H   UNL     1      11.532   0.820  25.436  0.00  0.00    +0.292 HD
ENDBRANCH   2  13
TORSDOF 4
ENDMDL
MODEL 4
REMARK VINA RESULT:      -4.9      3.538      6.089
REMARK  Name = 
REMARK  4 active torsions:
REMARK  status: ('A' for Active; 'I' for Inactive)
REMARK    1  A    between atoms: O_1  and  C_2
REMARK    2  A    between atoms: C_2  and  C_4
REMARK    3  A    between atoms: C_5  and  C_6
REMARK    4  A    between atoms: C_11  and  O_12
REMARK                            x       y       z     vdW  Elec       q    Type
REMARK                         _______ _______ _______ _____ _____    ______ ____
ROOT
ATOM      1  C   UNL     1      10.147   1.437  23.144  0.00  0.00    +0.017 A 
ATOM      2  C   UNL     1      10.312   0.362  24.026  0.00  0.00    +0.124 A 
ATOM      3  C   UNL     1      10.068  -0.948  23.611  0.00  0.00    +0.046 A 
ATOM      4  C   UNL     1       9.658  -1.191  22.300  0.00  0.00    +0.004 A 
ATOM      5  C   UNL     1       9.500  -0.131  21.408  0.00  0.00    +0.001 A 
ATOM      6  C   UNL     1       9.744   1.179  21.827  0.00  0.00    +0.011 A 
ENDROOT
BRANCH   1   8
ATOM      7  C   UNL     1       9.351   3.710  23.623  0.00  0.00    +0.092 C 
ATOM      8  C   UNL     1      10.354   2.824  23.567  0.00  0.00    +0.018 C 
BRANCH   7   9
ATOM      9  C   UNL     1       9.642   5.088  24.063  0.00  0.00    +0.330 C 
ATOM     10  O   UNL     1       9.350   5.547  25.154  0.00  0.00    -0.246 OA
BRANCH   9  11
ATOM     11  O   UNL     1      10.273   5.797  23.106  0.00  0.00    -0.478 OA
ATOM     12  H   UNL     1      10.766   6.571  23.431  0.00  0.00    +0.295 HD
ENDBRANCH   9  11
ENDBRANCH   7   9
ENDBRANCH   1   8
BRANCH   2  13
ATOM     13  O   UNL     1      10.714   0.607  25.312  0.00  0.00    -0.506 OA
ATOM     14  H   UNL     1      10.503   1.528  25.535  0.00  0.00    +0.292 HD
ENDBRANCH   2  13
TORSDOF 4
ENDMDL
MODEL 5
REMARK VINA RESULT:      -4.7      1.895      2.227
REMARK  Name = 
REMARK  4 active torsions:
REMARK  status: ('A' for Active; 'I' for Inactive)
REMARK    1  A    between atoms: O_1  and  C_2
REMARK    2  A    between atoms: C_2  and  C_4
REMARK    3  A    between atoms: C_5  and  C_6
REMARK    4  A    between atoms: C_11  and  O_12
REMARK                            x       y       z     vdW  Elec       q    Type
REMARK                         _______ _______ _______ _____ _____    ______ ____
ROOT
ATOM      1  C   UNL     1       8.290  -1.232  22.724  0.00  0.00    +0.017 A 
ATOM      2  C   UNL     1       9.342  -0.768  21.923  0.00  0.00    +0.124 A 
ATOM      3  C   UNL     1       9.355   0.545  21.450  0.00  0.00    +0.046 A 
ATOM      4  C   UNL     1       8.310   1.408  21.782  0.00  0.00    +0.004 A 
ATOM      5  C   UNL     1       7.262   0.962  22.587  0.00  0.00    +0.001 A 
ATOM      6  C   UNL     1       7.252  -0.352  23.057  0.00  0.00    +0.011 A 
ENDROOT
BRANCH   1   8
ATOM      7  C   UNL     1       7.502  -3.553  22.572  0.00  0.00    +0.092 C 
ATOM      8  C   UNL     1       8.230  -2.617  23.196  0.00  0.00    +0.018 C 
BRANCH   7   9
ATOM      9  C   UNL     1       7.498  -4.927  23.109  0.00  0.00    +0.330 C 
ATOM     10  O   UNL     1       6.625  -5.752  22.905  0.00  0.00    -0.246 OA
BRANCH   9  11
ATOM     11  O   UNL     1       8.585  -5.171  23.869  0.00  0.00    -0.478 OA
ATOM     12  H   UNL     1       8.776  -4.488  24.536  0.00  0.00    +0.295 HD
ENDBRANCH   9  11
ENDBRANCH   7   9
ENDBRANCH   1   8
BRANCH   2  13
ATOM     13  O   UNL     1      10.364  -1.620  21.600  0.00  0.00    -0.506 OA
ATOM     14  H   UNL     1      10.048  -2.247  20.929  0.00  0.00    +0.292 HD
ENDBRANCH   2  13
TORSDOF 4
ENDMDL
MODEL 6
REMARK VINA RESULT:      -4.7      1.923      2.208
REMARK  Name = 
REMARK  4 active torsions:
REMARK  status: ('A' for Active; 'I' for Inactive)
REMARK    1  A    between atoms: O_1  and  C_2
REMARK    2  A    between atoms: C_2  and  C_4
REMARK    3  A    between atoms: C_5  and  C_6
REMARK    4  A    between atoms: C_11  and  O_12
REMARK                            x       y       z     vdW  Elec       q    Type
REMARK                         _______ _______ _______ _____ _____    ______ ____
ROOT
ATOM      1  C   UNL     1       8.474  -1.371  22.759  0.00  0.00    +0.017 A 
ATOM      2  C   UNL     1       7.408  -0.472  22.888  0.00  0.00    +0.124 A 
ATOM      3  C   UNL     1       7.506   0.829  22.394  0.00  0.00    +0.046 A 
ATOM      4  C   UNL     1       8.679   1.240  21.759  0.00  0.00    +0.004 A 
ATOM      5  C   UNL     1       9.745   0.352  21.614  0.00  0.00    +0.001 A 
ATOM      6  C   UNL     1       9.643  -0.949  22.112  0.00  0.00    +0.011 A 
ENDROOT
BRANCH   1   8
ATOM      7  C   UNL     1       9.223  -3.135  24.294  0.00  0.00    +0.092 C 
ATOM      8  C   UNL     1       8.413  -2.727  23.308  0.00  0.00    +0.018 C 
BRANCH   7   9
ATOM      9  C   UNL     1       9.096  -4.517  24.794  0.00  0.00    +0.330 C 
ATOM     10  O   UNL     1       8.042  -5.065  25.063  0.00  0.00    -0.246 OA
BRANCH   9  11
ATOM     11  O   UNL     1      10.297  -5.114  24.928  0.00  0.00    -0.478 OA
ATOM     12  H   UNL     1      10.411  -5.619  25.753  0.00  0.00    +0.295 HD
ENDBRANCH   9  11
ENDBRANCH   7   9
ENDBRANCH   1   8
BRANCH   2  13
ATOM     13  O   UNL     1       6.260  -0.880  23.512  0.00  0.00    -0.506 OA
ATOM     14  H   UNL     1       6.467  -1.637  24.084  0.00  0.00    +0.292 HD
ENDBRANCH   2  13
TORSDOF 4
ENDMDL
MODEL 7
REMARK VINA RESULT:      -4.7      2.176      2.911
REMARK  Name = 
REMARK  4 active torsions:
REMARK  status: ('A' for Active; 'I' for Inactive)
REMARK    1  A    between atoms: O_1  and  C_2
REMARK    2  A    between atoms: C_2  and  C_4
REMARK    3  A    between atoms: C_5  and  C_6
REMARK    4  A    between atoms: C_11  and  O_12
REMARK                            x       y       z     vdW  Elec       q    Type
REMARK                         _______ _______ _______ _____ _____    ______ ____
ROOT
ATOM      1  C   UNL     1       8.606  -1.833  23.182  0.00  0.00    +0.017 A 
ATOM      2  C   UNL     1       9.766  -1.228  22.682  0.00  0.00    +0.124 A 
ATOM      3  C   UNL     1      10.512  -0.352  23.471  0.00  0.00    +0.046 A 
ATOM      4  C   UNL     1      10.100  -0.077  24.776  0.00  0.00    +0.004 A 
ATOM      5  C   UNL     1       8.953  -0.681  25.290  0.00  0.00    +0.001 A 
ATOM      6  C   UNL     1       8.208  -1.556  24.496  0.00  0.00    +0.011 A 
ENDROOT
BRANCH   1   8
ATOM      7  C   UNL     1       7.548  -3.996  22.699  0.00  0.00    +0.092 C 
ATOM      8  C   UNL     1       7.781  -2.721  22.359  0.00  0.00    +0.018 C 
BRANCH   7   9
ATOM      9  C   UNL     1       6.703  -4.824  21.817  0.00  0.00    +0.330 C 
ATOM     10  O   UNL     1       6.925  -5.988  21.533  0.00  0.00    -0.246 OA
BRANCH   9  11
ATOM     11  O   UNL     1       5.642  -4.136  21.349  0.00  0.00    -0.478 OA
ATOM     12  H   UNL     1       5.744  -3.168  21.372  0.00  0.00    +0.295 HD
ENDBRANCH   9  11
ENDBRANCH   7   9
ENDBRANCH   1   8
BRANCH   2  13
ATOM     13  O   UNL     1      10.165  -1.501  21.401  0.00  0.00    -0.506 OA
ATOM     14  H   UNL     1       9.699  -0.902  20.795  0.00  0.00    +0.292 HD
ENDBRANCH   2  13
TORSDOF 4
ENDMDL
MODEL 8
REMARK VINA RESULT:      -4.6      1.764      5.383
REMARK  Name = 
REMARK  4 active torsions:
REMARK  status: ('A' for Active; 'I' for Inactive)
REMARK    1  A    between atoms: O_1  and  C_2
REMARK    2  A    between atoms: C_2  and  C_4
REMARK    3  A    between atoms: C_5  and  C_6
REMARK    4  A    between atoms: C_11  and  O_12
REMARK                            x       y       z     vdW  Elec       q    Type
REMARK                         _______ _______ _______ _____ _____    ______ ____
ROOT
ATOM      1  C   UNL     1       8.629  -3.404  24.846  0.00  0.00    +0.017 A 
ATOM      2  C   UNL     1       9.183  -4.570  25.392  0.00  0.00    +0.124 A 
ATOM      3  C   UNL     1       8.573  -5.214  26.469  0.00  0.00    +0.046 A 
ATOM      4  C   UNL     1       7.396  -4.694  27.008  0.00  0.00    +0.004 A 
ATOM      5  C   UNL     1       6.829  -3.540  26.468  0.00  0.00    +0.001 A 
ATOM      6  C   UNL     1       7.442  -2.897  25.391  0.00  0.00    +0.011 A 
ENDROOT
BRANCH   1   8
ATOM      7  C   UNL     1       9.377  -1.349  23.730  0.00  0.00    +0.092 C 
ATOM      8  C   UNL     1       9.273  -2.685  23.745  0.00  0.00    +0.018 C 
BRANCH   7   9
ATOM      9  C   UNL     1      10.043  -0.700  22.584  0.00  0.00    +0.330 C 
ATOM     10  O   UNL     1      10.339   0.480  22.528  0.00  0.00    -0.246 OA
BRANCH   9  11
ATOM     11  O   UNL     1      10.288  -1.574  21.587  0.00  0.00    -0.478 OA
ATOM     12  H   UNL     1       9.495  -1.889  21.119  0.00  0.00    +0.295 HD
ENDBRANCH   9  11
ENDBRANCH   7   9
ENDBRANCH   1   8
BRANCH   2  13
ATOM     13  O   UNL     1      10.338  -5.075  24.859  0.00  0.00    -0.506 OA
ATOM     14  H   UNL     1      11.071  -4.890  25.470  0.00  0.00    +0.292 HD
ENDBRANCH   2  13
TORSDOF 4
ENDMDL
MODEL 9
REMARK VINA RESULT:      -4.5      4.956      6.830
REMARK  Name = 
REMARK  4 active torsions:
REMARK  status: ('A' for Active; 'I' for Inactive)
REMARK    1  A    between atoms: O_1  and  C_2
REMARK    2  A    between atoms: C_2  and  C_4
REMARK    3  A    between atoms: C_5  and  C_6
REMARK    4  A    between atoms: C_11  and  O_12
REMARK                            x       y       z     vdW  Elec       q    Type
REMARK                         _______ _______ _______ _____ _____    ______ ____
ROOT
ATOM      1  C   UNL     1       6.686  -5.403  25.654  0.00  0.00    +0.017 A 
ATOM      2  C   UNL     1       7.785  -5.387  26.523  0.00  0.00    +0.124 A 
ATOM      3  C   UNL     1       9.007  -4.849  26.120  0.00  0.00    +0.046 A 
ATOM      4  C   UNL     1       9.137  -4.316  24.836  0.00  0.00    +0.004 A 
ATOM      5  C   UNL     1       8.048  -4.316  23.965  0.00  0.00    +0.001 A 
ATOM      6  C   UNL     1       6.827  -4.857  24.372  0.00  0.00    +0.011 A 
ENDROOT
BRANCH   1   8
ATOM      7  C   UNL     1       4.677  -6.733  25.184  0.00  0.00    +0.092 C 
ATOM      8  C   UNL     1       5.406  -6.002  26.037  0.00  0.00    +0.018 C 
BRANCH   7   9
ATOM      9  C   UNL     1       3.398  -7.305  25.649  0.00  0.00    +0.330 C 
ATOM     10  O   UNL     1       2.655  -6.781  26.460  0.00  0.00    -0.246 OA
BRANCH   9  11
ATOM     11  O   UNL     1       3.143  -8.496  25.071  0.00  0.00    -0.478 OA
ATOM     12  H   UNL     1       3.702  -9.229  25.385  0.00  0.00    +0.295 HD
ENDBRANCH   9  11
ENDBRANCH   7   9
ENDBRANCH   1   8
BRANCH   2  13
ATOM     13  O   UNL     1       7.652  -5.911  27.781  0.00  0.00    -0.506 OA
ATOM     14  H   UNL     1       8.536  -6.100  28.135  0.00  0.00    +0.292 HD
ENDBRANCH   2  13
TORSDOF 4
ENDMDL
