MODEL 1
REMARK VINA RESULT:      -7.6      0.000      0.000
REMARK  Name = 
REMARK  5 active torsions:
REMARK  status: ('A' for Active; 'I' for Inactive)
REMARK    1  A    between atoms: C_2  and  C_5
REMARK    2  A    between atoms: C_9  and  N_10
REMARK    3  A    between atoms: N_14  and  C_15
REMARK    4  A    between atoms: C_17  and  N_18
REMARK    5  A    between atoms: C_19  and  C_21
REMARK                            x       y       z     vdW  Elec       q    Type
REMARK                         _______ _______ _______ _____ _____    ______ ____
ROOT
ATOM      1  N   UNL     1       8.497   5.324  23.784  0.00  0.00    -0.299 N 
ATOM      2  H   UNL     1       8.086   5.595  22.899  0.00  0.00    +0.154 HD
ATOM      3  C   UNL     1       7.919   4.132  24.278  0.00  0.00    +0.128 A 
ATOM      4  C   UNL     1       6.549   4.113  24.420  0.00  0.00    +0.063 A 
ATOM      5  C   UNL     1       6.011   2.977  24.962  0.00  0.00    +0.118 A 
ATOM      6  N   UNL     1       6.741   1.907  25.297  0.00  0.00    -0.223 NA
ATOM      7  C   UNL     1       8.069   1.981  25.108  0.00  0.00    +0.221 A 
ATOM      8  N   UNL     1       8.897   0.901  25.414  0.00  0.00    -0.284 N 
ATOM      9  H   UNL     1       9.863   1.157  25.260  0.00  0.00    +0.155 HD
ATOM     10  N   UNL     1       8.679   3.077  24.634  0.00  0.00    -0.199 NA
ENDROOT
BRANCH   1  13
ATOM     11  C   UNL     1      12.167   5.995  23.458  0.00  0.00    +0.057 A 
ATOM     12  C   UNL     1      10.859   5.587  23.151  0.00  0.00    +0.035 A 
ATOM     13  C   UNL     1       9.782   5.855  24.001  0.00  0.00    +0.033 A 
ATOM     14  C   UNL     1      10.048   6.526  25.204  0.00  0.00    +0.023 A 
ATOM     15  C   UNL     1      11.344   6.939  25.529  0.00  0.00    +0.002 A 
ATOM     16  C   UNL     1      12.400   6.674  24.660  0.00  0.00    +0.012 A 
BRANCH  11  18
ATOM     17  F   UNL     1      12.847   5.034  21.367  0.00  0.00    -0.166 F 
ATOM     18  C   UNL     1      13.275   5.670  22.494  0.00  0.00    +0.417 C 
ATOM     19  F   UNL     1      13.936   6.781  22.063  0.00  0.00    -0.166 F 
ATOM     20  F   UNL     1      14.224   4.859  23.040  0.00  0.00    -0.166 F 
ENDBRANCH  11  18
ENDBRANCH   1  13
BRANCH   8  21
ATOM     21  C   UNL     1       8.635  -0.476  25.514  0.00  0.00    +0.035 A 
ATOM     22  C   UNL     1       8.684  -1.178  26.724  0.00  0.00    +0.023 A 
ATOM     23  C   UNL     1       8.485  -2.558  26.772  0.00  0.00    +0.004 A 
ATOM     24  C   UNL     1       8.225  -3.263  25.602  0.00  0.00    +0.023 A 
ATOM     25  C   UNL     1       8.138  -2.592  24.380  0.00  0.00    +0.035 A 
ATOM     26  C   UNL     1       8.378  -1.211  24.342  0.00  0.00    +0.046 A 
BRANCH  25  27
ATOM     27  N   UNL     1       7.779  -3.359  23.251  0.00  0.00    -0.285 N 
ATOM     28  H   UNL     1       8.520  -3.902  22.832  0.00  0.00    +0.155 HD
ATOM     29  C   UNL     1       6.501  -3.601  22.794  0.00  0.00    +0.220 C 
ATOM     30  O   UNL     1       5.463  -3.154  23.264  0.00  0.00    -0.275 OA
BRANCH  29  31
ATOM     31  C   UNL     1       6.381  -4.557  21.648  0.00  0.00    +0.075 C 
ATOM     32  C   UNL     1       5.617  -5.853  21.815  0.00  0.00    +0.013 C 
ATOM     33  C   UNL     1       7.091  -5.883  21.532  0.00  0.00    +0.013 C 
ENDBRANCH  29  31
ENDBRANCH  25  27
ENDBRANCH   8  21
TORSDOF 5
ENDMDL
MODEL 2
REMARK VINA RESULT:      -7.4      5.323     10.487
REMARK  Name = 
REMARK  5 active torsions:
REMARK  status: ('A' for Active; 'I' for Inactive)
REMARK    1  A    between atoms: C_2  and  C_5
REMARK    2  A    between atoms: C_9  and  N_10
REMARK    3  A    between atoms: N_14  and  C_15
REMARK    4  A    between atoms: C_17  and  N_18
REMARK    5  A    between atoms: C_19  and  C_21
REMARK                            x       y       z     vdW  Elec       q    Type
REMARK                         _______ _______ _______ _____ _____    ______ ____
ROOT
ATOM      1  N   UNL     1       8.332  -3.858  23.205  0.00  0.00    -0.299 N 
ATOM      2  H   UNL     1       9.090  -4.192  22.622  0.00  0.00    +0.154 HD
ATOM      3  C   UNL     1       8.490  -2.489  23.521  0.00  0.00    +0.128 A 
ATOM      4  C   UNL     1       9.678  -2.115  24.109  0.00  0.00    +0.063 A 
ATOM      5  C   UNL     1       9.790  -0.800  24.470  0.00  0.00    +0.118 A 
ATOM      6  N   UNL     1       8.838   0.109  24.232  0.00  0.00    -0.223 NA
ATOM      7  C   UNL     1       7.714  -0.315  23.631  0.00  0.00    +0.221 A 
ATOM      8  N   UNL     1       6.683   0.575  23.330  0.00  0.00    -0.284 N 
ATOM      9  H   UNL     1       5.902   0.070  22.933  0.00  0.00    +0.155 HD
ATOM     10  N   UNL     1       7.505  -1.597  23.295  0.00  0.00    -0.199 NA
ENDROOT
BRANCH   1  13
ATOM     11  C   UNL     1       5.371  -5.955  24.133  0.00  0.00    +0.057 A 
ATOM     12  C   UNL     1       6.453  -5.065  24.234  0.00  0.00    +0.035 A 
ATOM     13  C   UNL     1       7.157  -4.626  23.109  0.00  0.00    +0.033 A 
ATOM     14  C   UNL     1       6.770  -5.127  21.858  0.00  0.00    +0.023 A 
ATOM     15  C   UNL     1       5.697  -6.017  21.735  0.00  0.00    +0.002 A 
ATOM     16  C   UNL     1       5.000  -6.430  22.869  0.00  0.00    +0.012 A 
BRANCH  11  18
ATOM     17  F   UNL     1       3.820  -7.440  25.205  0.00  0.00    -0.166 F 
ATOM     18  C   UNL     1       4.662  -6.384  25.389  0.00  0.00    +0.417 C 
ATOM     19  F   UNL     1       5.523  -6.764  26.373  0.00  0.00    -0.166 F 
ATOM     20  F   UNL     1       3.898  -5.390  25.924  0.00  0.00    -0.166 F 
ENDBRANCH  11  18
ENDBRANCH   1  13
BRANCH   8  21
ATOM     21  C   UNL     1       6.679   1.966  23.133  0.00  0.00    +0.035 A 
ATOM     22  C   UNL     1       5.515   2.698  22.870  0.00  0.00    +0.023 A 
ATOM     23  C   UNL     1       5.561   4.068  22.612  0.00  0.00    +0.004 A 
ATOM     24  C   UNL     1       6.782   4.736  22.620  0.00  0.00    +0.023 A 
ATOM     25  C   UNL     1       7.961   4.044  22.910  0.00  0.00    +0.035 A 
ATOM     26  C   UNL     1       7.903   2.661  23.128  0.00  0.00    +0.046 A 
BRANCH  25  27
ATOM     27  N   UNL     1       9.146   4.805  22.991  0.00  0.00    -0.285 N 
ATOM     28  H   UNL     1       9.583   5.039  22.112  0.00  0.00    +0.155 HD
ATOM     29  C   UNL     1       9.649   5.425  24.116  0.00  0.00    +0.220 C 
ATOM     30  O   UNL     1       9.175   5.383  25.243  0.00  0.00    -0.275 OA
BRANCH  29  31
ATOM     31  C   UNL     1      10.859   6.283  23.909  0.00  0.00    +0.075 C 
ATOM     32  C   UNL     1      12.222   5.648  23.734  0.00  0.00    +0.013 C 
ATOM     33  C   UNL     1      11.949   6.524  24.922  0.00  0.00    +0.013 C 
ENDBRANCH  29  31
ENDBRANCH  25  27
ENDBRANCH   8  21
TORSDOF 5
ENDMDL
MODEL 3
REMARK VINA RESULT:      -7.4      4.631      9.865
REMARK  Name = 
REMARK  5 active torsions:
REMARK  status: ('A' for Active; 'I' for Inactive)
REMARK    1  A    between atoms: C_2  and  C_5
REMARK    2  A    between atoms: C_9  and  N_10
REMARK    3  A    between atoms: N_14  and  C_15
REMARK    4  A    between atoms: C_17  and  N_18
REMARK    5  A    between atoms: C_19  and  C_21
REMARK                            x       y       z     vdW  Elec       q    Type
REMARK                         _______ _______ _______ _____ _____    ______ ____
ROOT
ATOM      1  N   UNL     1       7.951  -3.550  25.729  0.00  0.00    -0.299 N 
ATOM      2  H   UNL     1       8.919  -3.829  25.833  0.00  0.00    +0.154 HD
ATOM      3  C   UNL     1       7.808  -2.146  25.800  0.00  0.00    +0.128 A 
ATOM      4  C   UNL     1       8.314  -1.520  26.917  0.00  0.00    +0.063 A 
ATOM      5  C   UNL     1       8.109  -0.170  27.003  0.00  0.00    +0.118 A 
ATOM      6  N   UNL     1       7.500   0.541  26.048  0.00  0.00    -0.223 NA
ATOM      7  C   UNL     1       7.053  -0.125  24.971  0.00  0.00    +0.221 A 
ATOM      8  N   UNL     1       6.424   0.547  23.922  0.00  0.00    -0.284 N 
ATOM      9  H   UNL     1       6.109  -0.120  23.230  0.00  0.00    +0.155 HD
ATOM     10  N   UNL     1       7.166  -1.455  24.837  0.00  0.00    -0.199 NA
ENDROOT
BRANCH   1  13
ATOM     11  C   UNL     1       6.253  -5.495  23.015  0.00  0.00    +0.057 A 
ATOM     12  C   UNL     1       7.162  -4.652  23.677  0.00  0.00    +0.035 A 
ATOM     13  C   UNL     1       7.152  -4.501  25.067  0.00  0.00    +0.033 A 
ATOM     14  C   UNL     1       6.178  -5.200  25.795  0.00  0.00    +0.023 A 
ATOM     15  C   UNL     1       5.263  -6.042  25.155  0.00  0.00    +0.002 A 
ATOM     16  C   UNL     1       5.300  -6.189  23.770  0.00  0.00    +0.012 A 
BRANCH  11  18
ATOM     17  F   UNL     1       7.543  -6.010  21.058  0.00  0.00    -0.166 F 
ATOM     18  C   UNL     1       6.324  -5.606  21.516  0.00  0.00    +0.417 C 
ATOM     19  F   UNL     1       5.426  -6.498  21.015  0.00  0.00    -0.166 F 
ATOM     20  F   UNL     1       6.066  -4.423  20.891  0.00  0.00    -0.166 F 
ENDBRANCH  11  18
ENDBRANCH   1  13
BRANCH   8  21
ATOM     21  C   UNL     1       6.489   1.886  23.501  0.00  0.00    +0.035 A 
ATOM     22  C   UNL     1       5.363   2.620  23.111  0.00  0.00    +0.023 A 
ATOM     23  C   UNL     1       5.477   3.926  22.634  0.00  0.00    +0.004 A 
ATOM     24  C   UNL     1       6.728   4.526  22.544  0.00  0.00    +0.023 A 
ATOM     25  C   UNL     1       7.872   3.835  22.954  0.00  0.00    +0.035 A 
ATOM     26  C   UNL     1       7.746   2.511  23.395  0.00  0.00    +0.046 A 
BRANCH  25  27
ATOM     27  N   UNL     1       9.093   4.541  22.921  0.00  0.00    -0.285 N 
ATOM     28  H   UNL     1       9.492   4.691  22.007  0.00  0.00    +0.155 HD
ATOM     29  C   UNL     1       9.682   5.214  23.972  0.00  0.00    +0.220 C 
ATOM     30  O   UNL     1       9.266   5.274  25.121  0.00  0.00    -0.275 OA
BRANCH  29  31
ATOM     31  C   UNL     1      10.916   5.995  23.644  0.00  0.00    +0.075 C 
ATOM     32  C   UNL     1      12.261   5.302  23.580  0.00  0.00    +0.013 C 
ATOM     33  C   UNL     1      12.010   6.359  24.616  0.00  0.00    +0.013 C 
ENDBRANCH  29  31
ENDBRANCH  25  27
ENDBRANCH   8  21
TORSDOF 5
ENDMDL
MODEL 4
REMARK VINA RESULT:      -7.3      6.302     11.133
REMARK  Name = 
REMARK  5 active torsions:
REMARK  status: ('A' for Active; 'I' for Inactive)
REMARK    1  A    between atoms: C_2  and  C_5
REMARK    2  A    between atoms: C_9  and  N_10
REMARK    3  A    between atoms: N_14  and  C_15
REMARK    4  A    between atoms: C_17  and  N_18
REMARK    5  A    between atoms: C_19  and  C_21
REMARK                            x       y       z     vdW  Elec       q    Type
REMARK                         _______ _______ _______ _____ _____    ______ ____
ROOT
ATOM      1  N   UNL     1       5.992  -6.282  26.297  0.00  0.00    -0.299 N 
ATOM      2  H   UNL     1       6.450  -7.180  26.197  0.00  0.00    +0.154 HD
ATOM      3  C   UNL     1       6.870  -5.218  25.991  0.00  0.00    +0.128 A 
ATOM      4  C   UNL     1       8.059  -5.168  26.683  0.00  0.00    +0.063 A 
ATOM      5  C   UNL     1       8.869  -4.096  26.423  0.00  0.00    +0.118 A 
ATOM      6  N   UNL     1       8.575  -3.157  25.517  0.00  0.00    -0.223 NA
ATOM      7  C   UNL     1       7.411  -3.278  24.857  0.00  0.00    +0.221 A 
ATOM      8  N   UNL     1       7.041  -2.352  23.882  0.00  0.00    -0.284 N 
ATOM      9  H   UNL     1       6.117  -2.572  23.535  0.00  0.00    +0.155 HD
ATOM     10  N   UNL     1       6.539  -4.270  25.092  0.00  0.00    -0.199 NA
ENDROOT
BRANCH   1  13
ATOM     11  C   UNL     1       2.543  -6.768  24.919  0.00  0.00    +0.057 A 
ATOM     12  C   UNL     1       3.937  -6.850  25.071  0.00  0.00    +0.035 A 
ATOM     13  C   UNL     1       4.589  -6.344  26.199  0.00  0.00    +0.033 A 
ATOM     14  C   UNL     1       3.808  -5.715  27.180  0.00  0.00    +0.023 A 
ATOM     15  C   UNL     1       2.419  -5.622  27.047  0.00  0.00    +0.002 A 
ATOM     16  C   UNL     1       1.788  -6.146  25.920  0.00  0.00    +0.012 A 
BRANCH  11  18
ATOM     17  F   UNL     1       2.390  -6.785  22.524  0.00  0.00    -0.166 F 
ATOM     18  C   UNL     1       1.912  -7.335  23.676  0.00  0.00    +0.417 C 
ATOM     19  F   UNL     1       2.109  -8.677  23.555  0.00  0.00    -0.166 F 
ATOM     20  F   UNL     1       0.563  -7.151  23.643  0.00  0.00    -0.166 F 
ENDBRANCH  11  18
ENDBRANCH   1  13
BRANCH   8  21
ATOM     21  C   UNL     1       7.804  -1.480  23.086  0.00  0.00    +0.035 A 
ATOM     22  C   UNL     1       8.800  -1.922  22.207  0.00  0.00    +0.023 A 
ATOM     23  C   UNL     1       9.583  -1.021  21.485  0.00  0.00    +0.004 A 
ATOM     24  C   UNL     1       9.375   0.347  21.625  0.00  0.00    +0.023 A 
ATOM     25  C   UNL     1       8.368   0.824  22.469  0.00  0.00    +0.035 A 
ATOM     26  C   UNL     1       7.616  -0.091  23.218  0.00  0.00    +0.046 A 
BRANCH  25  27
ATOM     27  N   UNL     1       8.156   2.219  22.488  0.00  0.00    -0.285 N 
ATOM     28  H   UNL     1       7.388   2.557  21.927  0.00  0.00    +0.155 HD
ATOM     29  C   UNL     1       8.748   3.129  23.339  0.00  0.00    +0.220 C 
ATOM     30  O   UNL     1       9.590   2.886  24.192  0.00  0.00    -0.275 OA
BRANCH  29  31
ATOM     31  C   UNL     1       8.254   4.539  23.241  0.00  0.00    +0.075 C 
ATOM     32  C   UNL     1       6.898   4.912  23.801  0.00  0.00    +0.013 C 
ATOM     33  C   UNL     1       7.158   5.025  22.327  0.00  0.00    +0.013 C 
ENDBRANCH  29  31
ENDBRANCH  25  27
ENDBRANCH   8  21
TORSDOF 5
ENDMDL
MODEL 5
REMARK VINA RESULT:      -7.1      5.191      9.150
REMARK  Name = 
REMARK  5 active torsions:
REMARK  status: ('A' for Active; 'I' for Inactive)
REMARK    1  A    between atoms: C_2  and  C_5
REMARK    2  A    between atoms: C_9  and  N_10
REMARK    3  A    between atoms: N_14  and  C_15
REMARK    4  A    between atoms: C_17  and  N_18
REMARK    5  A    between atoms: C_19  and  C_21
REMARK                            x       y       z     vdW  Elec       q    Type
REMARK                         _______ _______ _______ _____ _____    ______ ____
ROOT
ATOM      1  N   UNL     1       8.809  -1.722  22.033  0.00  0.00    -0.299 N 
ATOM      2  H   UNL     1       9.015  -1.937  21.065  0.00  0.00    +0.154 HD
ATOM      3  C   UNL     1       8.604  -0.336  22.220  0.00  0.00    +0.128 A 
ATOM      4  C   UNL     1       9.608   0.508  21.801  0.00  0.00    +0.063 A 
ATOM      5  C   UNL     1       9.425   1.842  22.049  0.00  0.00    +0.118 A 
ATOM      6  N   UNL     1       8.321   2.336  22.620  0.00  0.00    -0.223 NA
ATOM      7  C   UNL     1       7.367   1.462  22.982  0.00  0.00    +0.221 A 
ATOM      8  N   UNL     1       6.178   1.900  23.565  0.00  0.00    -0.284 N 
ATOM      9  H   UNL     1       5.609   1.103  23.819  0.00  0.00    +0.155 HD
ATOM     10  N   UNL     1       7.494   0.136  22.822  0.00  0.00    -0.199 NA
ENDROOT
BRANCH   1  13
ATOM     11  C   UNL     1       8.412  -4.383  24.638  0.00  0.00    +0.057 A 
ATOM     12  C   UNL     1       8.829  -3.207  23.993  0.00  0.00    +0.035 A 
ATOM     13  C   UNL     1       8.297  -2.811  22.762  0.00  0.00    +0.033 A 
ATOM     14  C   UNL     1       7.343  -3.645  22.162  0.00  0.00    +0.023 A 
ATOM     15  C   UNL     1       6.916  -4.822  22.788  0.00  0.00    +0.002 A 
ATOM     16  C   UNL     1       7.449  -5.190  24.021  0.00  0.00    +0.012 A 
BRANCH  11  18
ATOM     17  F   UNL     1      10.310  -5.204  25.857  0.00  0.00    -0.166 F 
ATOM     18  C   UNL     1       9.031  -4.744  25.962  0.00  0.00    +0.417 C 
ATOM     19  F   UNL     1       9.087  -3.687  26.819  0.00  0.00    -0.166 F 
ATOM     20  F   UNL     1       8.338  -5.719  26.615  0.00  0.00    -0.166 F 
ENDBRANCH  11  18
ENDBRANCH   1  13
BRANCH   8  21
ATOM     21  C   UNL     1       5.515   3.137  23.514  0.00  0.00    +0.035 A 
ATOM     22  C   UNL     1       5.658   4.123  24.497  0.00  0.00    +0.023 A 
ATOM     23  C   UNL     1       4.930   5.311  24.446  0.00  0.00    +0.004 A 
ATOM     24  C   UNL     1       4.044   5.538  23.398  0.00  0.00    +0.023 A 
ATOM     25  C   UNL     1       3.898   4.591  22.381  0.00  0.00    +0.035 A 
ATOM     26  C   UNL     1       4.607   3.385  22.467  0.00  0.00    +0.046 A 
BRANCH  25  27
ATOM     27  N   UNL     1       3.052   4.932  21.304  0.00  0.00    -0.285 N 
ATOM     28  H   UNL     1       3.437   5.574  20.627  0.00  0.00    +0.155 HD
ATOM     29  C   UNL     1       1.854   4.332  20.978  0.00  0.00    +0.220 C 
ATOM     30  O   UNL     1       1.301   3.431  21.593  0.00  0.00    -0.275 OA
BRANCH  29  31
ATOM     31  C   UNL     1       1.211   4.795  19.708  0.00  0.00    +0.075 C 
ATOM     32  C   UNL     1       1.640   4.209  18.379  0.00  0.00    +0.013 C 
ATOM     33  C   UNL     1       1.857   5.667  18.662  0.00  0.00    +0.013 C 
ENDBRANCH  29  31
ENDBRANCH  25  27
ENDBRANCH   8  21
TORSDOF 5
ENDMDL
MODEL 6
REMARK VINA RESULT:      -7.1      3.195      5.089
REMARK  Name = 
REMARK  5 active torsions:
REMARK  status: ('A' for Active; 'I' for Inactive)
REMARK    1  A    between atoms: C_2  and  C_5
REMARK    2  A    between atoms: C_9  and  N_10
REMARK    3  A    between atoms: N_14  and  C_15
REMARK    4  A    between atoms: C_17  and  N_18
REMARK    5  A    between atoms: C_19  and  C_21
REMARK                            x       y       z     vdW  Elec       q    Type
REMARK                         _______ _______ _______ _____ _____    ______ ____
ROOT
ATOM      1  N   UNL     1       9.580   1.764  24.426  0.00  0.00    -0.299 N 
ATOM      2  H   UNL     1      10.274   1.748  25.164  0.00  0.00    +0.154 HD
ATOM      3  C   UNL     1       9.420   0.487  23.842  0.00  0.00    +0.128 A 
ATOM      4  C   UNL     1      10.552  -0.124  23.350  0.00  0.00    +0.063 A 
ATOM      5  C   UNL     1      10.371  -1.329  22.728  0.00  0.00    +0.118 A 
ATOM      6  N   UNL     1       9.181  -1.933  22.631  0.00  0.00    -0.223 NA
ATOM      7  C   UNL     1       8.121  -1.297  23.155  0.00  0.00    +0.221 A 
ATOM      8  N   UNL     1       6.849  -1.869  23.112  0.00  0.00    -0.284 N 
ATOM      9  H   UNL     1       6.173  -1.226  23.502  0.00  0.00    +0.155 HD
ATOM     10  N   UNL     1       8.206  -0.089  23.732  0.00  0.00    -0.199 NA
ENDROOT
BRANCH   1  13
ATOM     11  C   UNL     1       7.818   5.012  23.818  0.00  0.00    +0.057 A 
ATOM     12  C   UNL     1       8.634   3.886  23.620  0.00  0.00    +0.035 A 
ATOM     13  C   UNL     1       8.661   2.824  24.529  0.00  0.00    +0.033 A 
ATOM     14  C   UNL     1       7.864   2.926  25.678  0.00  0.00    +0.023 A 
ATOM     15  C   UNL     1       7.046   4.040  25.895  0.00  0.00    +0.002 A 
ATOM     16  C   UNL     1       7.023   5.080  24.968  0.00  0.00    +0.012 A 
BRANCH  11  18
ATOM     17  F   UNL     1       7.544   5.695  21.533  0.00  0.00    -0.166 F 
ATOM     18  C   UNL     1       7.842   6.116  22.795  0.00  0.00    +0.417 C 
ATOM     19  F   UNL     1       6.951   7.108  23.074  0.00  0.00    -0.166 F 
ATOM     20  F   UNL     1       9.060   6.721  22.706  0.00  0.00    -0.166 F 
ENDBRANCH  11  18
ENDBRANCH   1  13
BRANCH   8  21
ATOM     21  C   UNL     1       6.432  -3.205  22.997  0.00  0.00    +0.035 A 
ATOM     22  C   UNL     1       6.560  -3.948  21.817  0.00  0.00    +0.023 A 
ATOM     23  C   UNL     1       6.071  -5.251  21.721  0.00  0.00    +0.004 A 
ATOM     24  C   UNL     1       5.447  -5.840  22.816  0.00  0.00    +0.023 A 
ATOM     25  C   UNL     1       5.329  -5.141  24.020  0.00  0.00    +0.035 A 
ATOM     26  C   UNL     1       5.790  -3.820  24.089  0.00  0.00    +0.046 A 
BRANCH  25  27
ATOM     27  N   UNL     1       4.768  -5.837  25.112  0.00  0.00    -0.285 N 
ATOM     28  H   UNL     1       3.845  -6.218  24.966  0.00  0.00    +0.155 HD
ATOM     29  C   UNL     1       5.421  -6.221  26.264  0.00  0.00    +0.220 C 
ATOM     30  O   UNL     1       6.586  -5.984  26.554  0.00  0.00    -0.275 OA
BRANCH  29  31
ATOM     31  C   UNL     1       4.633  -7.065  27.218  0.00  0.00    +0.075 C 
ATOM     32  C   UNL     1       3.517  -6.450  28.035  0.00  0.00    +0.013 C 
ATOM     33  C   UNL     1       4.727  -7.013  28.722  0.00  0.00    +0.013 C 
ENDBRANCH  29  31
ENDBRANCH  25  27
ENDBRANCH   8  21
TORSDOF 5
ENDMDL
MODEL 7
REMARK VINA RESULT:      -7.1      2.549      4.810
REMARK  Name = 
REMARK  5 active torsions:
REMARK  status: ('A' for Active; 'I' for Inactive)
REMARK    1  A    between atoms: C_2  and  C_5
REMARK    2  A    between atoms: C_9  and  N_10
REMARK    3  A    between atoms: N_14  and  C_15
REMARK    4  A    between atoms: C_17  and  N_18
REMARK    5  A    between atoms: C_19  and  C_21
REMARK                            x       y       z     vdW  Elec       q    Type
REMARK                         _______ _______ _______ _____ _____    ______ ____
ROOT
ATOM      1  N   UNL     1       7.939   1.354  25.800  0.00  0.00    -0.299 N 
ATOM      2  H   UNL     1       7.420   1.593  26.637  0.00  0.00    +0.154 HD
ATOM      3  C   UNL     1       8.010  -0.045  25.618  0.00  0.00    +0.128 A 
ATOM      4  C   UNL     1       8.518  -0.788  26.661  0.00  0.00    +0.063 A 
ATOM      5  C   UNL     1       8.642  -2.134  26.445  0.00  0.00    +0.118 A 
ATOM      6  N   UNL     1       8.254  -2.733  25.314  0.00  0.00    -0.223 NA
ATOM      7  C   UNL     1       7.741  -1.956  24.346  0.00  0.00    +0.221 A 
ATOM      8  N   UNL     1       7.295  -2.508  23.145  0.00  0.00    -0.284 N 
ATOM      9  H   UNL     1       6.996  -1.770  22.521  0.00  0.00    +0.155 HD
ATOM     10  N   UNL     1       7.637  -0.623  24.459  0.00  0.00    -0.199 NA
ENDROOT
BRANCH   1  13
ATOM     11  C   UNL     1       8.990   4.428  23.936  0.00  0.00    +0.057 A 
ATOM     12  C   UNL     1       9.029   3.314  24.791  0.00  0.00    +0.035 A 
ATOM     13  C   UNL     1       7.985   2.387  24.845  0.00  0.00    +0.033 A 
ATOM     14  C   UNL     1       6.864   2.614  24.033  0.00  0.00    +0.023 A 
ATOM     15  C   UNL     1       6.805   3.718  23.176  0.00  0.00    +0.002 A 
ATOM     16  C   UNL     1       7.864   4.622  23.128  0.00  0.00    +0.012 A 
BRANCH  11  18
ATOM     17  F   UNL     1      10.056   6.355  22.982  0.00  0.00    -0.166 F 
ATOM     18  C   UNL     1      10.153   5.384  23.934  0.00  0.00    +0.417 C 
ATOM     19  F   UNL     1      10.293   6.040  25.119  0.00  0.00    -0.166 F 
ATOM     20  F   UNL     1      11.343   4.760  23.708  0.00  0.00    -0.166 F 
ENDBRANCH  11  18
ENDBRANCH   1  13
BRANCH   8  21
ATOM     21  C   UNL     1       6.858  -3.803  22.819  0.00  0.00    +0.035 A 
ATOM     22  C   UNL     1       7.685  -4.762  22.223  0.00  0.00    +0.023 A 
ATOM     23  C   UNL     1       7.195  -6.014  21.852  0.00  0.00    +0.004 A 
ATOM     24  C   UNL     1       5.861  -6.333  22.080  0.00  0.00    +0.023 A 
ATOM     25  C   UNL     1       5.013  -5.413  22.702  0.00  0.00    +0.035 A 
ATOM     26  C   UNL     1       5.509  -4.145  23.033  0.00  0.00    +0.046 A 
BRANCH  25  27
ATOM     27  N   UNL     1       3.698  -5.842  22.983  0.00  0.00    -0.285 N 
ATOM     28  H   UNL     1       2.976  -5.474  22.383  0.00  0.00    +0.155 HD
ATOM     29  C   UNL     1       3.331  -6.852  23.848  0.00  0.00    +0.220 C 
ATOM     30  O   UNL     1       4.081  -7.517  24.550  0.00  0.00    -0.275 OA
BRANCH  29  31
ATOM     31  C   UNL     1       1.875  -7.201  23.872  0.00  0.00    +0.075 C 
ATOM     32  C   UNL     1       1.318  -8.210  22.891  0.00  0.00    +0.013 C 
ATOM     33  C   UNL     1       0.854  -6.783  22.843  0.00  0.00    +0.013 C 
ENDBRANCH  29  31
ENDBRANCH  25  27
ENDBRANCH   8  21
TORSDOF 5
ENDMDL
MODEL 8
REMARK VINA RESULT:      -7.1      2.790      4.399
REMARK  Name = 
REMARK  5 active torsions:
REMARK  status: ('A' for Active; 'I' for Inactive)
REMARK    1  A    between atoms: C_2  and  C_5
REMARK    2  A    between atoms: C_9  and  N_10
REMARK    3  A    between atoms: N_14  and  C_15
REMARK    4  A    between atoms: C_17  and  N_18
REMARK    5  A    between atoms: C_19  and  C_21
REMARK                            x       y       z     vdW  Elec       q    Type
REMARK                         _______ _______ _______ _____ _____    ______ ____
ROOT
ATOM      1  N   UNL     1      10.155   1.203  23.812  0.00  0.00    -0.299 N 
ATOM      2  H   UNL     1      11.146   1.205  24.023  0.00  0.00    +0.154 HD
ATOM      3  C   UNL     1       9.651  -0.114  23.719  0.00  0.00    +0.128 A 
ATOM      4  C   UNL     1      10.277  -0.964  22.835  0.00  0.00    +0.063 A 
ATOM      5  C   UNL     1       9.736  -2.215  22.707  0.00  0.00    +0.118 A 
ATOM      6  N   UNL     1       8.689  -2.637  23.425  0.00  0.00    -0.223 NA
ATOM      7  C   UNL     1       8.141  -1.768  24.289  0.00  0.00    +0.221 A 
ATOM      8  N   UNL     1       7.058  -2.138  25.088  0.00  0.00    -0.284 N 
ATOM      9  H   UNL     1       6.748  -1.344  25.631  0.00  0.00    +0.155 HD
ATOM     10  N   UNL     1       8.578  -0.508  24.433  0.00  0.00    -0.199 NA
ENDROOT
BRANCH   1  13
ATOM     11  C   UNL     1       9.364   4.839  24.228  0.00  0.00    +0.057 A 
ATOM     12  C   UNL     1       9.937   3.651  23.746  0.00  0.00    +0.035 A 
ATOM     13  C   UNL     1       9.495   2.393  24.166  0.00  0.00    +0.033 A 
ATOM     14  C   UNL     1       8.466   2.345  25.118  0.00  0.00    +0.023 A 
ATOM     15  C   UNL     1       7.883   3.517  25.612  0.00  0.00    +0.002 A 
ATOM     16  C   UNL     1       8.330   4.760  25.169  0.00  0.00    +0.012 A 
BRANCH  11  18
ATOM     17  F   UNL     1      10.092   7.073  24.720  0.00  0.00    -0.166 F 
ATOM     18  C   UNL     1       9.894   6.157  23.730  0.00  0.00    +0.417 C 
ATOM     19  F   UNL     1      11.093   6.032  23.096  0.00  0.00    -0.166 F 
ATOM     20  F   UNL     1       9.057   6.753  22.835  0.00  0.00    -0.166 F 
ENDBRANCH  11  18
ENDBRANCH   1  13
BRANCH   8  21
ATOM     21  C   UNL     1       6.611  -3.395  25.527  0.00  0.00    +0.035 A 
ATOM     22  C   UNL     1       7.243  -4.119  26.546  0.00  0.00    +0.023 A 
ATOM     23  C   UNL     1       6.809  -5.395  26.907  0.00  0.00    +0.004 A 
ATOM     24  C   UNL     1       5.723  -5.969  26.256  0.00  0.00    +0.023 A 
ATOM     25  C   UNL     1       5.047  -5.264  25.256  0.00  0.00    +0.035 A 
ATOM     26  C   UNL     1       5.518  -4.000  24.877  0.00  0.00    +0.046 A 
BRANCH  25  27
ATOM     27  N   UNL     1       3.899  -5.873  24.707  0.00  0.00    -0.285 N 
ATOM     28  H   UNL     1       3.151  -6.072  25.355  0.00  0.00    +0.155 HD
ATOM     29  C   UNL     1       3.616  -6.035  23.367  0.00  0.00    +0.220 C 
ATOM     30  O   UNL     1       4.333  -5.717  22.428  0.00  0.00    -0.275 OA
BRANCH  29  31
ATOM     31  C   UNL     1       2.267  -6.598  23.042  0.00  0.00    +0.075 C 
ATOM     32  C   UNL     1       1.085  -5.675  22.840  0.00  0.00    +0.013 C 
ATOM     33  C   UNL     1       1.088  -6.651  23.981  0.00  0.00    +0.013 C 
ENDBRANCH  29  31
ENDBRANCH  25  27
ENDBRANCH   8  21
TORSDOF 5
ENDMDL
MODEL 9
REMARK VINA RESULT:      -7.1      5.511      9.298
REMARK  Name = 
REMARK  5 active torsions:
REMARK  status: ('A' for Active; 'I' for Inactive)
REMARK    1  A    between atoms: C_2  and  C_5
REMARK    2  A    between atoms: C_9  and  N_10
REMARK    3  A    between atoms: N_14  and  C_15
REMARK    4  A    between atoms: C_17  and  N_18
REMARK    5  A    between atoms: C_19  and  C_21
REMARK                            x       y       z     vdW  Elec       q    Type
REMARK                         _______ _______ _______ _____ _____    ______ ____
ROOT
ATOM      1  N   UNL     1       9.095  -1.820  22.098  0.00  0.00    -0.299 N 
ATOM      2  H   UNL     1       9.242  -2.058  21.124  0.00  0.00    +0.154 HD
ATOM      3  C   UNL     1       8.831  -0.441  22.256  0.00  0.00    +0.128 A 
ATOM      4  C   UNL     1       9.756   0.438  21.738  0.00  0.00    +0.063 A 
ATOM      5  C   UNL     1       9.521   1.768  21.958  0.00  0.00    +0.118 A 
ATOM      6  N   UNL     1       8.436   2.226  22.593  0.00  0.00    -0.223 NA
ATOM      7  C   UNL     1       7.559   1.318  23.051  0.00  0.00    +0.221 A 
ATOM      8  N   UNL     1       6.393   1.716  23.706  0.00  0.00    -0.284 N 
ATOM      9  H   UNL     1       5.887   0.901  24.026  0.00  0.00    +0.155 HD
ATOM     10  N   UNL     1       7.744  -0.005  22.924  0.00  0.00    -0.199 NA
ENDROOT
BRANCH   1  13
ATOM     11  C   UNL     1       7.156  -4.744  23.408  0.00  0.00    +0.057 A 
ATOM     12  C   UNL     1       7.646  -3.758  22.536  0.00  0.00    +0.035 A 
ATOM     13  C   UNL     1       8.695  -2.907  22.896  0.00  0.00    +0.033 A 
ATOM     14  C   UNL     1       9.236  -3.044  24.183  0.00  0.00    +0.023 A 
ATOM     15  C   UNL     1       8.761  -4.018  25.067  0.00  0.00    +0.002 A 
ATOM     16  C   UNL     1       7.724  -4.865  24.681  0.00  0.00    +0.012 A 
BRANCH  11  18
ATOM     17  F   UNL     1       5.443  -6.333  23.958  0.00  0.00    -0.166 F 
ATOM     18  C   UNL     1       6.024  -5.623  22.949  0.00  0.00    +0.417 C 
ATOM     19  F   UNL     1       5.016  -4.916  22.367  0.00  0.00    -0.166 F 
ATOM     20  F   UNL     1       6.417  -6.544  22.025  0.00  0.00    -0.166 F 
ENDBRANCH  11  18
ENDBRANCH   1  13
BRANCH   8  21
ATOM     21  C   UNL     1       5.664   2.915  23.665  0.00  0.00    +0.035 A 
ATOM     22  C   UNL     1       5.756   3.901  24.656  0.00  0.00    +0.023 A 
ATOM     23  C   UNL     1       4.964   5.048  24.615  0.00  0.00    +0.004 A 
ATOM     24  C   UNL     1       4.064   5.234  23.570  0.00  0.00    +0.023 A 
ATOM     25  C   UNL     1       3.967   4.287  22.547  0.00  0.00    +0.035 A 
ATOM     26  C   UNL     1       4.741   3.121  22.622  0.00  0.00    +0.046 A 
BRANCH  25  27
ATOM     27  N   UNL     1       3.101   4.589  21.475  0.00  0.00    -0.285 N 
ATOM     28  H   UNL     1       3.438   5.275  20.815  0.00  0.00    +0.155 HD
ATOM     29  C   UNL     1       1.953   3.908  21.129  0.00  0.00    +0.220 C 
ATOM     30  O   UNL     1       1.467   2.954  21.720  0.00  0.00    -0.275 OA
BRANCH  29  31
ATOM     31  C   UNL     1       1.280   4.352  19.867  0.00  0.00    +0.075 C 
ATOM     32  C   UNL     1       1.826   3.924  18.522  0.00  0.00    +0.013 C 
ATOM     33  C   UNL     1       1.814   5.377  18.899  0.00  0.00    +0.013 C 
ENDBRANCH  29  31
ENDBRANCH  25  27
ENDBRANCH   8  21
TORSDOF 5
ENDMDL
