MODEL 1
REMARK VINA RESULT:      -7.9      0.000      0.000
REMARK  Name = 
REMARK  10 active torsions:
REMARK  status: ('A' for Active; 'I' for Inactive)
REMARK    1  A    between atoms: C_3  and  C_5
REMARK    2  A    between atoms: C_8  and  O_9
REMARK    3  A    between atoms: C_16  and  O_17
REMARK    4  A    between atoms: C_18  and  O_19
REMARK    5  A    between atoms: C_22  and  C_23
REMARK    6  A    between atoms: C_26  and  O_27
REMARK    7  A    between atoms: C_28  and  N_30
REMARK    8  A    between atoms: N_30  and  C_31
REMARK    9  A    between atoms: N_30  and  C_32
REMARK   10  A    between atoms: C_35  and  O_37
REMARK                            x       y       z     vdW  Elec       q    Type
REMARK                         _______ _______ _______ _____ _____    ______ ____
ROOT
ATOM      1  C   UNL     1       7.565   1.854  24.399  0.00  0.00    +0.062 C 
ATOM      2  C   UNL     1       6.754   0.673  23.836  0.00  0.00    +0.131 C 
ATOM      3  C   UNL     1       7.308  -0.688  24.311  0.00  0.00    +0.090 C 
ATOM      4  C   UNL     1       8.799  -0.854  23.936  0.00  0.00    +0.192 C 
ATOM      5  C   UNL     1       8.945  -1.979  22.884  0.00  0.00    +0.211 C 
ATOM      6  C   UNL     1       8.184  -3.243  23.117  0.00  0.00    +0.121 C 
ATOM      7  C   UNL     1       6.864  -3.011  23.138  0.00  0.00    +0.127 C 
ATOM      8  O   UNL     1       9.584  -1.878  21.834  0.00  0.00    -0.288 OA
ATOM      9  C   UNL     1       9.522   0.478  23.655  0.00  0.00    +0.141 C 
ATOM     10  C   UNL     1       6.300  -1.755  23.745  0.00  0.00    +0.132 C 
ATOM     11  C   UNL     1       8.974   1.703  23.882  0.00  0.00    +0.047 C 
ATOM     12  C   UNL     1       9.793   2.944  23.727  0.00  0.00    +0.197 C 
ATOM     13  O   UNL     1      10.996   2.872  23.467  0.00  0.00    -0.287 OA
ATOM     14  C   UNL     1       9.154   4.276  23.887  0.00  0.00    +0.067 A 
ATOM     15  C   UNL     1       9.950   5.441  23.867  0.00  0.00    +0.128 A 
ATOM     16  C   UNL     1       9.382   6.710  23.958  0.00  0.00    +0.046 A 
ATOM     17  C   UNL     1       8.005   6.841  24.037  0.00  0.00    +0.004 A 
ATOM     18  C   UNL     1       7.208   5.700  24.047  0.00  0.00    +0.005 A 
ATOM     19  C   UNL     1       7.765   4.400  24.017  0.00  0.00    -0.030 A 
ATOM     20  C   UNL     1       6.842   3.195  24.080  0.00  0.00    +0.027 C 
ATOM     21  C   UNL     1       5.717   3.453  25.119  0.00  0.00    +0.013 C 
ENDROOT
BRANCH   6  22
ATOM     22  C   UNL     1       8.520  -4.232  24.186  0.00  0.00    +0.248 C 
ATOM     23  O   UNL     1       9.644  -4.388  24.647  0.00  0.00    -0.270 OA
ATOM     24  N   UNL     1       7.510  -4.971  24.696  0.00  0.00    -0.325 N 
ATOM     25  H   UNL     1       7.772  -5.655  25.399  0.00  0.00    +0.145 HD
ATOM     26  H   UNL     1       6.536  -4.898  24.437  0.00  0.00    +0.145 HD
ENDBRANCH   6  22
BRANCH  10  27
ATOM     27  N   UNL     1       5.224  -1.913  24.764  0.00  0.00    -0.298 NA
ATOM     28  C   UNL     1       4.370  -3.076  24.519  0.00  0.00    +0.105 C 
ATOM     29  C   UNL     1       5.698  -1.941  26.154  0.00  0.00    +0.105 C 
ENDBRANCH  10  27
BRANCH   2  30
ATOM     30  O   UNL     1       5.371   0.809  24.148  0.00  0.00    -0.391 OA
ATOM     31  H   UNL     1       5.169   0.301  24.964  0.00  0.00    +0.210 HD
ENDBRANCH   2  30
BRANCH   7  32
ATOM     32  O   UNL     1       6.066  -3.530  22.114  0.00  0.00    -0.509 OA
ATOM     33  H   UNL     1       5.777  -2.807  21.528  0.00  0.00    +0.292 HD
ENDBRANCH   7  32
BRANCH   4  34
ATOM     34  O   UNL     1       9.521  -1.388  25.072  0.00  0.00    -0.373 OA
ATOM     35  H   UNL     1       9.132  -0.940  25.854  0.00  0.00    +0.211 HD
ENDBRANCH   4  34
BRANCH   9  36
ATOM     36  O   UNL     1      10.862   0.313  23.322  0.00  0.00    -0.507 OA
ATOM     37  H   UNL     1      11.293   1.199  23.293  0.00  0.00    +0.292 HD
ENDBRANCH   9  36
BRANCH  15  38
ATOM     38  O   UNL     1      11.320   5.419  23.755  0.00  0.00    -0.506 OA
ATOM     39  H   UNL     1      11.557   5.600  22.823  0.00  0.00    +0.292 HD
ENDBRANCH  15  38
TORSDOF 7
ENDMDL
MODEL 2
REMARK VINA RESULT:      -7.7      3.333      5.392
REMARK  Name = 
REMARK  10 active torsions:
REMARK  status: ('A' for Active; 'I' for Inactive)
REMARK    1  A    between atoms: C_3  and  C_5
REMARK    2  A    between atoms: C_8  and  O_9
REMARK    3  A    between atoms: C_16  and  O_17
REMARK    4  A    between atoms: C_18  and  O_19
REMARK    5  A    between atoms: C_22  and  C_23
REMARK    6  A    between atoms: C_26  and  O_27
REMARK    7  A    between atoms: C_28  and  N_30
REMARK    8  A    between atoms: N_30  and  C_31
REMARK    9  A    between atoms: N_30  and  C_32
REMARK   10  A    between atoms: C_35  and  O_37
REMARK                            x       y       z     vdW  Elec       q    Type
REMARK                         _______ _______ _______ _____ _____    ______ ____
ROOT
ATOM      1  C   UNL     1       6.382  -1.835  25.051  0.00  0.00    +0.062 C 
ATOM      2  C   UNL     1       5.052  -2.457  25.513  0.00  0.00    +0.131 C 
ATOM      3  C   UNL     1       5.271  -3.612  26.515  0.00  0.00    +0.090 C 
ATOM      4  C   UNL     1       6.182  -4.712  25.920  0.00  0.00    +0.192 C 
ATOM      5  C   UNL     1       5.361  -6.008  25.715  0.00  0.00    +0.211 C 
ATOM      6  C   UNL     1       4.459  -6.435  26.828  0.00  0.00    +0.121 C 
ATOM      7  C   UNL     1       3.519  -5.509  27.064  0.00  0.00    +0.127 C 
ATOM      8  O   UNL     1       5.344  -6.669  24.675  0.00  0.00    -0.288 OA
ATOM      9  C   UNL     1       7.051  -4.230  24.743  0.00  0.00    +0.141 C 
ATOM     10  C   UNL     1       3.824  -4.039  26.961  0.00  0.00    +0.132 C 
ATOM     11  C   UNL     1       7.159  -2.929  24.360  0.00  0.00    +0.047 C 
ATOM     12  C   UNL     1       8.140  -2.522  23.307  0.00  0.00    +0.197 C 
ATOM     13  O   UNL     1       8.918  -3.349  22.824  0.00  0.00    -0.287 OA
ATOM     14  C   UNL     1       8.178  -1.114  22.835  0.00  0.00    +0.067 A 
ATOM     15  C   UNL     1       9.185  -0.704  21.936  0.00  0.00    +0.128 A 
ATOM     16  C   UNL     1       9.221   0.593  21.428  0.00  0.00    +0.046 A 
ATOM     17  C   UNL     1       8.232   1.495  21.783  0.00  0.00    +0.004 A 
ATOM     18  C   UNL     1       7.227   1.100  22.662  0.00  0.00    +0.005 A 
ATOM     19  C   UNL     1       7.204  -0.192  23.237  0.00  0.00    -0.030 A 
ATOM     20  C   UNL     1       6.107  -0.544  24.226  0.00  0.00    +0.027 C 
ATOM     21  C   UNL     1       5.861   0.655  25.182  0.00  0.00    +0.013 C 
ENDROOT
BRANCH   6  22
ATOM     22  C   UNL     1       4.945  -6.977  28.132  0.00  0.00    +0.248 C 
ATOM     23  O   UNL     1       6.129  -7.093  28.428  0.00  0.00    -0.270 OA
ATOM     24  N   UNL     1       4.018  -7.325  29.051  0.00  0.00    -0.325 N 
ATOM     25  H   UNL     1       4.376  -7.718  29.916  0.00  0.00    +0.145 HD
ATOM     26  H   UNL     1       3.017  -7.228  28.946  0.00  0.00    +0.145 HD
ENDBRANCH   6  22
BRANCH  10  27
ATOM     27  N   UNL     1       3.464  -3.184  28.128  0.00  0.00    -0.298 NA
ATOM     28  C   UNL     1       2.021  -2.986  28.269  0.00  0.00    +0.105 C 
ATOM     29  C   UNL     1       4.022  -3.635  29.410  0.00  0.00    +0.105 C 
ENDBRANCH  10  27
BRANCH   2  30
ATOM     30  O   UNL     1       4.182  -1.464  26.047  0.00  0.00    -0.391 OA
ATOM     31  H   UNL     1       4.678  -0.624  26.162  0.00  0.00    +0.210 HD
ENDBRANCH   2  30
BRANCH   7  32
ATOM     32  O   UNL     1       2.183  -5.811  26.786  0.00  0.00    -0.509 OA
ATOM     33  H   UNL     1       1.721  -5.005  26.489  0.00  0.00    +0.292 HD
ENDBRANCH   7  32
BRANCH   4  34
ATOM     34  O   UNL     1       7.159  -5.110  26.912  0.00  0.00    -0.373 OA
ATOM     35  H   UNL     1       6.959  -6.052  27.102  0.00  0.00    +0.211 HD
ENDBRANCH   4  34
BRANCH   9  36
ATOM     36  O   UNL     1       7.867  -5.229  24.221  0.00  0.00    -0.507 OA
ATOM     37  H   UNL     1       8.046  -5.893  24.927  0.00  0.00    +0.292 HD
ENDBRANCH   9  36
BRANCH  15  38
ATOM     38  O   UNL     1      10.188  -1.534  21.494  0.00  0.00    -0.506 OA
ATOM     39  H   UNL     1      10.113  -2.389  21.965  0.00  0.00    +0.292 HD
ENDBRANCH  15  38
TORSDOF 7
ENDMDL
MODEL 3
REMARK VINA RESULT:      -7.6      2.792      7.909
REMARK  Name = 
REMARK  10 active torsions:
REMARK  status: ('A' for Active; 'I' for Inactive)
REMARK    1  A    between atoms: C_3  and  C_5
REMARK    2  A    between atoms: C_8  and  O_9
REMARK    3  A    between atoms: C_16  and  O_17
REMARK    4  A    between atoms: C_18  and  O_19
REMARK    5  A    between atoms: C_22  and  C_23
REMARK    6  A    between atoms: C_26  and  O_27
REMARK    7  A    between atoms: C_28  and  N_30
REMARK    8  A    between atoms: N_30  and  C_31
REMARK    9  A    between atoms: N_30  and  C_32
REMARK   10  A    between atoms: C_35  and  O_37
REMARK                            x       y       z     vdW  Elec       q    Type
REMARK                         _______ _______ _______ _____ _____    ______ ____
ROOT
ATOM      1  C   UNL     1       5.088  -2.984  25.054  0.00  0.00    +0.062 C 
ATOM      2  C   UNL     1       6.130  -1.961  25.541  0.00  0.00    +0.131 C 
ATOM      3  C   UNL     1       6.962  -1.383  24.375  0.00  0.00    +0.090 C 
ATOM      4  C   UNL     1       7.665  -2.502  23.572  0.00  0.00    +0.192 C 
ATOM      5  C   UNL     1       9.196  -2.392  23.765  0.00  0.00    +0.211 C 
ATOM      6  C   UNL     1       9.807  -1.032  23.666  0.00  0.00    +0.121 C 
ATOM      7  C   UNL     1       9.319  -0.217  24.612  0.00  0.00    +0.127 C 
ATOM      8  O   UNL     1       9.934  -3.333  24.066  0.00  0.00    -0.288 OA
ATOM      9  C   UNL     1       7.026  -3.893  23.752  0.00  0.00    +0.141 C 
ATOM     10  C   UNL     1       7.877  -0.287  25.036  0.00  0.00    +0.132 C 
ATOM     11  C   UNL     1       5.852  -4.111  24.404  0.00  0.00    +0.047 C 
ATOM     12  C   UNL     1       5.221  -5.466  24.405  0.00  0.00    +0.197 C 
ATOM     13  O   UNL     1       5.715  -6.388  23.751  0.00  0.00    -0.287 OA
ATOM     14  C   UNL     1       3.988  -5.709  25.200  0.00  0.00    +0.067 A 
ATOM     15  C   UNL     1       3.324  -6.949  25.100  0.00  0.00    +0.128 A 
ATOM     16  C   UNL     1       2.198  -7.234  25.870  0.00  0.00    +0.046 A 
ATOM     17  C   UNL     1       1.735  -6.297  26.779  0.00  0.00    +0.004 A 
ATOM     18  C   UNL     1       2.388  -5.073  26.895  0.00  0.00    +0.005 A 
ATOM     19  C   UNL     1       3.495  -4.739  26.080  0.00  0.00    -0.030 A 
ATOM     20  C   UNL     1       4.133  -3.367  26.223  0.00  0.00    +0.027 C 
ATOM     21  C   UNL     1       3.025  -2.290  26.379  0.00  0.00    +0.013 C 
ENDROOT
BRANCH   6  22
ATOM     22  C   UNL     1       9.937  -0.269  22.388  0.00  0.00    +0.248 C 
ATOM     23  O   UNL     1      10.166   0.934  22.328  0.00  0.00    -0.270 OA
ATOM     24  N   UNL     1       9.832  -0.960  21.232  0.00  0.00    -0.325 N 
ATOM     25  H   UNL     1       9.894  -0.411  20.380  0.00  0.00    +0.145 HD
ATOM     26  H   UNL     1       9.696  -1.958  21.150  0.00  0.00    +0.145 HD
ENDBRANCH   6  22
BRANCH  10  27
ATOM     27  N   UNL     1       7.100   0.985  25.025  0.00  0.00    -0.298 NA
ATOM     28  C   UNL     1       7.547   1.938  26.044  0.00  0.00    +0.105 C 
ATOM     29  C   UNL     1       7.047   1.657  23.720  0.00  0.00    +0.105 C 
ENDBRANCH  10  27
BRANCH   2  30
ATOM     30  O   UNL     1       5.514  -0.928  26.303  0.00  0.00    -0.391 OA
ATOM     31  H   UNL     1       4.768  -0.546  25.791  0.00  0.00    +0.210 HD
ENDBRANCH   2  30
BRANCH   7  32
ATOM     32  O   UNL     1      10.167   0.229  25.629  0.00  0.00    -0.509 OA
ATOM     33  H   UNL     1       9.642   0.434  26.425  0.00  0.00    +0.292 HD
ENDBRANCH   7  32
BRANCH   4  34
ATOM     34  O   UNL     1       7.505  -2.246  22.156  0.00  0.00    -0.373 OA
ATOM     35  H   UNL     1       6.625  -2.614  21.929  0.00  0.00    +0.211 HD
ENDBRANCH   4  34
BRANCH   9  36
ATOM     36  O   UNL     1       7.667  -4.888  23.022  0.00  0.00    -0.507 OA
ATOM     37  H   UNL     1       8.492  -4.513  22.631  0.00  0.00    +0.292 HD
ENDBRANCH   9  36
BRANCH  15  38
ATOM     38  O   UNL     1       3.727  -7.957  24.256  0.00  0.00    -0.506 OA
ATOM     39  H   UNL     1       4.100  -8.683  24.796  0.00  0.00    +0.292 HD
ENDBRANCH  15  38
TORSDOF 7
ENDMDL
MODEL 4
REMARK VINA RESULT:      -7.3      1.735      2.240
REMARK  Name = 
REMARK  10 active torsions:
REMARK  status: ('A' for Active; 'I' for Inactive)
REMARK    1  A    between atoms: C_3  and  C_5
REMARK    2  A    between atoms: C_8  and  O_9
REMARK    3  A    between atoms: C_16  and  O_17
REMARK    4  A    between atoms: C_18  and  O_19
REMARK    5  A    between atoms: C_22  and  C_23
REMARK    6  A    between atoms: C_26  and  O_27
REMARK    7  A    between atoms: C_28  and  N_30
REMARK    8  A    between atoms: N_30  and  C_31
REMARK    9  A    between atoms: N_30  and  C_32
REMARK   10  A    between atoms: C_35  and  O_37
REMARK                            x       y       z     vdW  Elec       q    Type
REMARK                         _______ _______ _______ _____ _____    ______ ____
ROOT
ATOM      1  C   UNL     1       7.156   0.560  25.278  0.00  0.00    +0.062 C 
ATOM      2  C   UNL     1       6.086  -0.521  25.041  0.00  0.00    +0.131 C 
ATOM      3  C   UNL     1       6.467  -1.865  25.700  0.00  0.00    +0.090 C 
ATOM      4  C   UNL     1       7.841  -2.371  25.199  0.00  0.00    +0.192 C 
ATOM      5  C   UNL     1       7.645  -3.662  24.369  0.00  0.00    +0.211 C 
ATOM      6  C   UNL     1       6.724  -4.702  24.919  0.00  0.00    +0.121 C 
ATOM      7  C   UNL     1       5.478  -4.223  25.042  0.00  0.00    +0.127 C 
ATOM      8  O   UNL     1       8.135  -3.860  23.255  0.00  0.00    -0.288 OA
ATOM      9  C   UNL     1       8.728  -1.266  24.594  0.00  0.00    +0.141 C 
ATOM     10  C   UNL     1       5.225  -2.800  25.460  0.00  0.00    +0.132 C 
ATOM     11  C   UNL     1       8.431   0.061  24.645  0.00  0.00    +0.047 C 
ATOM     12  C   UNL     1       9.415   1.081  24.170  0.00  0.00    +0.197 C 
ATOM     13  O   UNL     1      10.540   0.740  23.796  0.00  0.00    -0.287 OA
ATOM     14  C   UNL     1       9.037   2.518  24.145  0.00  0.00    +0.067 A 
ATOM     15  C   UNL     1      10.005   3.491  23.818  0.00  0.00    +0.128 A 
ATOM     16  C   UNL     1       9.677   4.842  23.731  0.00  0.00    +0.046 A 
ATOM     17  C   UNL     1       8.367   5.243  23.935  0.00  0.00    +0.004 A 
ATOM     18  C   UNL     1       7.399   4.292  24.248  0.00  0.00    +0.005 A 
ATOM     19  C   UNL     1       7.722   2.923  24.403  0.00  0.00    -0.030 A 
ATOM     20  C   UNL     1       6.629   1.943  24.793  0.00  0.00    +0.027 C 
ATOM     21  C   UNL     1       5.723   2.579  25.883  0.00  0.00    +0.013 C 
ENDROOT
BRANCH   6  22
ATOM     22  C   UNL     1       7.039  -5.546  26.111  0.00  0.00    +0.248 C 
ATOM     23  O   UNL     1       6.195  -6.133  26.778  0.00  0.00    -0.270 OA
ATOM     24  N   UNL     1       8.339  -5.696  26.448  0.00  0.00    -0.325 N 
ATOM     25  H   UNL     1       8.522  -6.250  27.279  0.00  0.00    +0.145 HD
ATOM     26  H   UNL     1       9.127  -5.307  25.948  0.00  0.00    +0.145 HD
ENDBRANCH   6  22
BRANCH  10  27
ATOM     27  N   UNL     1       4.294  -2.579  26.603  0.00  0.00    -0.298 NA
ATOM     28  C   UNL     1       2.924  -3.007  26.316  0.00  0.00    +0.105 C 
ATOM     29  C   UNL     1       4.735  -3.174  27.872  0.00  0.00    +0.105 C 
ENDBRANCH  10  27
BRANCH   2  30
ATOM     30  O   UNL     1       4.805  -0.075  25.472  0.00  0.00    -0.391 OA
ATOM     31  H   UNL     1       4.109  -0.510  24.932  0.00  0.00    +0.210 HD
ENDBRANCH   2  30
BRANCH   7  32
ATOM     32  O   UNL     1       4.467  -4.743  24.229  0.00  0.00    -0.509 OA
ATOM     33  H   UNL     1       3.614  -4.697  24.700  0.00  0.00    +0.292 HD
ENDBRANCH   7  32
BRANCH   4  34
ATOM     34  O   UNL     1       8.618  -2.837  26.329  0.00  0.00    -0.373 OA
ATOM     35  H   UNL     1       8.213  -2.405  27.112  0.00  0.00    +0.211 HD
ENDBRANCH   4  34
BRANCH   9  36
ATOM     36  O   UNL     1       9.960  -1.736  24.152  0.00  0.00    -0.507 OA
ATOM     37  H   UNL     1       9.974  -1.710  23.166  0.00  0.00    +0.292 HD
ENDBRANCH   9  36
BRANCH  15  38
ATOM     38  O   UNL     1      11.322   3.190  23.561  0.00  0.00    -0.506 OA
ATOM     39  H   UNL     1      11.815   3.210  24.406  0.00  0.00    +0.292 HD
ENDBRANCH  15  38
TORSDOF 7
ENDMDL
MODEL 5
REMARK VINA RESULT:      -7.1      1.954      3.104
REMARK  Name = 
REMARK  10 active torsions:
REMARK  status: ('A' for Active; 'I' for Inactive)
REMARK    1  A    between atoms: C_3  and  C_5
REMARK    2  A    between atoms: C_8  and  O_9
REMARK    3  A    between atoms: C_16  and  O_17
REMARK    4  A    between atoms: C_18  and  O_19
REMARK    5  A    between atoms: C_22  and  C_23
REMARK    6  A    between atoms: C_26  and  O_27
REMARK    7  A    between atoms: C_28  and  N_30
REMARK    8  A    between atoms: N_30  and  C_31
REMARK    9  A    between atoms: N_30  and  C_32
REMARK   10  A    between atoms: C_35  and  O_37
REMARK                            x       y       z     vdW  Elec       q    Type
REMARK                         _______ _______ _______ _____ _____    ______ ____
ROOT
ATOM      1  C   UNL     1       7.209  -0.492  24.652  0.00  0.00    +0.062 C 
ATOM      2  C   UNL     1       5.893  -1.290  24.678  0.00  0.00    +0.131 C 
ATOM      3  C   UNL     1       6.124  -2.795  24.419  0.00  0.00    +0.090 C 
ATOM      4  C   UNL     1       6.851  -3.032  23.074  0.00  0.00    +0.192 C 
ATOM      5  C   UNL     1       5.896  -3.748  22.089  0.00  0.00    +0.211 C 
ATOM      6  C   UNL     1       5.100  -4.898  22.615  0.00  0.00    +0.121 C 
ATOM      7  C   UNL     1       4.285  -4.504  23.603  0.00  0.00    +0.127 C 
ATOM      8  O   UNL     1       5.693  -3.392  20.926  0.00  0.00    -0.288 OA
ATOM      9  C   UNL     1       7.613  -1.798  22.553  0.00  0.00    +0.141 C 
ATOM     10  C   UNL     1       4.709  -3.458  24.598  0.00  0.00    +0.132 C 
ATOM     11  C   UNL     1       7.793  -0.656  23.271  0.00  0.00    +0.047 C 
ATOM     12  C   UNL     1       8.672   0.438  22.755  0.00  0.00    +0.197 C 
ATOM     13  O   UNL     1       9.307   0.290  21.709  0.00  0.00    -0.287 OA
ATOM     14  C   UNL     1       8.782   1.715  23.508  0.00  0.00    +0.067 A 
ATOM     15  C   UNL     1       9.706   2.695  23.090  0.00  0.00    +0.128 A 
ATOM     16  C   UNL     1       9.800   3.926  23.735  0.00  0.00    +0.046 A 
ATOM     17  C   UNL     1       8.948   4.214  24.789  0.00  0.00    +0.004 A 
ATOM     18  C   UNL     1       8.024   3.259  25.204  0.00  0.00    +0.005 A 
ATOM     19  C   UNL     1       7.953   1.980  24.604  0.00  0.00    -0.030 A 
ATOM     20  C   UNL     1       6.955   0.966  25.136  0.00  0.00    +0.027 C 
ATOM     21  C   UNL     1       6.938   1.015  26.688  0.00  0.00    +0.013 C 
ENDROOT
BRANCH   6  22
ATOM     22  C   UNL     1       5.689  -6.224  22.971  0.00  0.00    +0.248 C 
ATOM     23  O   UNL     1       6.812  -6.587  22.642  0.00  0.00    -0.270 OA
ATOM     24  N   UNL     1       4.945  -7.055  23.735  0.00  0.00    -0.325 N 
ATOM     25  H   UNL     1       5.358  -7.961  23.936  0.00  0.00    +0.145 HD
ATOM     26  H   UNL     1       4.030  -6.851  24.111  0.00  0.00    +0.145 HD
ENDBRANCH   6  22
BRANCH  10  27
ATOM     27  N   UNL     1       4.573  -3.796  26.044  0.00  0.00    -0.298 NA
ATOM     28  C   UNL     1       3.186  -4.036  26.447  0.00  0.00    +0.105 C 
ATOM     29  C   UNL     1       5.411  -4.918  26.490  0.00  0.00    +0.105 C 
ENDBRANCH  10  27
BRANCH   2  30
ATOM     30  O   UNL     1       5.189  -1.075  25.897  0.00  0.00    -0.391 OA
ATOM     31  H   UNL     1       5.623  -0.352  26.401  0.00  0.00    +0.210 HD
ENDBRANCH   2  30
BRANCH   7  32
ATOM     32  O   UNL     1       2.902  -4.533  23.395  0.00  0.00    -0.509 OA
ATOM     33  H   UNL     1       2.577  -5.446  23.494  0.00  0.00    +0.292 HD
ENDBRANCH   7  32
BRANCH   4  34
ATOM     34  O   UNL     1       7.901  -4.012  23.266  0.00  0.00    -0.373 OA
ATOM     35  H   UNL     1       7.906  -4.543  22.441  0.00  0.00    +0.211 HD
ENDBRANCH   4  34
BRANCH   9  36
ATOM     36  O   UNL     1       8.264  -2.028  21.345  0.00  0.00    -0.507 OA
ATOM     37  H   UNL     1       7.750  -2.693  20.829  0.00  0.00    +0.292 HD
ENDBRANCH   9  36
BRANCH  15  38
ATOM     38  O   UNL     1      10.568   2.521  22.033  0.00  0.00    -0.506 OA
ATOM     39  H   UNL     1      11.087   3.342  21.918  0.00  0.00    +0.292 HD
ENDBRANCH  15  38
TORSDOF 7
ENDMDL
MODEL 6
REMARK VINA RESULT:      -7.0      1.832      3.738
REMARK  Name = 
REMARK  10 active torsions:
REMARK  status: ('A' for Active; 'I' for Inactive)
REMARK    1  A    between atoms: C_3  and  C_5
REMARK    2  A    between atoms: C_8  and  O_9
REMARK    3  A    between atoms: C_16  and  O_17
REMARK    4  A    between atoms: C_18  and  O_19
REMARK    5  A    between atoms: C_22  and  C_23
REMARK    6  A    between atoms: C_26  and  O_27
REMARK    7  A    between atoms: C_28  and  N_30
REMARK    8  A    between atoms: N_30  and  C_31
REMARK    9  A    between atoms: N_30  and  C_32
REMARK   10  A    between atoms: C_35  and  O_37
REMARK                            x       y       z     vdW  Elec       q    Type
REMARK                         _______ _______ _______ _____ _____    ______ ____
ROOT
ATOM      1  C   UNL     1       8.690   1.536  23.883  0.00  0.00    +0.062 C 
ATOM      2  C   UNL     1       8.802   0.290  24.779  0.00  0.00    +0.131 C 
ATOM      3  C   UNL     1       7.953  -0.885  24.246  0.00  0.00    +0.090 C 
ATOM      4  C   UNL     1       6.466  -0.484  24.094  0.00  0.00    +0.192 C 
ATOM      5  C   UNL     1       5.611  -1.274  25.112  0.00  0.00    +0.211 C 
ATOM      6  C   UNL     1       5.884  -2.737  25.253  0.00  0.00    +0.121 C 
ATOM      7  C   UNL     1       7.139  -2.952  25.672  0.00  0.00    +0.127 C 
ATOM      8  O   UNL     1       4.774  -0.771  25.865  0.00  0.00    -0.288 OA
ATOM      9  C   UNL     1       6.238   1.037  24.006  0.00  0.00    +0.141 C 
ATOM     10  C   UNL     1       8.279  -2.088  25.206  0.00  0.00    +0.132 C 
ATOM     11  C   UNL     1       7.240   1.951  23.891  0.00  0.00    +0.047 C 
ATOM     12  C   UNL     1       6.931   3.396  23.658  0.00  0.00    +0.197 C 
ATOM     13  O   UNL     1       5.767   3.768  23.490  0.00  0.00    -0.287 OA
ATOM     14  C   UNL     1       8.033   4.392  23.629  0.00  0.00    +0.067 A 
ATOM     15  C   UNL     1       7.755   5.732  23.284  0.00  0.00    +0.128 A 
ATOM     16  C   UNL     1       8.751   6.707  23.299  0.00  0.00    +0.046 A 
ATOM     17  C   UNL     1      10.035   6.368  23.692  0.00  0.00    +0.004 A 
ATOM     18  C   UNL     1      10.320   5.051  24.045  0.00  0.00    +0.005 A 
ATOM     19  C   UNL     1       9.340   4.034  23.978  0.00  0.00    -0.030 A 
ATOM     20  C   UNL     1       9.727   2.607  24.330  0.00  0.00    +0.027 C 
ATOM     21  C   UNL     1      11.121   2.282  23.729  0.00  0.00    +0.013 C 
ENDROOT
BRANCH   6  22
ATOM     22  C   UNL     1       5.540  -3.752  24.212  0.00  0.00    +0.248 C 
ATOM     23  O   UNL     1       4.852  -3.517  23.226  0.00  0.00    -0.270 OA
ATOM     24  N   UNL     1       6.053  -4.994  24.354  0.00  0.00    -0.325 N 
ATOM     25  H   UNL     1       5.778  -5.671  23.648  0.00  0.00    +0.145 HD
ATOM     26  H   UNL     1       6.673  -5.296  25.093  0.00  0.00    +0.145 HD
ENDBRANCH   6  22
BRANCH  10  27
ATOM     27  N   UNL     1       9.471  -2.780  24.637  0.00  0.00    -0.298 NA
ATOM     28  C   UNL     1       9.538  -4.196  25.001  0.00  0.00    +0.105 C 
ATOM     29  C   UNL     1       9.620  -2.643  23.182  0.00  0.00    +0.105 C 
ENDBRANCH  10  27
BRANCH   2  30
ATOM     30  O   UNL     1      10.163  -0.091  24.956  0.00  0.00    -0.391 OA
ATOM     31  H   UNL     1      10.648   0.632  25.411  0.00  0.00    +0.210 HD
ENDBRANCH   2  30
BRANCH   7  32
ATOM     32  O   UNL     1       7.347  -3.491  26.945  0.00  0.00    -0.509 OA
ATOM     33  H   UNL     1       7.935  -4.265  26.879  0.00  0.00    +0.292 HD
ENDBRANCH   7  32
BRANCH   4  34
ATOM     34  O   UNL     1       5.970  -0.967  22.822  0.00  0.00    -0.373 OA
ATOM     35  H   UNL     1       6.774  -1.195  22.306  0.00  0.00    +0.211 HD
ENDBRANCH   4  34
BRANCH   9  36
ATOM     36  O   UNL     1       4.897   1.382  23.866  0.00  0.00    -0.507 OA
ATOM     37  H   UNL     1       4.397   0.590  23.556  0.00  0.00    +0.292 HD
ENDBRANCH   9  36
BRANCH  15  38
ATOM     38  O   UNL     1       6.507   6.175  22.917  0.00  0.00    -0.506 OA
ATOM     39  H   UNL     1       5.902   5.407  22.887  0.00  0.00    +0.292 HD
ENDBRANCH  15  38
TORSDOF 7
ENDMDL
MODEL 7
REMARK VINA RESULT:      -7.0      2.161      4.302
REMARK  Name = 
REMARK  10 active torsions:
REMARK  status: ('A' for Active; 'I' for Inactive)
REMARK    1  A    between atoms: C_3  and  C_5
REMARK    2  A    between atoms: C_8  and  O_9
REMARK    3  A    between atoms: C_16  and  O_17
REMARK    4  A    between atoms: C_18  and  O_19
REMARK    5  A    between atoms: C_22  and  C_23
REMARK    6  A    between atoms: C_26  and  O_27
REMARK    7  A    between atoms: C_28  and  N_30
REMARK    8  A    between atoms: N_30  and  C_31
REMARK    9  A    between atoms: N_30  and  C_32
REMARK   10  A    between atoms: C_35  and  O_37
REMARK                            x       y       z     vdW  Elec       q    Type
REMARK                         _______ _______ _______ _____ _____    ______ ____
ROOT
ATOM      1  C   UNL     1       8.080   0.004  24.330  0.00  0.00    +0.062 C 
ATOM      2  C   UNL     1       8.406  -1.300  25.080  0.00  0.00    +0.131 C 
ATOM      3  C   UNL     1       7.305  -2.368  24.890  0.00  0.00    +0.090 C 
ATOM      4  C   UNL     1       5.922  -1.840  25.337  0.00  0.00    +0.192 C 
ATOM      5  C   UNL     1       5.451  -2.620  26.588  0.00  0.00    +0.211 C 
ATOM      6  C   UNL     1       5.612  -4.106  26.573  0.00  0.00    +0.121 C 
ATOM      7  C   UNL     1       6.904  -4.447  26.466  0.00  0.00    +0.127 C 
ATOM      8  O   UNL     1       5.022  -2.099  27.619  0.00  0.00    -0.288 OA
ATOM      9  C   UNL     1       5.827  -0.303  25.384  0.00  0.00    +0.141 C 
ATOM     10  C   UNL     1       7.856  -3.650  25.615  0.00  0.00    +0.132 C 
ATOM     11  C   UNL     1       6.793   0.533  24.912  0.00  0.00    +0.047 C 
ATOM     12  C   UNL     1       6.562   2.009  24.855  0.00  0.00    +0.197 C 
ATOM     13  O   UNL     1       5.465   2.483  25.162  0.00  0.00    -0.287 OA
ATOM     14  C   UNL     1       7.659   2.914  24.425  0.00  0.00    +0.067 A 
ATOM     15  C   UNL     1       7.404   4.290  24.250  0.00  0.00    +0.128 A 
ATOM     16  C   UNL     1       8.419   5.178  23.902  0.00  0.00    +0.046 A 
ATOM     17  C   UNL     1       9.716   4.714  23.756  0.00  0.00    +0.004 A 
ATOM     18  C   UNL     1       9.983   3.360  23.937  0.00  0.00    +0.005 A 
ATOM     19  C   UNL     1       8.958   2.430  24.230  0.00  0.00    -0.030 A 
ATOM     20  C   UNL     1       9.309   0.958  24.367  0.00  0.00    +0.027 C 
ATOM     21  C   UNL     1      10.325   0.559  23.262  0.00  0.00    +0.013 C 
ENDROOT
BRANCH   6  22
ATOM     22  C   UNL     1       4.797  -5.024  25.723  0.00  0.00    +0.248 C 
ATOM     23  O   UNL     1       3.859  -4.659  25.023  0.00  0.00    -0.270 OA
ATOM     24  N   UNL     1       5.142  -6.330  25.699  0.00  0.00    -0.325 N 
ATOM     25  H   UNL     1       4.552  -6.935  25.136  0.00  0.00    +0.145 HD
ATOM     26  H   UNL     1       5.924  -6.743  26.189  0.00  0.00    +0.145 HD
ENDBRANCH   6  22
BRANCH  10  27
ATOM     27  N   UNL     1       8.663  -4.399  24.610  0.00  0.00    -0.298 NA
ATOM     28  C   UNL     1       9.664  -5.277  25.220  0.00  0.00    +0.105 C 
ATOM     29  C   UNL     1       7.871  -5.165  23.639  0.00  0.00    +0.105 C 
ENDBRANCH  10  27
BRANCH   2  30
ATOM     30  O   UNL     1       9.685  -1.800  24.704  0.00  0.00    -0.391 OA
ATOM     31  H   UNL     1       9.599  -2.737  24.421  0.00  0.00    +0.210 HD
ENDBRANCH   2  30
BRANCH   7  32
ATOM     32  O   UNL     1       7.532  -5.078  27.544  0.00  0.00    -0.509 OA
ATOM     33  H   UNL     1       8.499  -4.981  27.461  0.00  0.00    +0.292 HD
ENDBRANCH   7  32
BRANCH   4  34
ATOM     34  O   UNL     1       4.930  -2.202  24.346  0.00  0.00    -0.373 OA
ATOM     35  H   UNL     1       5.415  -2.745  23.688  0.00  0.00    +0.211 HD
ENDBRANCH   4  34
BRANCH   9  36
ATOM     36  O   UNL     1       4.577   0.156  25.785  0.00  0.00    -0.507 OA
ATOM     37  H   UNL     1       4.419   1.041  25.379  0.00  0.00    +0.292 HD
ENDBRANCH   9  36
BRANCH  15  38
ATOM     38  O   UNL     1       6.160   4.854  24.408  0.00  0.00    -0.506 OA
ATOM     39  H   UNL     1       6.083   5.612  23.794  0.00  0.00    +0.292 HD
ENDBRANCH  15  38
TORSDOF 7
ENDMDL
MODEL 8
REMARK VINA RESULT:      -6.9      1.989      3.862
REMARK  Name = 
REMARK  10 active torsions:
REMARK  status: ('A' for Active; 'I' for Inactive)
REMARK    1  A    between atoms: C_3  and  C_5
REMARK    2  A    between atoms: C_8  and  O_9
REMARK    3  A    between atoms: C_16  and  O_17
REMARK    4  A    between atoms: C_18  and  O_19
REMARK    5  A    between atoms: C_22  and  C_23
REMARK    6  A    between atoms: C_26  and  O_27
REMARK    7  A    between atoms: C_28  and  N_30
REMARK    8  A    between atoms: N_30  and  C_31
REMARK    9  A    between atoms: N_30  and  C_32
REMARK   10  A    between atoms: C_35  and  O_37
REMARK                            x       y       z     vdW  Elec       q    Type
REMARK                         _______ _______ _______ _____ _____    ______ ____
ROOT
ATOM      1  C   UNL     1       8.438   1.259  23.853  0.00  0.00    +0.062 C 
ATOM      2  C   UNL     1       8.471  -0.244  24.184  0.00  0.00    +0.131 C 
ATOM      3  C   UNL     1       7.051  -0.838  24.320  0.00  0.00    +0.090 C 
ATOM      4  C   UNL     1       6.224  -0.085  25.390  0.00  0.00    +0.192 C 
ATOM      5  C   UNL     1       5.948  -1.027  26.586  0.00  0.00    +0.211 C 
ATOM      6  C   UNL     1       5.507  -2.421  26.278  0.00  0.00    +0.121 C 
ATOM      7  C   UNL     1       6.445  -3.077  25.580  0.00  0.00    +0.127 C 
ATOM      8  O   UNL     1       6.136  -0.732  27.768  0.00  0.00    -0.288 OA
ATOM      9  C   UNL     1       6.753   1.327  25.706  0.00  0.00    +0.141 C 
ATOM     10  C   UNL     1       7.275  -2.379  24.537  0.00  0.00    +0.132 C 
ATOM     11  C   UNL     1       7.740   1.944  25.001  0.00  0.00    +0.047 C 
ATOM     12  C   UNL     1       8.093   3.371  25.274  0.00  0.00    +0.197 C 
ATOM     13  O   UNL     1       7.443   4.032  26.088  0.00  0.00    -0.287 OA
ATOM     14  C   UNL     1       9.235   4.001  24.561  0.00  0.00    +0.067 A 
ATOM     15  C   UNL     1       9.488   5.379  24.724  0.00  0.00    +0.128 A 
ATOM     16  C   UNL     1      10.580   5.993  24.116  0.00  0.00    +0.046 A 
ATOM     17  C   UNL     1      11.461   5.235  23.362  0.00  0.00    +0.004 A 
ATOM     18  C   UNL     1      11.229   3.872  23.203  0.00  0.00    +0.005 A 
ATOM     19  C   UNL     1      10.093   3.239  23.759  0.00  0.00    -0.030 A 
ATOM     20  C   UNL     1       9.872   1.757  23.507  0.00  0.00    +0.027 C 
ATOM     21  C   UNL     1      10.208   1.423  22.028  0.00  0.00    +0.013 C 
ENDROOT
BRANCH   6  22
ATOM     22  C   UNL     1       4.163  -2.767  25.727  0.00  0.00    +0.248 C 
ATOM     23  O   UNL     1       3.172  -2.054  25.839  0.00  0.00    -0.270 OA
ATOM     24  N   UNL     1       4.047  -3.920  25.033  0.00  0.00    -0.325 N 
ATOM     25  H   UNL     1       3.115  -4.144  24.696  0.00  0.00    +0.145 HD
ATOM     26  H   UNL     1       4.798  -4.564  24.829  0.00  0.00    +0.145 HD
ENDBRANCH   6  22
BRANCH  10  27
ATOM     27  N   UNL     1       7.333  -3.000  23.183  0.00  0.00    -0.298 NA
ATOM     28  C   UNL     1       7.578  -4.442  23.224  0.00  0.00    +0.105 C 
ATOM     29  C   UNL     1       6.162  -2.729  22.337  0.00  0.00    +0.105 C 
ENDBRANCH  10  27
BRANCH   2  30
ATOM     30  O   UNL     1       9.244  -0.962  23.228  0.00  0.00    -0.391 OA
ATOM     31  H   UNL     1       9.773  -0.328  22.695  0.00  0.00    +0.210 HD
ENDBRANCH   2  30
BRANCH   7  32
ATOM     32  O   UNL     1       7.109  -4.153  26.177  0.00  0.00    -0.509 OA
ATOM     33  H   UNL     1       7.524  -4.703  25.488  0.00  0.00    +0.292 HD
ENDBRANCH   7  32
BRANCH   4  34
ATOM     34  O   UNL     1       4.894   0.168  24.874  0.00  0.00    -0.373 OA
ATOM     35  H   UNL     1       4.599   0.989  25.324  0.00  0.00    +0.211 HD
ENDBRANCH   4  34
BRANCH   9  36
ATOM     36  O   UNL     1       5.998   1.991  26.667  0.00  0.00    -0.507 OA
ATOM     37  H   UNL     1       5.561   1.322  27.245  0.00  0.00    +0.292 HD
ENDBRANCH   9  36
BRANCH  15  38
ATOM     38  O   UNL     1       8.695   6.209  25.481  0.00  0.00    -0.506 OA
ATOM     39  H   UNL     1       9.180   6.439  26.299  0.00  0.00    +0.292 HD
ENDBRANCH  15  38
TORSDOF 7
ENDMDL
MODEL 9
REMARK VINA RESULT:      -6.8      2.774      7.448
REMARK  Name = 
REMARK  10 active torsions:
REMARK  status: ('A' for Active; 'I' for Inactive)
REMARK    1  A    between atoms: C_3  and  C_5
REMARK    2  A    between atoms: C_8  and  O_9
REMARK    3  A    between atoms: C_16  and  O_17
REMARK    4  A    between atoms: C_18  and  O_19
REMARK    5  A    between atoms: C_22  and  C_23
REMARK    6  A    between atoms: C_26  and  O_27
REMARK    7  A    between atoms: C_28  and  N_30
REMARK    8  A    between atoms: N_30  and  C_31
REMARK    9  A    between atoms: N_30  and  C_32
REMARK   10  A    between atoms: C_35  and  O_37
REMARK                            x       y       z     vdW  Elec       q    Type
REMARK                         _______ _______ _______ _____ _____    ______ ____
ROOT
ATOM      1  C   UNL     1       5.426  -1.935  25.735  0.00  0.00    +0.062 C 
ATOM      2  C   UNL     1       6.214  -0.613  25.757  0.00  0.00    +0.131 C 
ATOM      3  C   UNL     1       6.852  -0.296  24.386  0.00  0.00    +0.090 C 
ATOM      4  C   UNL     1       7.773  -1.445  23.912  0.00  0.00    +0.192 C 
ATOM      5  C   UNL     1       9.241  -0.957  23.897  0.00  0.00    +0.211 C 
ATOM      6  C   UNL     1       9.514   0.387  23.305  0.00  0.00    +0.121 C 
ATOM      7  C   UNL     1       8.877   1.349  23.988  0.00  0.00    +0.127 C 
ATOM      8  O   UNL     1      10.187  -1.566  24.401  0.00  0.00    -0.288 OA
ATOM      9  C   UNL     1       7.482  -2.797  24.592  0.00  0.00    +0.141 C 
ATOM     10  C   UNL     1       7.505   1.124  24.563  0.00  0.00    +0.132 C 
ATOM     11  C   UNL     1       6.412  -3.026  25.401  0.00  0.00    +0.047 C 
ATOM     12  C   UNL     1       6.115  -4.404  25.901  0.00  0.00    +0.197 C 
ATOM     13  O   UNL     1       6.792  -5.365  25.526  0.00  0.00    -0.287 OA
ATOM     14  C   UNL     1       4.999  -4.620  26.857  0.00  0.00    +0.067 A 
ATOM     15  C   UNL     1       4.640  -5.933  27.229  0.00  0.00    +0.128 A 
ATOM     16  C   UNL     1       3.636  -6.174  28.164  0.00  0.00    +0.046 A 
ATOM     17  C   UNL     1       2.995  -5.107  28.771  0.00  0.00    +0.004 A 
ATOM     18  C   UNL     1       3.347  -3.806  28.421  0.00  0.00    +0.005 A 
ATOM     19  C   UNL     1       4.319  -3.539  27.430  0.00  0.00    -0.030 A 
ATOM     20  C   UNL     1       4.623  -2.097  27.059  0.00  0.00    +0.027 C 
ATOM     21  C   UNL     1       3.299  -1.288  26.981  0.00  0.00    +0.013 C 
ENDROOT
BRANCH   6  22
ATOM     22  C   UNL     1       9.423   0.688  21.844  0.00  0.00    +0.248 C 
ATOM     23  O   UNL     1       9.247  -0.161  20.978  0.00  0.00    -0.270 OA
ATOM     24  N   UNL     1       9.504   1.983  21.465  0.00  0.00    -0.325 N 
ATOM     25  H   UNL     1       9.469   2.155  20.464  0.00  0.00    +0.145 HD
ATOM     26  H   UNL     1       9.596   2.775  22.085  0.00  0.00    +0.145 HD
ENDBRANCH   6  22
BRANCH  10  27
ATOM     27  N   UNL     1       6.452   2.125  24.229  0.00  0.00    -0.298 NA
ATOM     28  C   UNL     1       6.691   3.433  24.843  0.00  0.00    +0.105 C 
ATOM     29  C   UNL     1       6.209   2.299  22.791  0.00  0.00    +0.105 C 
ENDBRANCH  10  27
BRANCH   2  30
ATOM     30  O   UNL     1       5.397   0.462  26.211  0.00  0.00    -0.391 OA
ATOM     31  H   UNL     1       5.852   0.931  26.944  0.00  0.00    +0.210 HD
ENDBRANCH   2  30
BRANCH   7  32
ATOM     32  O   UNL     1       9.628   2.278  24.714  0.00  0.00    -0.509 OA
ATOM     33  H   UNL     1       9.057   3.021  24.983  0.00  0.00    +0.292 HD
ENDBRANCH   7  32
BRANCH   4  34
ATOM     34  O   UNL     1       7.514  -1.717  22.513  0.00  0.00    -0.373 OA
ATOM     35  H   UNL     1       7.395  -2.690  22.461  0.00  0.00    +0.211 HD
ENDBRANCH   4  34
BRANCH   9  36
ATOM     36  O   UNL     1       8.316  -3.820  24.154  0.00  0.00    -0.507 OA
ATOM     37  H   UNL     1       9.245  -3.600  24.401  0.00  0.00    +0.292 HD
ENDBRANCH   9  36
BRANCH  15  38
ATOM     38  O   UNL     1       5.241  -7.056  26.712  0.00  0.00    -0.506 OA
ATOM     39  H   UNL     1       5.992  -6.776  26.151  0.00  0.00    +0.292 HD
ENDBRANCH  15  38
TORSDOF 7
ENDMDL
