MODEL 1
REMARK VINA RESULT:      -6.5      0.000      0.000
REMARK  Name = 
REMARK  5 active torsions:
REMARK  status: ('A' for Active; 'I' for Inactive)
REMARK    1  A    between atoms: C_1  and  C_2
REMARK    2  A    between atoms: C_2  and  N_4
REMARK    3  A    between atoms: C_2  and  C_15
REMARK    4  A    between atoms: C_5  and  C_7
REMARK    5  A    between atoms: C_13  and  O_14
REMARK                            x       y       z     vdW  Elec       q    Type
REMARK                         _______ _______ _______ _____ _____    ______ ____
ROOT
ATOM      1  N   UNL     1       8.311  -2.813  24.529  0.00  0.00    -0.305 N 
ATOM      2  H   UNL     1       7.522  -2.171  24.517  0.00  0.00    +0.150 HD
ATOM      3  C   UNL     1       9.494  -2.381  23.986  0.00  0.00    +0.248 C 
ATOM      4  O   UNL     1      10.483  -3.100  23.866  0.00  0.00    -0.270 OA
ENDROOT
BRANCH   3   5
ATOM      5  C   UNL     1       9.557  -0.951  23.565  0.00  0.00    +0.081 A 
ATOM      6  C   UNL     1       9.812  -0.528  22.250  0.00  0.00    +0.129 A 
ATOM      7  C   UNL     1       9.843   0.835  21.933  0.00  0.00    +0.049 A 
ATOM      8  C   UNL     1       9.610   1.782  22.930  0.00  0.00    +0.042 A 
ATOM      9  C   UNL     1       9.357   1.363  24.231  0.00  0.00    +0.124 A 
ATOM     10  F   UNL     1       9.122   2.278  25.179  0.00  0.00    -0.205 F 
ATOM     11  C   UNL     1       9.338   0.014  24.559  0.00  0.00    +0.055 A 
BRANCH   6  12
ATOM     12  O   UNL     1      10.034  -1.437  21.252  0.00  0.00    -0.506 OA
ATOM     13  H   UNL     1       9.363  -1.318  20.556  0.00  0.00    +0.292 HD
ENDBRANCH   6  12
ENDBRANCH   3   5
BRANCH   1  15
ATOM     14  C   UNL     1       8.378  -4.229  26.519  0.00  0.00    +0.033 C 
ATOM     15  C   UNL     1       8.100  -4.162  25.014  0.00  0.00    +0.100 C 
BRANCH  15  16
ATOM     16  C   UNL     1       6.712  -4.628  24.607  0.00  0.00    -0.027 A 
ATOM     17  C   UNL     1       5.900  -5.418  25.436  0.00  0.00    +0.006 A 
ATOM     18  C   UNL     1       4.617  -5.794  25.030  0.00  0.00    +0.015 A 
ATOM     19  C   UNL     1       4.130  -5.374  23.795  0.00  0.00    +0.018 A 
ATOM     20 BR   UNL     1       2.392  -5.880  23.249  0.00  0.00    -0.050 Br
ATOM     21  C   UNL     1       4.910  -4.575  22.964  0.00  0.00    +0.015 A 
ATOM     22  C   UNL     1       6.192  -4.200  23.372  0.00  0.00    +0.006 A 
ENDBRANCH  15  16
ENDBRANCH   1  15
TORSDOF 4
ENDMDL
MODEL 2
REMARK VINA RESULT:      -6.5      3.934      7.012
REMARK  Name = 
REMARK  5 active torsions:
REMARK  status: ('A' for Active; 'I' for Inactive)
REMARK    1  A    between atoms: C_1  and  C_2
REMARK    2  A    between atoms: C_2  and  N_4
REMARK    3  A    between atoms: C_2  and  C_15
REMARK    4  A    between atoms: C_5  and  C_7
REMARK    5  A    between atoms: C_13  and  O_14
REMARK                            x       y       z     vdW  Elec       q    Type
REMARK                         _______ _______ _______ _____ _____    ______ ____
ROOT
ATOM      1  N   UNL     1       9.277  -1.114  23.965  0.00  0.00    -0.305 N 
ATOM      2  H   UNL     1       8.565  -0.768  24.603  0.00  0.00    +0.150 HD
ATOM      3  C   UNL     1       9.669  -2.423  24.093  0.00  0.00    +0.248 C 
ATOM      4  O   UNL     1      10.581  -2.921  23.438  0.00  0.00    -0.270 OA
ENDROOT
BRANCH   3   5
ATOM      5  C   UNL     1       8.900  -3.261  25.060  0.00  0.00    +0.081 A 
ATOM      6  C   UNL     1       9.244  -4.579  25.405  0.00  0.00    +0.129 A 
ATOM      7  C   UNL     1       8.477  -5.297  26.331  0.00  0.00    +0.049 A 
ATOM      8  C   UNL     1       7.366  -4.695  26.921  0.00  0.00    +0.042 A 
ATOM      9  C   UNL     1       7.026  -3.391  26.579  0.00  0.00    +0.124 A 
ATOM     10  F   UNL     1       5.966  -2.817  27.161  0.00  0.00    -0.205 F 
ATOM     11  C   UNL     1       7.772  -2.675  25.653  0.00  0.00    +0.055 A 
BRANCH   6  12
ATOM     12  O   UNL     1      10.335  -5.188  24.848  0.00  0.00    -0.506 OA
ATOM     13  H   UNL     1      10.968  -4.507  24.558  0.00  0.00    +0.292 HD
ENDBRANCH   6  12
ENDBRANCH   3   5
BRANCH   1  15
ATOM     14  C   UNL     1       9.392  -0.425  21.624  0.00  0.00    +0.033 C 
ATOM     15  C   UNL     1       9.900  -0.181  23.048  0.00  0.00    +0.100 C 
BRANCH  15  16
ATOM     16  C   UNL     1       9.692   1.235  23.559  0.00  0.00    -0.027 A 
ATOM     17  C   UNL     1      10.430   2.332  23.086  0.00  0.00    +0.006 A 
ATOM     18  C   UNL     1      10.178   3.621  23.565  0.00  0.00    +0.015 A 
ATOM     19  C   UNL     1       9.178   3.826  24.511  0.00  0.00    +0.018 A 
ATOM     20 BR   UNL     1       8.837   5.571  25.153  0.00  0.00    -0.050 Br
ATOM     21  C   UNL     1       8.422   2.757  24.981  0.00  0.00    +0.015 A 
ATOM     22  C   UNL     1       8.674   1.469  24.502  0.00  0.00    +0.006 A 
ENDBRANCH  15  16
ENDBRANCH   1  15
TORSDOF 4
ENDMDL
MODEL 3
REMARK VINA RESULT:      -6.4      1.386      2.165
REMARK  Name = 
REMARK  5 active torsions:
REMARK  status: ('A' for Active; 'I' for Inactive)
REMARK    1  A    between atoms: C_1  and  C_2
REMARK    2  A    between atoms: C_2  and  N_4
REMARK    3  A    between atoms: C_2  and  C_15
REMARK    4  A    between atoms: C_5  and  C_7
REMARK    5  A    between atoms: C_13  and  O_14
REMARK                            x       y       z     vdW  Elec       q    Type
REMARK                         _______ _______ _______ _____ _____    ______ ____
ROOT
ATOM      1  N   UNL     1       8.676  -2.914  24.383  0.00  0.00    -0.305 N 
ATOM      2  H   UNL     1       7.889  -2.372  24.730  0.00  0.00    +0.150 HD
ATOM      3  C   UNL     1       9.710  -2.233  23.791  0.00  0.00    +0.248 C 
ATOM      4  O   UNL     1      10.667  -2.789  23.259  0.00  0.00    -0.270 OA
ENDROOT
BRANCH   3   5
ATOM      5  C   UNL     1       9.651  -0.742  23.849  0.00  0.00    +0.081 A 
ATOM      6  C   UNL     1       9.247  -0.014  24.981  0.00  0.00    +0.129 A 
ATOM      7  C   UNL     1       9.230   1.386  24.959  0.00  0.00    +0.049 A 
ATOM      8  C   UNL     1       9.627   2.063  23.806  0.00  0.00    +0.042 A 
ATOM      9  C   UNL     1      10.026   1.342  22.687  0.00  0.00    +0.124 A 
ATOM     10  F   UNL     1      10.417   2.001  21.589  0.00  0.00    -0.205 F 
ATOM     11  C   UNL     1      10.034  -0.046  22.693  0.00  0.00    +0.055 A 
BRANCH   6  12
ATOM     12  O   UNL     1       8.863  -0.655  26.127  0.00  0.00    -0.506 OA
ATOM     13  H   UNL     1       8.063  -1.180  25.947  0.00  0.00    +0.292 HD
ENDBRANCH   6  12
ENDBRANCH   3   5
BRANCH   1  15
ATOM     14  C   UNL     1       9.099  -4.858  25.800  0.00  0.00    +0.033 C 
ATOM     15  C   UNL     1       8.602  -4.359  24.440  0.00  0.00    +0.100 C 
BRANCH  15  16
ATOM     16  C   UNL     1       7.194  -4.802  24.082  0.00  0.00    -0.027 A 
ATOM     17  C   UNL     1       6.780  -5.032  22.759  0.00  0.00    +0.006 A 
ATOM     18  C   UNL     1       5.482  -5.470  22.483  0.00  0.00    +0.015 A 
ATOM     19  C   UNL     1       4.589  -5.694  23.528  0.00  0.00    +0.018 A 
ATOM     20 BR   UNL     1       2.835  -6.291  23.152  0.00  0.00    -0.050 Br
ATOM     21  C   UNL     1       4.982  -5.490  24.847  0.00  0.00    +0.015 A 
ATOM     22  C   UNL     1       6.279  -5.052  25.122  0.00  0.00    +0.006 A 
ENDBRANCH  15  16
ENDBRANCH   1  15
TORSDOF 4
ENDMDL
MODEL 4
REMARK VINA RESULT:      -6.4      3.605      6.961
REMARK  Name = 
REMARK  5 active torsions:
REMARK  status: ('A' for Active; 'I' for Inactive)
REMARK    1  A    between atoms: C_1  and  C_2
REMARK    2  A    between atoms: C_2  and  N_4
REMARK    3  A    between atoms: C_2  and  C_15
REMARK    4  A    between atoms: C_5  and  C_7
REMARK    5  A    between atoms: C_13  and  O_14
REMARK                            x       y       z     vdW  Elec       q    Type
REMARK                         _______ _______ _______ _____ _____    ______ ____
ROOT
ATOM      1  N   UNL     1       8.814  -2.244  24.221  0.00  0.00    -0.305 N 
ATOM      2  H   UNL     1       7.889  -1.831  24.311  0.00  0.00    +0.150 HD
ATOM      3  C   UNL     1       8.962  -3.563  24.570  0.00  0.00    +0.248 C 
ATOM      4  O   UNL     1      10.047  -4.139  24.586  0.00  0.00    -0.270 OA
ENDROOT
BRANCH   3   5
ATOM      5  C   UNL     1       7.714  -4.312  24.904  0.00  0.00    +0.081 A 
ATOM      6  C   UNL     1       7.531  -5.046  26.088  0.00  0.00    +0.129 A 
ATOM      7  C   UNL     1       6.325  -5.713  26.333  0.00  0.00    +0.049 A 
ATOM      8  C   UNL     1       5.293  -5.640  25.398  0.00  0.00    +0.042 A 
ATOM      9  C   UNL     1       5.474  -4.913  24.228  0.00  0.00    +0.124 A 
ATOM     10  F   UNL     1       4.474  -4.837  23.342  0.00  0.00    -0.205 F 
ATOM     11  C   UNL     1       6.671  -4.259  23.968  0.00  0.00    +0.055 A 
BRANCH   6  12
ATOM     12  O   UNL     1       8.525  -5.125  27.025  0.00  0.00    -0.506 OA
ATOM     13  H   UNL     1       8.710  -6.061  27.217  0.00  0.00    +0.292 HD
ENDBRANCH   6  12
ENDBRANCH   3   5
BRANCH   1  15
ATOM     14  C   UNL     1      10.290  -1.633  22.372  0.00  0.00    +0.033 C 
ATOM     15  C   UNL     1       9.921  -1.391  23.839  0.00  0.00    +0.100 C 
BRANCH  15  16
ATOM     16  C   UNL     1       9.579   0.051  24.174  0.00  0.00    -0.027 A 
ATOM     17  C   UNL     1      10.330   1.141  23.707  0.00  0.00    +0.006 A 
ATOM     18  C   UNL     1       9.956   2.451  24.016  0.00  0.00    +0.015 A 
ATOM     19  C   UNL     1       8.819   2.684  24.786  0.00  0.00    +0.018 A 
ATOM     20 BR   UNL     1       8.311   4.458  25.199  0.00  0.00    -0.050 Br
ATOM     21  C   UNL     1       8.049   1.620  25.245  0.00  0.00    +0.015 A 
ATOM     22  C   UNL     1       8.424   0.311  24.935  0.00  0.00    +0.006 A 
ENDBRANCH  15  16
ENDBRANCH   1  15
TORSDOF 4
ENDMDL
MODEL 5
REMARK VINA RESULT:      -6.3      2.274      3.138
REMARK  Name = 
REMARK  5 active torsions:
REMARK  status: ('A' for Active; 'I' for Inactive)
REMARK    1  A    between atoms: C_1  and  C_2
REMARK    2  A    between atoms: C_2  and  N_4
REMARK    3  A    between atoms: C_2  and  C_15
REMARK    4  A    between atoms: C_5  and  C_7
REMARK    5  A    between atoms: C_13  and  O_14
REMARK                            x       y       z     vdW  Elec       q    Type
REMARK                         _______ _______ _______ _____ _____    ______ ____
ROOT
ATOM      1  N   UNL     1       7.770  -3.447  23.499  0.00  0.00    -0.305 N 
ATOM      2  H   UNL     1       8.625  -3.631  24.017  0.00  0.00    +0.150 HD
ATOM      3  C   UNL     1       7.490  -2.144  23.171  0.00  0.00    +0.248 C 
ATOM      4  O   UNL     1       6.446  -1.796  22.626  0.00  0.00    -0.270 OA
ENDROOT
BRANCH   3   5
ATOM      5  C   UNL     1       8.547  -1.135  23.473  0.00  0.00    +0.081 A 
ATOM      6  C   UNL     1       9.169  -0.997  24.725  0.00  0.00    +0.129 A 
ATOM      7  C   UNL     1      10.162  -0.031  24.926  0.00  0.00    +0.049 A 
ATOM      8  C   UNL     1      10.544   0.796  23.870  0.00  0.00    +0.042 A 
ATOM      9  C   UNL     1       9.929   0.660  22.631  0.00  0.00    +0.124 A 
ATOM     10  F   UNL     1      10.311   1.449  21.620  0.00  0.00    -0.205 F 
ATOM     11  C   UNL     1       8.933  -0.286  22.425  0.00  0.00    +0.055 A 
BRANCH   6  12
ATOM     12  O   UNL     1       8.820  -1.803  25.774  0.00  0.00    -0.506 OA
ATOM     13  H   UNL     1       8.809  -2.730  25.475  0.00  0.00    +0.292 HD
ENDBRANCH   6  12
ENDBRANCH   3   5
BRANCH   1  15
ATOM     14  C   UNL     1       7.533  -5.578  22.330  0.00  0.00    +0.033 C 
ATOM     15  C   UNL     1       6.863  -4.547  23.242  0.00  0.00    +0.100 C 
BRANCH  15  16
ATOM     16  C   UNL     1       6.365  -5.103  24.565  0.00  0.00    -0.027 A 
ATOM     17  C   UNL     1       5.212  -5.897  24.673  0.00  0.00    +0.006 A 
ATOM     18  C   UNL     1       4.813  -6.412  25.909  0.00  0.00    +0.015 A 
ATOM     19  C   UNL     1       5.570  -6.149  27.048  0.00  0.00    +0.018 A 
ATOM     20 BR   UNL     1       5.031  -6.851  28.718  0.00  0.00    -0.050 Br
ATOM     21  C   UNL     1       6.726  -5.380  26.962  0.00  0.00    +0.015 A 
ATOM     22  C   UNL     1       7.124  -4.865  25.726  0.00  0.00    +0.006 A 
ENDBRANCH  15  16
ENDBRANCH   1  15
TORSDOF 4
ENDMDL
MODEL 6
REMARK VINA RESULT:      -6.2      3.632      6.761
REMARK  Name = 
REMARK  5 active torsions:
REMARK  status: ('A' for Active; 'I' for Inactive)
REMARK    1  A    between atoms: C_1  and  C_2
REMARK    2  A    between atoms: C_2  and  N_4
REMARK    3  A    between atoms: C_2  and  C_15
REMARK    4  A    between atoms: C_5  and  C_7
REMARK    5  A    between atoms: C_13  and  O_14
REMARK                            x       y       z     vdW  Elec       q    Type
REMARK                         _______ _______ _______ _____ _____    ______ ____
ROOT
ATOM      1  N   UNL     1       8.735  -2.315  23.994  0.00  0.00    -0.305 N 
ATOM      2  H   UNL     1       7.796  -1.935  23.900  0.00  0.00    +0.150 HD
ATOM      3  C   UNL     1       8.858  -3.633  24.354  0.00  0.00    +0.248 C 
ATOM      4  O   UNL     1       9.939  -4.171  24.582  0.00  0.00    -0.270 OA
ENDROOT
BRANCH   3   5
ATOM      5  C   UNL     1       7.598  -4.429  24.425  0.00  0.00    +0.081 A 
ATOM      6  C   UNL     1       6.750  -4.659  23.329  0.00  0.00    +0.129 A 
ATOM      7  C   UNL     1       5.589  -5.429  23.475  0.00  0.00    +0.049 A 
ATOM      8  C   UNL     1       5.277  -5.979  24.719  0.00  0.00    +0.042 A 
ATOM      9  C   UNL     1       6.117  -5.751  25.802  0.00  0.00    +0.124 A 
ATOM     10  F   UNL     1       5.817  -6.294  26.989  0.00  0.00    -0.205 F 
ATOM     11  C   UNL     1       7.263  -4.979  25.672  0.00  0.00    +0.055 A 
BRANCH   6  12
ATOM     12  O   UNL     1       7.038  -4.140  22.097  0.00  0.00    -0.506 OA
ATOM     13  H   UNL     1       6.254  -4.216  21.526  0.00  0.00    +0.292 HD
ENDBRANCH   6  12
ENDBRANCH   3   5
BRANCH   1  15
ATOM     14  C   UNL     1      10.441  -1.524  22.435  0.00  0.00    +0.033 C 
ATOM     15  C   UNL     1       9.864  -1.418  23.849  0.00  0.00    +0.100 C 
BRANCH  15  16
ATOM     16  C   UNL     1       9.443  -0.016  24.255  0.00  0.00    -0.027 A 
ATOM     17  C   UNL     1      10.107   1.139  23.811  0.00  0.00    +0.006 A 
ATOM     18  C   UNL     1       9.661   2.409  24.187  0.00  0.00    +0.015 A 
ATOM     19  C   UNL     1       8.539   2.537  25.001  0.00  0.00    +0.018 A 
ATOM     20 BR   UNL     1       7.934   4.256  25.503  0.00  0.00    -0.050 Br
ATOM     21  C   UNL     1       7.853   1.407  25.438  0.00  0.00    +0.015 A 
ATOM     22  C   UNL     1       8.300   0.139  25.062  0.00  0.00    +0.006 A 
ENDBRANCH  15  16
ENDBRANCH   1  15
TORSDOF 4
ENDMDL
MODEL 7
REMARK VINA RESULT:      -6.1      2.212      3.272
REMARK  Name = 
REMARK  5 active torsions:
REMARK  status: ('A' for Active; 'I' for Inactive)
REMARK    1  A    between atoms: C_1  and  C_2
REMARK    2  A    between atoms: C_2  and  N_4
REMARK    3  A    between atoms: C_2  and  C_15
REMARK    4  A    between atoms: C_5  and  C_7
REMARK    5  A    between atoms: C_13  and  O_14
REMARK                            x       y       z     vdW  Elec       q    Type
REMARK                         _______ _______ _______ _____ _____    ______ ____
ROOT
ATOM      1  N   UNL     1       8.672  -0.784  23.268  0.00  0.00    -0.305 N 
ATOM      2  H   UNL     1       8.064  -0.587  24.059  0.00  0.00    +0.150 HD
ATOM      3  C   UNL     1       9.089   0.276  22.502  0.00  0.00    +0.248 C 
ATOM      4  O   UNL     1       9.750   0.147  21.475  0.00  0.00    -0.270 OA
ENDROOT
BRANCH   3   5
ATOM      5  C   UNL     1       8.732   1.639  22.994  0.00  0.00    +0.081 A 
ATOM      6  C   UNL     1       9.043   2.118  24.278  0.00  0.00    +0.129 A 
ATOM      7  C   UNL     1       8.683   3.416  24.661  0.00  0.00    +0.049 A 
ATOM      8  C   UNL     1       8.020   4.244  23.755  0.00  0.00    +0.042 A 
ATOM      9  C   UNL     1       7.713   3.770  22.485  0.00  0.00    +0.124 A 
ATOM     10  F   UNL     1       7.087   4.575  21.619  0.00  0.00    -0.205 F 
ATOM     11  C   UNL     1       8.053   2.480  22.101  0.00  0.00    +0.055 A 
BRANCH   6  12
ATOM     12  O   UNL     1       9.702   1.330  25.180  0.00  0.00    -0.506 OA
ATOM     13  H   UNL     1       9.695   0.408  24.866  0.00  0.00    +0.292 HD
ENDBRANCH   6  12
ENDBRANCH   3   5
BRANCH   1  15
ATOM     14  C   UNL     1      10.096  -2.686  23.835  0.00  0.00    +0.033 C 
ATOM     15  C   UNL     1       8.965  -2.166  22.944  0.00  0.00    +0.100 C 
BRANCH  15  16
ATOM     16  C   UNL     1       7.682  -2.977  23.014  0.00  0.00    -0.027 A 
ATOM     17  C   UNL     1       6.424  -2.443  22.690  0.00  0.00    +0.006 A 
ATOM     18  C   UNL     1       5.277  -3.240  22.738  0.00  0.00    +0.015 A 
ATOM     19  C   UNL     1       5.378  -4.581  23.099  0.00  0.00    +0.018 A 
ATOM     20 BR   UNL     1       3.826  -5.658  23.158  0.00  0.00    -0.050 Br
ATOM     21  C   UNL     1       6.617  -5.137  23.405  0.00  0.00    +0.015 A 
ATOM     22  C   UNL     1       7.763  -4.339  23.357  0.00  0.00    +0.006 A 
ENDBRANCH  15  16
ENDBRANCH   1  15
TORSDOF 4
ENDMDL
MODEL 8
REMARK VINA RESULT:      -6.1      1.687      2.107
REMARK  Name = 
REMARK  5 active torsions:
REMARK  status: ('A' for Active; 'I' for Inactive)
REMARK    1  A    between atoms: C_1  and  C_2
REMARK    2  A    between atoms: C_2  and  N_4
REMARK    3  A    between atoms: C_2  and  C_15
REMARK    4  A    between atoms: C_5  and  C_7
REMARK    5  A    between atoms: C_13  and  O_14
REMARK                            x       y       z     vdW  Elec       q    Type
REMARK                         _______ _______ _______ _____ _____    ______ ____
ROOT
ATOM      1  N   UNL     1       8.358  -2.132  23.570  0.00  0.00    -0.305 N 
ATOM      2  H   UNL     1       7.706  -1.657  24.188  0.00  0.00    +0.150 HD
ATOM      3  C   UNL     1       9.016  -1.376  22.633  0.00  0.00    +0.248 C 
ATOM      4  O   UNL     1       9.757  -1.856  21.779  0.00  0.00    -0.270 OA
ENDROOT
BRANCH   3   5
ATOM      5  C   UNL     1       8.826   0.103  22.711  0.00  0.00    +0.081 A 
ATOM      6  C   UNL     1       7.573   0.731  22.799  0.00  0.00    +0.129 A 
ATOM      7  C   UNL     1       7.479   2.126  22.880  0.00  0.00    +0.049 A 
ATOM      8  C   UNL     1       8.641   2.897  22.882  0.00  0.00    +0.042 A 
ATOM      9  C   UNL     1       9.881   2.275  22.795  0.00  0.00    +0.124 A 
ATOM     10  F   UNL     1      10.991   3.022  22.810  0.00  0.00    -0.205 F 
ATOM     11  C   UNL     1       9.985   0.894  22.700  0.00  0.00    +0.055 A 
BRANCH   6  12
ATOM     12  O   UNL     1       6.419  -0.003  22.809  0.00  0.00    -0.506 OA
ATOM     13  H   UNL     1       5.655   0.600  22.802  0.00  0.00    +0.292 HD
ENDBRANCH   6  12
ENDBRANCH   3   5
BRANCH   1  15
ATOM     14  C   UNL     1       9.193  -3.979  24.933  0.00  0.00    +0.033 C 
ATOM     15  C   UNL     1       8.465  -3.575  23.649  0.00  0.00    +0.100 C 
BRANCH  15  16
ATOM     16  C   UNL     1       7.083  -4.186  23.486  0.00  0.00    -0.027 A 
ATOM     17  C   UNL     1       6.870  -5.440  22.891  0.00  0.00    +0.006 A 
ATOM     18  C   UNL     1       5.582  -5.975  22.795  0.00  0.00    +0.015 A 
ATOM     19  C   UNL     1       4.497  -5.266  23.304  0.00  0.00    +0.018 A 
ATOM     20 BR   UNL     1       2.757  -5.993  23.177  0.00  0.00    -0.050 Br
ATOM     21  C   UNL     1       4.687  -4.030  23.915  0.00  0.00    +0.015 A 
ATOM     22  C   UNL     1       5.974  -3.497  24.010  0.00  0.00    +0.006 A 
ENDBRANCH  15  16
ENDBRANCH   1  15
TORSDOF 4
ENDMDL
MODEL 9
REMARK VINA RESULT:      -6.1      2.268      3.008
REMARK  Name = 
REMARK  5 active torsions:
REMARK  status: ('A' for Active; 'I' for Inactive)
REMARK    1  A    between atoms: C_1  and  C_2
REMARK    2  A    between atoms: C_2  and  N_4
REMARK    3  A    between atoms: C_2  and  C_15
REMARK    4  A    between atoms: C_5  and  C_7
REMARK    5  A    between atoms: C_13  and  O_14
REMARK                            x       y       z     vdW  Elec       q    Type
REMARK                         _______ _______ _______ _____ _____    ______ ____
ROOT
ATOM      1  N   UNL     1       8.124  -1.336  23.120  0.00  0.00    -0.305 N 
ATOM      2  H   UNL     1       7.348  -1.135  23.746  0.00  0.00    +0.150 HD
ATOM      3  C   UNL     1       8.532  -0.340  22.269  0.00  0.00    +0.248 C 
ATOM      4  O   UNL     1       9.398  -0.499  21.412  0.00  0.00    -0.270 OA
ENDROOT
BRANCH   3   5
ATOM      5  C   UNL     1       7.895   0.998  22.447  0.00  0.00    +0.081 A 
ATOM      6  C   UNL     1       8.476   2.207  22.029  0.00  0.00    +0.129 A 
ATOM      7  C   UNL     1       7.808   3.423  22.223  0.00  0.00    +0.049 A 
ATOM      8  C   UNL     1       6.552   3.432  22.828  0.00  0.00    +0.042 A 
ATOM      9  C   UNL     1       5.978   2.235  23.242  0.00  0.00    +0.124 A 
ATOM     10  F   UNL     1       4.767   2.252  23.810  0.00  0.00    -0.205 F 
ATOM     11  C   UNL     1       6.637   1.026  23.067  0.00  0.00    +0.055 A 
BRANCH   6  12
ATOM     12  O   UNL     1       9.702   2.224  21.424  0.00  0.00    -0.506 OA
ATOM     13  H   UNL     1      10.395   2.264  22.106  0.00  0.00    +0.292 HD
ENDBRANCH   6  12
ENDBRANCH   3   5
BRANCH   1  15
ATOM     14  C   UNL     1       9.873  -2.774  24.037  0.00  0.00    +0.033 C 
ATOM     15  C   UNL     1       8.668  -2.678  23.097  0.00  0.00    +0.100 C 
BRANCH  15  16
ATOM     16  C   UNL     1       7.557  -3.672  23.391  0.00  0.00    -0.027 A 
ATOM     17  C   UNL     1       6.601  -4.051  22.435  0.00  0.00    +0.006 A 
ATOM     18  C   UNL     1       5.617  -4.994  22.745  0.00  0.00    +0.015 A 
ATOM     19  C   UNL     1       5.588  -5.576  24.010  0.00  0.00    +0.018 A 
ATOM     20 BR   UNL     1       4.259  -6.856  24.424  0.00  0.00    -0.050 Br
ATOM     21  C   UNL     1       6.536  -5.230  24.967  0.00  0.00    +0.015 A 
ATOM     22  C   UNL     1       7.519  -4.286  24.656  0.00  0.00    +0.006 A 
ENDBRANCH  15  16
ENDBRANCH   1  15
TORSDOF 4
ENDMDL
