MODEL 1
REMARK VINA RESULT:      -8.0      0.000      0.000
REMARK  Name = 
REMARK  6 active torsions:
REMARK  status: ('A' for Active; 'I' for Inactive)
REMARK    1  A    between atoms: C_1  and  O_2
REMARK    2  A    between atoms: O_2  and  C_3
REMARK    3  A    between atoms: C_6  and  N_9
REMARK    4  A    between atoms: C_11  and  C_12
REMARK    5  A    between atoms: N_19  and  C_22
REMARK    6  A    between atoms: C_25  and  N_28
REMARK                            x       y       z     vdW  Elec       q    Type
REMARK                         _______ _______ _______ _____ _____    ______ ____
ROOT
ATOM      1  N   UNL     1       6.560  -4.243  25.169  0.00  0.00    -0.227 N 
ATOM      2  C   UNL     1       7.355  -3.220  24.651  0.00  0.00    +0.133 A 
ATOM      3  C   UNL     1       8.135  -2.159  25.290  0.00  0.00    +0.270 C 
ATOM      4  N   UNL     1       8.751  -1.272  24.357  0.00  0.00    -0.266 N 
ATOM      5  C   UNL     1       9.236  -1.893  23.117  0.00  0.00    +0.119 C 
ATOM      6  C   UNL     1       8.091  -2.531  22.337  0.00  0.00    +0.059 C 
ATOM      7  O   UNL     1       8.253  -2.027  26.503  0.00  0.00    -0.268 OA
ATOM      8  C   UNL     1       7.325  -3.387  23.275  0.00  0.00    +0.017 A 
ATOM      9  C   UNL     1       6.483  -4.475  23.003  0.00  0.00    +0.151 A 
ATOM     10  N   UNL     1       6.069  -5.042  24.150  0.00  0.00    -0.161 NA
ENDROOT
BRANCH   1  14
ATOM     11  C   UNL     1       5.362  -5.286  29.138  0.00  0.00    +0.120 A 
ATOM     12  C   UNL     1       6.452  -5.916  28.536  0.00  0.00    +0.048 A 
ATOM     13  C   UNL     1       6.883  -5.554  27.250  0.00  0.00    +0.031 A 
ATOM     14  C   UNL     1       6.211  -4.571  26.523  0.00  0.00    +0.066 A 
ATOM     15  C   UNL     1       5.156  -3.887  27.160  0.00  0.00    +0.031 A 
ATOM     16  C   UNL     1       4.730  -4.250  28.453  0.00  0.00    +0.048 A 
BRANCH  11  18
ATOM     17  C   UNL     1       3.870  -6.578  30.483  0.00  0.00    +0.277 C 
ATOM     18  O   UNL     1       5.037  -5.777  30.370  0.00  0.00    -0.495 OA
ENDBRANCH  11  18
ENDBRANCH   1  14
BRANCH   4  19
ATOM     19  C   UNL     1       8.856   0.147  24.569  0.00  0.00    +0.037 A 
ATOM     20  C   UNL     1       9.935   0.897  24.081  0.00  0.00    +0.025 A 
ATOM     21  C   UNL     1       9.985   2.301  24.183  0.00  0.00    +0.025 A 
ATOM     22  C   UNL     1       8.951   3.032  24.770  0.00  0.00    +0.036 A 
ATOM     23  C   UNL     1       7.889   2.280  25.286  0.00  0.00    +0.025 A 
ATOM     24  C   UNL     1       7.842   0.877  25.189  0.00  0.00    +0.025 A 
BRANCH  22  25
ATOM     25  N   UNL     1       8.911   4.469  24.744  0.00  0.00    -0.271 N 
ATOM     26  C   UNL     1       8.144   5.207  25.658  0.00  0.00    +0.220 C 
ATOM     27  O   UNL     1       8.000   4.952  26.852  0.00  0.00    -0.275 OA
ATOM     28  C   UNL     1       7.301   6.289  25.000  0.00  0.00    +0.096 C 
ATOM     29  C   UNL     1       8.043   7.108  23.959  0.00  0.00    +0.011 C 
ATOM     30  C   UNL     1       8.783   6.197  22.992  0.00  0.00    +0.020 C 
ATOM     31  C   UNL     1       9.679   5.256  23.783  0.00  0.00    +0.113 C 
ENDBRANCH  22  25
ENDBRANCH   4  19
BRANCH   9  32
ATOM     32  C   UNL     1       6.113  -4.938  21.659  0.00  0.00    +0.262 C 
ATOM     33  O   UNL     1       5.691  -4.196  20.772  0.00  0.00    -0.269 OA
ATOM     34  N   UNL     1       6.226  -6.277  21.430  0.00  0.00    -0.324 N 
ATOM     35  H   UNL     1       5.899  -6.644  20.549  0.00  0.00    +0.145 HD
ATOM     36  H   UNL     1       6.492  -6.890  22.188  0.00  0.00    +0.145 HD
ENDBRANCH   9  32
TORSDOF 5
ENDMDL
MODEL 2
REMARK VINA RESULT:      -7.9      1.212      1.459
REMARK  Name = 
REMARK  6 active torsions:
REMARK  status: ('A' for Active; 'I' for Inactive)
REMARK    1  A    between atoms: C_1  and  O_2
REMARK    2  A    between atoms: O_2  and  C_3
REMARK    3  A    between atoms: C_6  and  N_9
REMARK    4  A    between atoms: C_11  and  C_12
REMARK    5  A    between atoms: N_19  and  C_22
REMARK    6  A    between atoms: C_25  and  N_28
REMARK                            x       y       z     vdW  Elec       q    Type
REMARK                         _______ _______ _______ _____ _____    ______ ____
ROOT
ATOM      1  N   UNL     1       6.386  -4.180  25.158  0.00  0.00    -0.227 N 
ATOM      2  C   UNL     1       7.290  -3.279  24.593  0.00  0.00    +0.133 A 
ATOM      3  C   UNL     1       8.091  -2.199  25.169  0.00  0.00    +0.270 C 
ATOM      4  N   UNL     1       8.840  -1.473  24.195  0.00  0.00    -0.266 N 
ATOM      5  C   UNL     1       9.375  -2.269  23.083  0.00  0.00    +0.119 C 
ATOM      6  C   UNL     1       8.252  -2.926  22.287  0.00  0.00    +0.059 C 
ATOM      7  O   UNL     1       8.124  -1.926  26.363  0.00  0.00    -0.268 OA
ATOM      8  C   UNL     1       7.355  -3.612  23.249  0.00  0.00    +0.017 A 
ATOM      9  C   UNL     1       6.461  -4.671  23.035  0.00  0.00    +0.151 A 
ATOM     10  N   UNL     1       5.919  -5.067  24.201  0.00  0.00    -0.161 NA
ENDROOT
BRANCH   1  14
ATOM     11  C   UNL     1       4.812  -4.658  29.103  0.00  0.00    +0.120 A 
ATOM     12  C   UNL     1       5.912  -5.405  28.682  0.00  0.00    +0.048 A 
ATOM     13  C   UNL     1       6.466  -5.229  27.404  0.00  0.00    +0.031 A 
ATOM     14  C   UNL     1       5.910  -4.318  26.505  0.00  0.00    +0.066 A 
ATOM     15  C   UNL     1       4.845  -3.513  26.958  0.00  0.00    +0.031 A 
ATOM     16  C   UNL     1       4.295  -3.691  28.244  0.00  0.00    +0.048 A 
BRANCH  11  18
ATOM     17  C   UNL     1       3.474  -6.074  30.485  0.00  0.00    +0.277 C 
ATOM     18  O   UNL     1       4.361  -4.973  30.353  0.00  0.00    -0.495 OA
ENDBRANCH  11  18
ENDBRANCH   1  14
BRANCH   4  19
ATOM     19  C   UNL     1       9.030  -0.047  24.248  0.00  0.00    +0.037 A 
ATOM     20  C   UNL     1      10.302   0.539  24.200  0.00  0.00    +0.025 A 
ATOM     21  C   UNL     1      10.488   1.933  24.133  0.00  0.00    +0.025 A 
ATOM     22  C   UNL     1       9.409   2.818  24.099  0.00  0.00    +0.036 A 
ATOM     23  C   UNL     1       8.139   2.234  24.179  0.00  0.00    +0.025 A 
ATOM     24  C   UNL     1       7.954   0.840  24.252  0.00  0.00    +0.025 A 
BRANCH  22  25
ATOM     25  N   UNL     1       9.573   4.228  23.873  0.00  0.00    -0.271 N 
ATOM     26  C   UNL     1      10.841   4.814  23.733  0.00  0.00    +0.220 C 
ATOM     27  O   UNL     1      11.800   4.329  23.137  0.00  0.00    -0.275 OA
ATOM     28  C   UNL     1      11.021   6.067  24.577  0.00  0.00    +0.096 C 
ATOM     29  C   UNL     1       9.847   7.027  24.521  0.00  0.00    +0.011 C 
ATOM     30  C   UNL     1       8.539   6.286  24.747  0.00  0.00    +0.020 C 
ATOM     31  C   UNL     1       8.439   5.139  23.753  0.00  0.00    +0.113 C 
ENDBRANCH  22  25
ENDBRANCH   4  19
BRANCH   9  32
ATOM     32  C   UNL     1       6.165  -5.272  21.727  0.00  0.00    +0.262 C 
ATOM     33  O   UNL     1       5.944  -4.617  20.709  0.00  0.00    -0.269 OA
ATOM     34  N   UNL     1       6.108  -6.633  21.688  0.00  0.00    -0.324 N 
ATOM     35  H   UNL     1       5.822  -7.077  20.829  0.00  0.00    +0.145 HD
ATOM     36  H   UNL     1       6.207  -7.159  22.545  0.00  0.00    +0.145 HD
ENDBRANCH   9  32
TORSDOF 5
ENDMDL
MODEL 3
REMARK VINA RESULT:      -7.7      3.243     10.084
REMARK  Name = 
REMARK  6 active torsions:
REMARK  status: ('A' for Active; 'I' for Inactive)
REMARK    1  A    between atoms: C_1  and  O_2
REMARK    2  A    between atoms: O_2  and  C_3
REMARK    3  A    between atoms: C_6  and  N_9
REMARK    4  A    between atoms: C_11  and  C_12
REMARK    5  A    between atoms: N_19  and  C_22
REMARK    6  A    between atoms: C_25  and  N_28
REMARK                            x       y       z     vdW  Elec       q    Type
REMARK                         _______ _______ _______ _____ _____    ______ ____
ROOT
ATOM      1  N   UNL     1       8.247   5.444  23.403  0.00  0.00    -0.227 N 
ATOM      2  C   UNL     1       8.797   4.183  23.165  0.00  0.00    +0.133 A 
ATOM      3  C   UNL     1       8.224   2.942  22.644  0.00  0.00    +0.270 C 
ATOM      4  N   UNL     1       9.150   1.856  22.633  0.00  0.00    -0.266 N 
ATOM      5  C   UNL     1      10.540   2.210  22.318  0.00  0.00    +0.119 C 
ATOM      6  C   UNL     1      11.107   3.182  23.348  0.00  0.00    +0.059 C 
ATOM      7  O   UNL     1       7.067   2.826  22.257  0.00  0.00    -0.268 OA
ATOM      8  C   UNL     1      10.137   4.293  23.504  0.00  0.00    +0.017 A 
ATOM      9  C   UNL     1      10.345   5.598  23.973  0.00  0.00    +0.151 A 
ATOM     10  N   UNL     1       9.218   6.323  23.852  0.00  0.00    -0.161 NA
ENDROOT
BRANCH   1  14
ATOM     11  C   UNL     1       4.233   6.783  22.797  0.00  0.00    +0.120 A 
ATOM     12  C   UNL     1       4.583   6.089  23.956  0.00  0.00    +0.048 A 
ATOM     13  C   UNL     1       5.906   5.680  24.188  0.00  0.00    +0.031 A 
ATOM     14  C   UNL     1       6.905   5.931  23.247  0.00  0.00    +0.066 A 
ATOM     15  C   UNL     1       6.564   6.694  22.112  0.00  0.00    +0.031 A 
ATOM     16  C   UNL     1       5.235   7.107  21.886  0.00  0.00    +0.048 A 
BRANCH  11  18
ATOM     17  C   UNL     1       2.051   6.691  23.765  0.00  0.00    +0.277 C 
ATOM     18  O   UNL     1       2.902   7.073  22.695  0.00  0.00    -0.495 OA
ENDBRANCH  11  18
ENDBRANCH   1  14
BRANCH   4  19
ATOM     19  C   UNL     1       8.782   0.502  22.956  0.00  0.00    +0.037 A 
ATOM     20  C   UNL     1       8.165   0.166  24.168  0.00  0.00    +0.025 A 
ATOM     21  C   UNL     1       7.696  -1.134  24.440  0.00  0.00    +0.025 A 
ATOM     22  C   UNL     1       7.810  -2.167  23.508  0.00  0.00    +0.036 A 
ATOM     23  C   UNL     1       8.455  -1.838  22.310  0.00  0.00    +0.025 A 
ATOM     24  C   UNL     1       8.928  -0.540  22.041  0.00  0.00    +0.025 A 
BRANCH  22  25
ATOM     25  N   UNL     1       7.200  -3.454  23.704  0.00  0.00    -0.271 N 
ATOM     26  C   UNL     1       7.946  -4.642  23.662  0.00  0.00    +0.220 C 
ATOM     27  O   UNL     1       9.076  -4.803  24.118  0.00  0.00    -0.275 OA
ATOM     28  C   UNL     1       7.310  -5.721  22.797  0.00  0.00    +0.096 C 
ATOM     29  C   UNL     1       5.818  -5.893  23.017  0.00  0.00    +0.011 C 
ATOM     30  C   UNL     1       5.114  -4.546  22.979  0.00  0.00    +0.020 C 
ATOM     31  C   UNL     1       5.776  -3.611  23.981  0.00  0.00    +0.113 C 
ENDBRANCH  22  25
ENDBRANCH   4  19
BRANCH   9  32
ATOM     32  C   UNL     1      11.614   6.107  24.513  0.00  0.00    +0.262 C 
ATOM     33  O   UNL     1      11.709   6.712  25.581  0.00  0.00    -0.269 OA
ATOM     34  N   UNL     1      12.720   5.907  23.742  0.00  0.00    -0.324 N 
ATOM     35  H   UNL     1      13.593   6.318  24.038  0.00  0.00    +0.145 HD
ATOM     36  H   UNL     1      12.620   5.485  22.829  0.00  0.00    +0.145 HD
ENDBRANCH   9  32
TORSDOF 5
ENDMDL
MODEL 4
REMARK VINA RESULT:      -7.4      2.698      9.825
REMARK  Name = 
REMARK  6 active torsions:
REMARK  status: ('A' for Active; 'I' for Inactive)
REMARK    1  A    between atoms: C_1  and  O_2
REMARK    2  A    between atoms: O_2  and  C_3
REMARK    3  A    between atoms: C_6  and  N_9
REMARK    4  A    between atoms: C_11  and  C_12
REMARK    5  A    between atoms: N_19  and  C_22
REMARK    6  A    between atoms: C_25  and  N_28
REMARK                            x       y       z     vdW  Elec       q    Type
REMARK                         _______ _______ _______ _____ _____    ______ ____
ROOT
ATOM      1  N   UNL     1       8.527   5.298  23.737  0.00  0.00    -0.227 N 
ATOM      2  C   UNL     1       9.009   4.007  23.516  0.00  0.00    +0.133 A 
ATOM      3  C   UNL     1       8.333   2.738  23.245  0.00  0.00    +0.270 C 
ATOM      4  N   UNL     1       9.230   1.631  23.152  0.00  0.00    -0.266 N 
ATOM      5  C   UNL     1      10.530   1.918  22.530  0.00  0.00    +0.119 C 
ATOM      6  C   UNL     1      11.300   2.967  23.326  0.00  0.00    +0.059 C 
ATOM      7  O   UNL     1       7.121   2.616  23.113  0.00  0.00    -0.268 OA
ATOM      8  C   UNL     1      10.390   4.113  23.566  0.00  0.00    +0.017 A 
ATOM      9  C   UNL     1      10.698   5.450  23.854  0.00  0.00    +0.151 A 
ATOM     10  N   UNL     1       9.575   6.189  23.893  0.00  0.00    -0.161 NA
ENDROOT
BRANCH   1  14
ATOM     11  C   UNL     1       4.475   6.656  23.861  0.00  0.00    +0.120 A 
ATOM     12  C   UNL     1       5.145   6.310  25.035  0.00  0.00    +0.048 A 
ATOM     13  C   UNL     1       6.488   5.903  25.014  0.00  0.00    +0.031 A 
ATOM     14  C   UNL     1       7.185   5.803  23.810  0.00  0.00    +0.066 A 
ATOM     15  C   UNL     1       6.529   6.222  22.634  0.00  0.00    +0.031 A 
ATOM     16  C   UNL     1       5.182   6.634  22.661  0.00  0.00    +0.048 A 
BRANCH  11  18
ATOM     17  C   UNL     1       2.202   5.942  24.031  0.00  0.00    +0.277 C 
ATOM     18  O   UNL     1       3.162   6.988  24.038  0.00  0.00    -0.495 OA
ENDBRANCH  11  18
ENDBRANCH   1  14
BRANCH   4  19
ATOM     19  C   UNL     1       8.927   0.324  23.673  0.00  0.00    +0.037 A 
ATOM     20  C   UNL     1       9.152  -0.016  25.014  0.00  0.00    +0.025 A 
ATOM     21  C   UNL     1       8.748  -1.252  25.555  0.00  0.00    +0.025 A 
ATOM     22  C   UNL     1       8.087  -2.212  24.786  0.00  0.00    +0.036 A 
ATOM     23  C   UNL     1       7.892  -1.884  23.439  0.00  0.00    +0.025 A 
ATOM     24  C   UNL     1       8.300  -0.651  22.897  0.00  0.00    +0.025 A 
BRANCH  22  25
ATOM     25  N   UNL     1       7.531  -3.408  25.356  0.00  0.00    -0.271 N 
ATOM     26  C   UNL     1       7.643  -4.655  24.722  0.00  0.00    +0.220 C 
ATOM     27  O   UNL     1       8.630  -5.073  24.120  0.00  0.00    -0.275 OA
ATOM     28  C   UNL     1       6.328  -5.417  24.656  0.00  0.00    +0.096 C 
ATOM     29  C   UNL     1       5.543  -5.414  25.955  0.00  0.00    +0.011 C 
ATOM     30  C   UNL     1       5.437  -4.003  26.511  0.00  0.00    +0.020 C 
ATOM     31  C   UNL     1       6.833  -3.413  26.639  0.00  0.00    +0.113 C 
ENDBRANCH  22  25
ENDBRANCH   4  19
BRANCH   9  32
ATOM     32  C   UNL     1      12.053   5.974  24.074  0.00  0.00    +0.262 C 
ATOM     33  O   UNL     1      12.439   6.444  25.144  0.00  0.00    -0.269 OA
ATOM     34  N   UNL     1      12.891   5.950  22.999  0.00  0.00    -0.324 N 
ATOM     35  H   UNL     1      13.799   6.380  23.087  0.00  0.00    +0.145 HD
ATOM     36  H   UNL     1      12.540   5.641  22.103  0.00  0.00    +0.145 HD
ENDBRANCH   9  32
TORSDOF 5
ENDMDL
MODEL 5
REMARK VINA RESULT:      -7.3      0.996      1.479
REMARK  Name = 
REMARK  6 active torsions:
REMARK  status: ('A' for Active; 'I' for Inactive)
REMARK    1  A    between atoms: C_1  and  O_2
REMARK    2  A    between atoms: O_2  and  C_3
REMARK    3  A    between atoms: C_6  and  N_9
REMARK    4  A    between atoms: C_11  and  C_12
REMARK    5  A    between atoms: N_19  and  C_22
REMARK    6  A    between atoms: C_25  and  N_28
REMARK                            x       y       z     vdW  Elec       q    Type
REMARK                         _______ _______ _______ _____ _____    ______ ____
ROOT
ATOM      1  N   UNL     1       5.842  -4.119  25.055  0.00  0.00    -0.227 N 
ATOM      2  C   UNL     1       6.789  -3.238  24.530  0.00  0.00    +0.133 A 
ATOM      3  C   UNL     1       7.480  -2.082  25.101  0.00  0.00    +0.270 C 
ATOM      4  N   UNL     1       8.330  -1.417  24.167  0.00  0.00    -0.266 N 
ATOM      5  C   UNL     1       9.025  -2.288  23.210  0.00  0.00    +0.119 C 
ATOM      6  C   UNL     1       8.033  -3.054  22.342  0.00  0.00    +0.059 C 
ATOM      7  O   UNL     1       7.350  -1.704  26.259  0.00  0.00    -0.268 OA
ATOM      8  C   UNL     1       7.037  -3.685  23.241  0.00  0.00    +0.017 A 
ATOM      9  C   UNL     1       6.206  -4.792  23.014  0.00  0.00    +0.151 A 
ATOM     10  N   UNL     1       5.527  -5.103  24.133  0.00  0.00    -0.161 NA
ENDROOT
BRANCH   1  14
ATOM     11  C   UNL     1       4.040  -4.099  28.932  0.00  0.00    +0.120 A 
ATOM     12  C   UNL     1       3.318  -3.688  27.810  0.00  0.00    +0.048 A 
ATOM     13  C   UNL     1       3.883  -3.730  26.526  0.00  0.00    +0.031 A 
ATOM     14  C   UNL     1       5.198  -4.156  26.338  0.00  0.00    +0.066 A 
ATOM     15  C   UNL     1       5.900  -4.637  27.462  0.00  0.00    +0.031 A 
ATOM     16  C   UNL     1       5.327  -4.598  28.749  0.00  0.00    +0.048 A 
BRANCH  11  18
ATOM     17  C   UNL     1       2.088  -4.555  30.230  0.00  0.00    +0.277 C 
ATOM     18  O   UNL     1       3.371  -3.959  30.114  0.00  0.00    -0.495 OA
ENDBRANCH  11  18
ENDBRANCH   1  14
BRANCH   4  19
ATOM     19  C   UNL     1       8.475   0.014  24.112  0.00  0.00    +0.037 A 
ATOM     20  C   UNL     1       7.443   0.851  23.666  0.00  0.00    +0.025 A 
ATOM     21  C   UNL     1       7.536   2.256  23.721  0.00  0.00    +0.025 A 
ATOM     22  C   UNL     1       8.662   2.899  24.236  0.00  0.00    +0.036 A 
ATOM     23  C   UNL     1       9.705   2.062  24.651  0.00  0.00    +0.025 A 
ATOM     24  C   UNL     1       9.615   0.659  24.591  0.00  0.00    +0.025 A 
BRANCH  22  25
ATOM     25  N   UNL     1       8.712   4.320  24.445  0.00  0.00    -0.271 N 
ATOM     26  C   UNL     1       8.040   4.938  25.511  0.00  0.00    +0.220 C 
ATOM     27  O   UNL     1       7.941   4.498  26.654  0.00  0.00    -0.275 OA
ATOM     28  C   UNL     1       7.235   6.158  25.089  0.00  0.00    +0.096 C 
ATOM     29  C   UNL     1       7.973   7.095  24.151  0.00  0.00    +0.011 C 
ATOM     30  C   UNL     1       8.604   6.318  23.007  0.00  0.00    +0.020 C 
ATOM     31  C   UNL     1       9.478   5.212  23.579  0.00  0.00    +0.113 C 
ENDBRANCH  22  25
ENDBRANCH   4  19
BRANCH   9  32
ATOM     32  C   UNL     1       6.098  -5.516  21.740  0.00  0.00    +0.262 C 
ATOM     33  O   UNL     1       5.704  -5.003  20.693  0.00  0.00    -0.269 OA
ATOM     34  N   UNL     1       6.431  -6.838  21.768  0.00  0.00    -0.324 N 
ATOM     35  H   UNL     1       6.287  -7.387  20.934  0.00  0.00    +0.145 HD
ATOM     36  H   UNL     1       6.672  -7.271  22.648  0.00  0.00    +0.145 HD
ENDBRANCH   9  32
TORSDOF 5
ENDMDL
MODEL 6
REMARK VINA RESULT:      -7.1      3.170     10.063
REMARK  Name = 
REMARK  6 active torsions:
REMARK  status: ('A' for Active; 'I' for Inactive)
REMARK    1  A    between atoms: C_1  and  O_2
REMARK    2  A    between atoms: O_2  and  C_3
REMARK    3  A    between atoms: C_6  and  N_9
REMARK    4  A    between atoms: C_11  and  C_12
REMARK    5  A    between atoms: N_19  and  C_22
REMARK    6  A    between atoms: C_25  and  N_28
REMARK                            x       y       z     vdW  Elec       q    Type
REMARK                         _______ _______ _______ _____ _____    ______ ____
ROOT
ATOM      1  N   UNL     1       7.811   4.677  23.912  0.00  0.00    -0.227 N 
ATOM      2  C   UNL     1       6.982   3.611  24.262  0.00  0.00    +0.133 A 
ATOM      3  C   UNL     1       7.268   2.248  24.711  0.00  0.00    +0.270 C 
ATOM      4  N   UNL     1       6.094   1.457  24.894  0.00  0.00    -0.266 N 
ATOM      5  C   UNL     1       4.923   2.172  25.420  0.00  0.00    +0.119 C 
ATOM      6  C   UNL     1       4.488   3.285  24.473  0.00  0.00    +0.059 C 
ATOM      7  O   UNL     1       8.395   1.810  24.910  0.00  0.00    -0.268 OA
ATOM      8  C   UNL     1       5.687   4.092  24.140  0.00  0.00    +0.017 A 
ATOM      9  C   UNL     1       5.773   5.414  23.682  0.00  0.00    +0.151 A 
ATOM     10  N   UNL     1       7.059   5.800  23.606  0.00  0.00    -0.161 NA
ENDROOT
BRANCH   1  14
ATOM     11  C   UNL     1      12.059   4.953  23.517  0.00  0.00    +0.120 A 
ATOM     12  C   UNL     1      11.320   6.029  24.011  0.00  0.00    +0.048 A 
ATOM     13  C   UNL     1       9.930   5.938  24.185  0.00  0.00    +0.031 A 
ATOM     14  C   UNL     1       9.242   4.774  23.840  0.00  0.00    +0.066 A 
ATOM     15  C   UNL     1       9.999   3.665  23.411  0.00  0.00    +0.031 A 
ATOM     16  C   UNL     1      11.395   3.760  23.242  0.00  0.00    +0.048 A 
BRANCH  11  18
ATOM     17  C   UNL     1      13.817   5.828  22.157  0.00  0.00    +0.277 C 
ATOM     18  O   UNL     1      13.391   5.209  23.362  0.00  0.00    -0.495 OA
ENDBRANCH  11  18
ENDBRANCH   1  14
BRANCH   4  19
ATOM     19  C   UNL     1       6.020   0.062  24.545  0.00  0.00    +0.037 A 
ATOM     20  C   UNL     1       6.456  -0.420  23.304  0.00  0.00    +0.025 A 
ATOM     21  C   UNL     1       6.495  -1.795  23.002  0.00  0.00    +0.025 A 
ATOM     22  C   UNL     1       6.112  -2.764  23.931  0.00  0.00    +0.036 A 
ATOM     23  C   UNL     1       5.647  -2.279  25.160  0.00  0.00    +0.025 A 
ATOM     24  C   UNL     1       5.601  -0.904  25.459  0.00  0.00    +0.025 A 
BRANCH  22  25
ATOM     25  N   UNL     1       6.293  -4.170  23.699  0.00  0.00    -0.271 N 
ATOM     26  C   UNL     1       7.552  -4.719  23.408  0.00  0.00    +0.220 C 
ATOM     27  O   UNL     1       8.620  -4.387  23.917  0.00  0.00    -0.275 OA
ATOM     28  C   UNL     1       7.534  -5.666  22.217  0.00  0.00    +0.096 C 
ATOM     29  C   UNL     1       6.378  -6.650  22.224  0.00  0.00    +0.011 C 
ATOM     30  C   UNL     1       5.066  -5.930  22.487  0.00  0.00    +0.020 C 
ATOM     31  C   UNL     1       5.190  -5.124  23.772  0.00  0.00    +0.113 C 
ENDBRANCH  22  25
ENDBRANCH   4  19
BRANCH   9  32
ATOM     32  C   UNL     1       4.623   6.264  23.342  0.00  0.00    +0.262 C 
ATOM     33  O   UNL     1       3.954   6.875  24.176  0.00  0.00    -0.269 OA
ATOM     34  N   UNL     1       4.291   6.330  22.022  0.00  0.00    -0.324 N 
ATOM     35  H   UNL     1       3.456   6.832  21.761  0.00  0.00    +0.145 HD
ATOM     36  H   UNL     1       4.792   5.760  21.355  0.00  0.00    +0.145 HD
ENDBRANCH   9  32
TORSDOF 5
ENDMDL
MODEL 7
REMARK VINA RESULT:      -6.7      3.056      9.987
REMARK  Name = 
REMARK  6 active torsions:
REMARK  status: ('A' for Active; 'I' for Inactive)
REMARK    1  A    between atoms: C_1  and  O_2
REMARK    2  A    between atoms: O_2  and  C_3
REMARK    3  A    between atoms: C_6  and  N_9
REMARK    4  A    between atoms: C_11  and  C_12
REMARK    5  A    between atoms: N_19  and  C_22
REMARK    6  A    between atoms: C_25  and  N_28
REMARK                            x       y       z     vdW  Elec       q    Type
REMARK                         _______ _______ _______ _____ _____    ______ ____
ROOT
ATOM      1  N   UNL     1       7.293   4.715  24.031  0.00  0.00    -0.227 N 
ATOM      2  C   UNL     1       6.652   3.536  24.415  0.00  0.00    +0.133 A 
ATOM      3  C   UNL     1       7.156   2.273  24.953  0.00  0.00    +0.270 C 
ATOM      4  N   UNL     1       6.134   1.294  25.142  0.00  0.00    -0.266 N 
ATOM      5  C   UNL     1       4.833   1.813  25.585  0.00  0.00    +0.119 C 
ATOM      6  C   UNL     1       4.249   2.779  24.560  0.00  0.00    +0.059 C 
ATOM      7  O   UNL     1       8.333   2.055  25.215  0.00  0.00    -0.268 OA
ATOM      8  C   UNL     1       5.299   3.770  24.220  0.00  0.00    +0.017 A 
ATOM      9  C   UNL     1       5.169   5.061  23.689  0.00  0.00    +0.151 A 
ATOM     10  N   UNL     1       6.369   5.666  23.633  0.00  0.00    -0.161 NA
ENDROOT
BRANCH   1  14
ATOM     11  C   UNL     1      11.446   5.727  24.124  0.00  0.00    +0.120 A 
ATOM     12  C   UNL     1      11.008   4.586  23.452  0.00  0.00    +0.048 A 
ATOM     13  C   UNL     1       9.643   4.263  23.377  0.00  0.00    +0.031 A 
ATOM     14  C   UNL     1       8.686   5.064  24.002  0.00  0.00    +0.066 A 
ATOM     15  C   UNL     1       9.124   6.253  24.618  0.00  0.00    +0.031 A 
ATOM     16  C   UNL     1      10.494   6.575  24.686  0.00  0.00    +0.048 A 
BRANCH  11  18
ATOM     17  C   UNL     1      13.549   5.391  23.044  0.00  0.00    +0.277 C 
ATOM     18  O   UNL     1      12.803   5.882  24.147  0.00  0.00    -0.495 OA
ENDBRANCH  11  18
ENDBRANCH   1  14
BRANCH   4  19
ATOM     19  C   UNL     1       6.324  -0.107  24.874  0.00  0.00    +0.037 A 
ATOM     20  C   UNL     1       5.983  -1.098  25.805  0.00  0.00    +0.025 A 
ATOM     21  C   UNL     1       6.057  -2.472  25.504  0.00  0.00    +0.025 A 
ATOM     22  C   UNL     1       6.466  -2.929  24.250  0.00  0.00    +0.036 A 
ATOM     23  C   UNL     1       6.837  -1.940  23.332  0.00  0.00    +0.025 A 
ATOM     24  C   UNL     1       6.769  -0.567  23.634  0.00  0.00    +0.025 A 
BRANCH  22  25
ATOM     25  N   UNL     1       6.399  -4.315  23.875  0.00  0.00    -0.271 N 
ATOM     26  C   UNL     1       7.537  -5.033  23.476  0.00  0.00    +0.220 C 
ATOM     27  O   UNL     1       8.660  -4.938  23.967  0.00  0.00    -0.275 OA
ATOM     28  C   UNL     1       7.326  -5.836  22.201  0.00  0.00    +0.096 C 
ATOM     29  C   UNL     1       6.020  -6.608  22.163  0.00  0.00    +0.011 C 
ATOM     30  C   UNL     1       4.857  -5.711  22.553  0.00  0.00    +0.020 C 
ATOM     31  C   UNL     1       5.151  -5.074  23.903  0.00  0.00    +0.113 C 
ENDBRANCH  22  25
ENDBRANCH   4  19
BRANCH   9  32
ATOM     32  C   UNL     1       3.902   5.671  23.261  0.00  0.00    +0.262 C 
ATOM     33  O   UNL     1       3.302   5.352  22.234  0.00  0.00    -0.269 OA
ATOM     34  N   UNL     1       3.413   6.665  24.055  0.00  0.00    -0.324 N 
ATOM     35  H   UNL     1       2.593   7.166  23.748  0.00  0.00    +0.145 HD
ATOM     36  H   UNL     1       3.954   6.978  24.849  0.00  0.00    +0.145 HD
ENDBRANCH   9  32
TORSDOF 5
ENDMDL
MODEL 8
REMARK VINA RESULT:      -6.5      3.798      4.775
REMARK  Name = 
REMARK  6 active torsions:
REMARK  status: ('A' for Active; 'I' for Inactive)
REMARK    1  A    between atoms: C_1  and  O_2
REMARK    2  A    between atoms: O_2  and  C_3
REMARK    3  A    between atoms: C_6  and  N_9
REMARK    4  A    between atoms: C_11  and  C_12
REMARK    5  A    between atoms: N_19  and  C_22
REMARK    6  A    between atoms: C_25  and  N_28
REMARK                            x       y       z     vdW  Elec       q    Type
REMARK                         _______ _______ _______ _____ _____    ______ ____
ROOT
ATOM      1  N   UNL     1       5.829  -4.647  24.975  0.00  0.00    -0.227 N 
ATOM      2  C   UNL     1       6.076  -3.338  25.388  0.00  0.00    +0.133 A 
ATOM      3  C   UNL     1       5.185  -2.221  25.705  0.00  0.00    +0.270 C 
ATOM      4  N   UNL     1       5.882  -1.017  26.024  0.00  0.00    -0.266 N 
ATOM      5  C   UNL     1       7.136  -1.189  26.769  0.00  0.00    +0.119 C 
ATOM      6  C   UNL     1       8.143  -2.011  25.971  0.00  0.00    +0.059 C 
ATOM      7  O   UNL     1       3.961  -2.292  25.697  0.00  0.00    -0.268 OA
ATOM      8  C   UNL     1       7.455  -3.238  25.500  0.00  0.00    +0.017 A 
ATOM      9  C   UNL     1       7.997  -4.471  25.113  0.00  0.00    +0.151 A 
ATOM     10  N   UNL     1       7.015  -5.354  24.858  0.00  0.00    -0.161 NA
ENDROOT
BRANCH   1  14
ATOM     11  C   UNL     1       2.249  -6.757  23.970  0.00  0.00    +0.120 A 
ATOM     12  C   UNL     1       2.891  -6.987  25.187  0.00  0.00    +0.048 A 
ATOM     13  C   UNL     1       4.044  -6.271  25.548  0.00  0.00    +0.031 A 
ATOM     14  C   UNL     1       4.599  -5.328  24.683  0.00  0.00    +0.066 A 
ATOM     15  C   UNL     1       3.908  -5.046  23.487  0.00  0.00    +0.031 A 
ATOM     16  C   UNL     1       2.748  -5.763  23.130  0.00  0.00    +0.048 A 
BRANCH  11  18
ATOM     17  C   UNL     1       1.137  -8.312  22.537  0.00  0.00    +0.277 C 
ATOM     18  O   UNL     1       1.168  -7.560  23.742  0.00  0.00    -0.495 OA
ENDBRANCH  11  18
ENDBRANCH   1  14
BRANCH   4  19
ATOM     19  C   UNL     1       5.435   0.287  25.610  0.00  0.00    +0.037 A 
ATOM     20  C   UNL     1       5.854   0.872  24.408  0.00  0.00    +0.025 A 
ATOM     21  C   UNL     1       5.330   2.094  23.941  0.00  0.00    +0.025 A 
ATOM     22  C   UNL     1       4.348   2.790  24.648  0.00  0.00    +0.036 A 
ATOM     23  C   UNL     1       3.953   2.221  25.865  0.00  0.00    +0.025 A 
ATOM     24  C   UNL     1       4.481   1.003  26.333  0.00  0.00    +0.025 A 
BRANCH  22  25
ATOM     25  N   UNL     1       3.691   3.952  24.115  0.00  0.00    -0.271 N 
ATOM     26  C   UNL     1       2.642   3.851  23.187  0.00  0.00    +0.220 C 
ATOM     27  O   UNL     1       1.745   3.011  23.198  0.00  0.00    -0.275 OA
ATOM     28  C   UNL     1       2.807   4.777  21.991  0.00  0.00    +0.096 C 
ATOM     29  C   UNL     1       3.226   6.191  22.353  0.00  0.00    +0.011 C 
ATOM     30  C   UNL     1       4.405   6.169  23.312  0.00  0.00    +0.020 C 
ATOM     31  C   UNL     1       4.051   5.308  24.516  0.00  0.00    +0.113 C 
ENDBRANCH  22  25
ENDBRANCH   4  19
BRANCH   9  32
ATOM     32  C   UNL     1       9.433  -4.764  25.010  0.00  0.00    +0.262 C 
ATOM     33  O   UNL     1      10.236  -4.050  24.409  0.00  0.00    -0.269 OA
ATOM     34  N   UNL     1       9.857  -5.918  25.600  0.00  0.00    -0.324 N 
ATOM     35  H   UNL     1      10.819  -6.196  25.476  0.00  0.00    +0.145 HD
ATOM     36  H   UNL     1       9.180  -6.540  26.017  0.00  0.00    +0.145 HD
ENDBRANCH   9  32
TORSDOF 5
ENDMDL
MODEL 9
REMARK VINA RESULT:      -6.5      3.518      6.229
REMARK  Name = 
REMARK  6 active torsions:
REMARK  status: ('A' for Active; 'I' for Inactive)
REMARK    1  A    between atoms: C_1  and  O_2
REMARK    2  A    between atoms: O_2  and  C_3
REMARK    3  A    between atoms: C_6  and  N_9
REMARK    4  A    between atoms: C_11  and  C_12
REMARK    5  A    between atoms: N_19  and  C_22
REMARK    6  A    between atoms: C_25  and  N_28
REMARK                            x       y       z     vdW  Elec       q    Type
REMARK                         _______ _______ _______ _____ _____    ______ ____
ROOT
ATOM      1  N   UNL     1       2.843  -5.999  26.172  0.00  0.00    -0.227 N 
ATOM      2  C   UNL     1       3.678  -4.925  26.487  0.00  0.00    +0.133 A 
ATOM      3  C   UNL     1       4.120  -3.764  25.715  0.00  0.00    +0.270 C 
ATOM      4  N   UNL     1       5.046  -2.938  26.422  0.00  0.00    -0.266 N 
ATOM      5  C   UNL     1       4.810  -2.812  27.866  0.00  0.00    +0.119 C 
ATOM      6  C   UNL     1       4.904  -4.167  28.559  0.00  0.00    +0.059 C 
ATOM      7  O   UNL     1       3.749  -3.512  24.575  0.00  0.00    -0.268 OA
ATOM      8  C   UNL     1       4.051  -5.121  27.808  0.00  0.00    +0.017 A 
ATOM      9  C   UNL     1       3.467  -6.322  28.235  0.00  0.00    +0.151 A 
ATOM     10  N   UNL     1       2.678  -6.826  27.270  0.00  0.00    -0.161 NA
ENDROOT
BRANCH   1  14
ATOM     11  C   UNL     1       0.921  -6.883  22.458  0.00  0.00    +0.120 A 
ATOM     12  C   UNL     1       1.753  -7.822  23.068  0.00  0.00    +0.048 A 
ATOM     13  C   UNL     1       2.357  -7.562  24.308  0.00  0.00    +0.031 A 
ATOM     14  C   UNL     1       2.166  -6.339  24.953  0.00  0.00    +0.066 A 
ATOM     15  C   UNL     1       1.268  -5.422  24.370  0.00  0.00    +0.031 A 
ATOM     16  C   UNL     1       0.660  -5.689  23.127  0.00  0.00    +0.048 A 
BRANCH  11  18
ATOM     17  C   UNL     1       1.108  -8.319  20.558  0.00  0.00    +0.277 C 
ATOM     18  O   UNL     1       0.443  -7.263  21.236  0.00  0.00    -0.495 OA
ENDBRANCH  11  18
ENDBRANCH   1  14
BRANCH   4  19
ATOM     19  C   UNL     1       6.174  -2.301  25.793  0.00  0.00    +0.037 A 
ATOM     20  C   UNL     1       6.834  -2.869  24.695  0.00  0.00    +0.025 A 
ATOM     21  C   UNL     1       7.861  -2.197  24.004  0.00  0.00    +0.025 A 
ATOM     22  C   UNL     1       8.275  -0.914  24.368  0.00  0.00    +0.036 A 
ATOM     23  C   UNL     1       7.637  -0.362  25.485  0.00  0.00    +0.025 A 
ATOM     24  C   UNL     1       6.615  -1.036  26.179  0.00  0.00    +0.025 A 
BRANCH  22  25
ATOM     25  N   UNL     1       9.208  -0.153  23.583  0.00  0.00    -0.271 N 
ATOM     26  C   UNL     1      10.216   0.625  24.174  0.00  0.00    +0.220 C 
ATOM     27  O   UNL     1      10.878   0.318  25.163  0.00  0.00    -0.275 OA
ATOM     28  C   UNL     1      10.306   2.031  23.600  0.00  0.00    +0.096 C 
ATOM     29  C   UNL     1      10.242   2.087  22.084  0.00  0.00    +0.011 C 
ATOM     30  C   UNL     1       9.076   1.259  21.568  0.00  0.00    +0.020 C 
ATOM     31  C   UNL     1       9.186  -0.153  22.123  0.00  0.00    +0.113 C 
ENDBRANCH  22  25
ENDBRANCH   4  19
BRANCH   9  32
ATOM     32  C   UNL     1       3.678  -6.939  29.552  0.00  0.00    +0.262 C 
ATOM     33  O   UNL     1       4.787  -7.104  30.060  0.00  0.00    -0.269 OA
ATOM     34  N   UNL     1       2.560  -7.368  30.203  0.00  0.00    -0.324 N 
ATOM     35  H   UNL     1       2.672  -7.874  31.068  0.00  0.00    +0.145 HD
ATOM     36  H   UNL     1       1.663  -7.305  29.743  0.00  0.00    +0.145 HD
ENDBRANCH   9  32
TORSDOF 5
ENDMDL
