MODEL 1
REMARK VINA RESULT:      -3.7      0.000      0.000
REMARK  Name = 
REMARK  7 active torsions:
REMARK  status: ('A' for Active; 'I' for Inactive)
REMARK    1  A    between atoms: N_1  and  C_2
REMARK    2  A    between atoms: C_2  and  C_3
REMARK    3  A    between atoms: C_3  and  C_4
REMARK    4  A    between atoms: C_4  and  O_5
REMARK    5  A    between atoms: O_5  and  P_6
REMARK    6  A    between atoms: P_6  and  O_7
REMARK    7  A    between atoms: P_6  and  O_8
REMARK                            x       y       z     vdW  Elec       q    Type
REMARK                         _______ _______ _______ _____ _____    ______ ____
ROOT
ATOM      1  O   UNL     1      10.090  -3.658  24.242  0.00  0.00    -0.287 OA
ENDROOT
BRANCH   1   2
ATOM      2  P   UNL     1       9.088  -4.617  25.274  0.00  0.00    +0.472 P 
ATOM      3  O   UNL     1       8.190  -5.477  26.199  0.00  0.00    -0.228 OA
BRANCH   2   4
ATOM      4  O   UNL     1      10.377  -5.618  25.402  0.00  0.00    -0.303 OA
ATOM      5  H   UNL     1      10.780  -5.413  26.266  0.00  0.00    +0.222 HD
ENDBRANCH   2   4
BRANCH   2   6
ATOM      6  O   UNL     1       8.559  -5.293  23.878  0.00  0.00    -0.303 OA
ATOM      7  H   UNL     1       8.067  -6.114  24.049  0.00  0.00    +0.222 HD
ENDBRANCH   2   6
ENDBRANCH   1   2
BRANCH   1   8
ATOM      8  C   UNL     1       9.681  -2.290  24.234  0.00  0.00    +0.173 C 
BRANCH   8   9
ATOM      9  C   UNL     1      10.069  -1.657  22.908  0.00  0.00    +0.043 C 
BRANCH   9  10
ATOM     10  C   UNL     1       8.929  -1.680  21.893  0.00  0.00    +0.080 C 
BRANCH  10  11
ATOM     11  N   UNL     1       7.926  -2.682  22.226  0.00  0.00    -0.330 NA
ATOM     12  H   UNL     1       8.313  -3.351  22.892  0.00  0.00    +0.118 HD
ATOM     13  H   UNL     1       7.140  -2.237  22.698  0.00  0.00    +0.118 HD
ENDBRANCH  10  11
ENDBRANCH   9  10
ENDBRANCH   8   9
ENDBRANCH   1   8
TORSDOF 7
ENDMDL
MODEL 2
REMARK VINA RESULT:      -3.7      3.556      4.148
REMARK  Name = 
REMARK  7 active torsions:
REMARK  status: ('A' for Active; 'I' for Inactive)
REMARK    1  A    between atoms: N_1  and  C_2
REMARK    2  A    between atoms: C_2  and  C_3
REMARK    3  A    between atoms: C_3  and  C_4
REMARK    4  A    between atoms: C_4  and  O_5
REMARK    5  A    between atoms: O_5  and  P_6
REMARK    6  A    between atoms: P_6  and  O_7
REMARK    7  A    between atoms: P_6  and  O_8
REMARK                            x       y       z     vdW  Elec       q    Type
REMARK                         _______ _______ _______ _____ _____    ______ ____
ROOT
ATOM      1  O   UNL     1      10.635  -0.399  23.318  0.00  0.00    -0.287 OA
ENDROOT
BRANCH   1   2
ATOM      2  P   UNL     1       9.390  -1.496  22.829  0.00  0.00    +0.472 P 
ATOM      3  O   UNL     1       8.276  -2.478  22.391  0.00  0.00    -0.228 OA
BRANCH   2   4
ATOM      4  O   UNL     1      10.307  -2.662  23.521  0.00  0.00    -0.303 OA
ATOM      5  H   UNL     1      11.052  -2.805  22.909  0.00  0.00    +0.222 HD
ENDBRANCH   2   4
BRANCH   2   6
ATOM      6  O   UNL     1      10.203  -1.544  21.406  0.00  0.00    -0.303 OA
ATOM      7  H   UNL     1       9.653  -1.922  20.700  0.00  0.00    +0.222 HD
ENDBRANCH   2   6
ENDBRANCH   1   2
BRANCH   1   8
ATOM      8  C   UNL     1      10.278   0.306  24.506  0.00  0.00    +0.173 C 
BRANCH   8   9
ATOM      9  C   UNL     1       9.618   1.622  24.131  0.00  0.00    +0.043 C 
BRANCH   9  10
ATOM     10  C   UNL     1      10.447   2.429  23.134  0.00  0.00    +0.080 C 
BRANCH  10  11
ATOM     11  N   UNL     1      10.043   2.172  21.759  0.00  0.00    -0.330 NA
ATOM     12  H   UNL     1       9.137   1.702  21.746  0.00  0.00    +0.118 HD
ATOM     13  H   UNL     1       9.909   3.056  21.269  0.00  0.00    +0.118 HD
ENDBRANCH  10  11
ENDBRANCH   9  10
ENDBRANCH   8   9
ENDBRANCH   1   8
TORSDOF 7
ENDMDL
MODEL 3
REMARK VINA RESULT:      -3.6      3.855      4.589
REMARK  Name = 
REMARK  7 active torsions:
REMARK  status: ('A' for Active; 'I' for Inactive)
REMARK    1  A    between atoms: N_1  and  C_2
REMARK    2  A    between atoms: C_2  and  C_3
REMARK    3  A    between atoms: C_3  and  C_4
REMARK    4  A    between atoms: C_4  and  O_5
REMARK    5  A    between atoms: O_5  and  P_6
REMARK    6  A    between atoms: P_6  and  O_7
REMARK    7  A    between atoms: P_6  and  O_8
REMARK                            x       y       z     vdW  Elec       q    Type
REMARK                         _______ _______ _______ _____ _____    ______ ____
ROOT
ATOM      1  O   UNL     1       8.261  -0.225  22.727  0.00  0.00    -0.287 OA
ENDROOT
BRANCH   1   2
ATOM      2  P   UNL     1       9.495  -1.429  22.860  0.00  0.00    +0.472 P 
ATOM      3  O   UNL     1      10.601  -2.507  22.980  0.00  0.00    -0.228 OA
BRANCH   2   4
ATOM      4  O   UNL     1      10.444  -0.226  23.439  0.00  0.00    -0.303 OA
ATOM      5  H   UNL     1      10.236  -0.167  24.390  0.00  0.00    +0.222 HD
ENDBRANCH   2   4
BRANCH   2   6
ATOM      6  O   UNL     1       9.803  -1.069  21.291  0.00  0.00    -0.303 OA
ATOM      7  H   UNL     1       8.985  -0.854  20.813  0.00  0.00    +0.222 HD
ENDBRANCH   2   6
ENDBRANCH   1   2
BRANCH   1   8
ATOM      8  C   UNL     1       8.310   0.702  23.811  0.00  0.00    +0.173 C 
BRANCH   8   9
ATOM      9  C   UNL     1       7.962   2.091  23.302  0.00  0.00    +0.043 C 
BRANCH   9  10
ATOM     10  C   UNL     1       8.268   2.263  21.817  0.00  0.00    +0.080 C 
BRANCH  10  11
ATOM     11  N   UNL     1       9.685   2.089  21.531  0.00  0.00    -0.330 NA
ATOM     12  H   UNL     1       9.872   1.115  21.288  0.00  0.00    +0.118 HD
ATOM     13  H   UNL     1       9.941   2.637  20.711  0.00  0.00    +0.118 HD
ENDBRANCH  10  11
ENDBRANCH   9  10
ENDBRANCH   8   9
ENDBRANCH   1   8
TORSDOF 7
ENDMDL
MODEL 4
REMARK VINA RESULT:      -3.6      5.331      6.302
REMARK  Name = 
REMARK  7 active torsions:
REMARK  status: ('A' for Active; 'I' for Inactive)
REMARK    1  A    between atoms: N_1  and  C_2
REMARK    2  A    between atoms: C_2  and  C_3
REMARK    3  A    between atoms: C_3  and  C_4
REMARK    4  A    between atoms: C_4  and  O_5
REMARK    5  A    between atoms: O_5  and  P_6
REMARK    6  A    between atoms: P_6  and  O_7
REMARK    7  A    between atoms: P_6  and  O_8
REMARK                            x       y       z     vdW  Elec       q    Type
REMARK                         _______ _______ _______ _____ _____    ______ ____
ROOT
ATOM      1  O   UNL     1       8.746   1.332  22.967  0.00  0.00    -0.287 OA
ENDROOT
BRANCH   1   2
ATOM      2  P   UNL     1      10.059   2.440  23.166  0.00  0.00    +0.472 P 
ATOM      3  O   UNL     1      11.235   3.433  23.345  0.00  0.00    -0.228 OA
BRANCH   2   4
ATOM      4  O   UNL     1       8.944   3.619  22.954  0.00  0.00    -0.303 OA
ATOM      5  H   UNL     1       8.081   3.165  22.958  0.00  0.00    +0.222 HD
ENDBRANCH   2   4
BRANCH   2   6
ATOM      6  O   UNL     1      10.292   2.216  21.559  0.00  0.00    -0.303 OA
ATOM      7  H   UNL     1       9.735   1.494  21.221  0.00  0.00    +0.222 HD
ENDBRANCH   2   6
ENDBRANCH   1   2
BRANCH   1   8
ATOM      8  C   UNL     1       8.849   0.227  23.865  0.00  0.00    +0.173 C 
BRANCH   8   9
ATOM      9  C   UNL     1      10.206  -0.436  23.692  0.00  0.00    +0.043 C 
BRANCH   9  10
ATOM     10  C   UNL     1      10.207  -1.482  22.580  0.00  0.00    +0.080 C 
BRANCH  10  11
ATOM     11  N   UNL     1       9.815  -0.913  21.298  0.00  0.00    -0.330 NA
ATOM     12  H   UNL     1      10.178   0.037  21.216  0.00  0.00    +0.118 HD
ATOM     13  H   UNL     1      10.243  -1.444  20.541  0.00  0.00    +0.118 HD
ENDBRANCH  10  11
ENDBRANCH   9  10
ENDBRANCH   8   9
ENDBRANCH   1   8
TORSDOF 7
ENDMDL
MODEL 5
REMARK VINA RESULT:      -3.5      1.770      2.098
REMARK  Name = 
REMARK  7 active torsions:
REMARK  status: ('A' for Active; 'I' for Inactive)
REMARK    1  A    between atoms: N_1  and  C_2
REMARK    2  A    between atoms: C_2  and  C_3
REMARK    3  A    between atoms: C_3  and  C_4
REMARK    4  A    between atoms: C_4  and  O_5
REMARK    5  A    between atoms: O_5  and  P_6
REMARK    6  A    between atoms: P_6  and  O_7
REMARK    7  A    between atoms: P_6  and  O_8
REMARK                            x       y       z     vdW  Elec       q    Type
REMARK                         _______ _______ _______ _____ _____    ______ ____
ROOT
ATOM      1  O   UNL     1       8.398  -1.856  24.324  0.00  0.00    -0.287 OA
ENDROOT
BRANCH   1   2
ATOM      2  P   UNL     1       8.693  -3.560  24.349  0.00  0.00    +0.472 P 
ATOM      3  O   UNL     1       8.957  -5.086  24.371  0.00  0.00    -0.228 OA
BRANCH   2   4
ATOM      4  O   UNL     1      10.226  -3.184  23.916  0.00  0.00    -0.303 OA
ATOM      5  H   UNL     1      10.728  -4.016  23.989  0.00  0.00    +0.222 HD
ENDBRANCH   2   4
BRANCH   2   6
ATOM      6  O   UNL     1       8.130  -3.526  22.810  0.00  0.00    -0.303 OA
ATOM      7  H   UNL     1       8.828  -3.759  22.175  0.00  0.00    +0.222 HD
ENDBRANCH   2   6
ENDBRANCH   1   2
BRANCH   1   8
ATOM      8  C   UNL     1       9.600  -1.118  24.107  0.00  0.00    +0.173 C 
BRANCH   8   9
ATOM      9  C   UNL     1       9.290   0.110  23.267  0.00  0.00    +0.043 C 
BRANCH   9  10
ATOM     10  C   UNL     1       9.685  -0.068  21.803  0.00  0.00    +0.080 C 
BRANCH  10  11
ATOM     11  N   UNL     1       9.980  -1.458  21.486  0.00  0.00    -0.330 NA
ATOM     12  H   UNL     1       9.216  -2.055  21.805  0.00  0.00    +0.118 HD
ATOM     13  H   UNL     1      10.027  -1.578  20.474  0.00  0.00    +0.118 HD
ENDBRANCH  10  11
ENDBRANCH   9  10
ENDBRANCH   8   9
ENDBRANCH   1   8
TORSDOF 7
ENDMDL
MODEL 6
REMARK VINA RESULT:      -3.4      3.164      3.973
REMARK  Name = 
REMARK  7 active torsions:
REMARK  status: ('A' for Active; 'I' for Inactive)
REMARK    1  A    between atoms: N_1  and  C_2
REMARK    2  A    between atoms: C_2  and  C_3
REMARK    3  A    between atoms: C_3  and  C_4
REMARK    4  A    between atoms: C_4  and  O_5
REMARK    5  A    between atoms: O_5  and  P_6
REMARK    6  A    between atoms: P_6  and  O_7
REMARK    7  A    between atoms: P_6  and  O_8
REMARK                            x       y       z     vdW  Elec       q    Type
REMARK                         _______ _______ _______ _____ _____    ______ ____
ROOT
ATOM      1  O   UNL     1       9.484   0.105  23.083  0.00  0.00    -0.287 OA
ENDROOT
BRANCH   1   2
ATOM      2  P   UNL     1       9.849  -1.550  23.427  0.00  0.00    +0.472 P 
ATOM      3  O   UNL     1      10.177  -3.032  23.735  0.00  0.00    -0.228 OA
BRANCH   2   4
ATOM      4  O   UNL     1      10.363  -1.639  21.875  0.00  0.00    -0.303 OA
ATOM      5  H   UNL     1      10.187  -0.759  21.493  0.00  0.00    +0.222 HD
ENDBRANCH   2   4
BRANCH   2   6
ATOM      6  O   UNL     1       8.279  -1.818  23.041  0.00  0.00    -0.303 OA
ATOM      7  H   UNL     1       7.685  -1.492  23.738  0.00  0.00    +0.222 HD
ENDBRANCH   2   6
ENDBRANCH   1   2
BRANCH   1   8
ATOM      8  C   UNL     1       9.519   0.371  21.681  0.00  0.00    +0.173 C 
BRANCH   8   9
ATOM      9  C   UNL     1       8.484   1.432  21.345  0.00  0.00    +0.043 C 
BRANCH   9  10
ATOM     10  C   UNL     1       7.560   1.740  22.519  0.00  0.00    +0.080 C 
BRANCH  10  11
ATOM     11  N   UNL     1       6.552   0.705  22.704  0.00  0.00    -0.330 NA
ATOM     12  H   UNL     1       5.620   1.105  22.587  0.00  0.00    +0.118 HD
ATOM     13  H   UNL     1       6.649  -0.002  21.976  0.00  0.00    +0.118 HD
ENDBRANCH  10  11
ENDBRANCH   9  10
ENDBRANCH   8   9
ENDBRANCH   1   8
TORSDOF 7
ENDMDL
MODEL 7
REMARK VINA RESULT:      -3.4      3.257      3.602
REMARK  Name = 
REMARK  7 active torsions:
REMARK  status: ('A' for Active; 'I' for Inactive)
REMARK    1  A    between atoms: N_1  and  C_2
REMARK    2  A    between atoms: C_2  and  C_3
REMARK    3  A    between atoms: C_3  and  C_4
REMARK    4  A    between atoms: C_4  and  O_5
REMARK    5  A    between atoms: O_5  and  P_6
REMARK    6  A    between atoms: P_6  and  O_7
REMARK    7  A    between atoms: P_6  and  O_8
REMARK                            x       y       z     vdW  Elec       q    Type
REMARK                         _______ _______ _______ _____ _____    ______ ____
ROOT
ATOM      1  O   UNL     1       8.587  -5.594  23.743  0.00  0.00    -0.287 OA
ENDROOT
BRANCH   1   2
ATOM      2  P   UNL     1       8.875  -4.881  25.293  0.00  0.00    +0.472 P 
ATOM      3  O   UNL     1       9.133  -4.243  26.680  0.00  0.00    -0.228 OA
BRANCH   2   4
ATOM      4  O   UNL     1       9.966  -3.933  24.524  0.00  0.00    -0.303 OA
ATOM      5  H   UNL     1       9.590  -3.034  24.547  0.00  0.00    +0.222 HD
ENDBRANCH   2   4
BRANCH   2   6
ATOM      6  O   UNL     1       9.928  -6.121  25.497  0.00  0.00    -0.303 OA
ATOM      7  H   UNL     1       9.468  -6.977  25.487  0.00  0.00    +0.222 HD
ENDBRANCH   2   6
ENDBRANCH   1   2
BRANCH   1   8
ATOM      8  C   UNL     1       7.578  -4.890  23.020  0.00  0.00    +0.173 C 
BRANCH   8   9
ATOM      9  C   UNL     1       6.833  -5.863  22.121  0.00  0.00    +0.043 C 
BRANCH   9  10
ATOM     10  C   UNL     1       5.322  -5.812  22.329  0.00  0.00    +0.080 C 
BRANCH  10  11
ATOM     11  N   UNL     1       4.883  -6.750  23.354  0.00  0.00    -0.330 NA
ATOM     12  H   UNL     1       5.660  -7.354  23.625  0.00  0.00    +0.118 HD
ATOM     13  H   UNL     1       4.617  -6.240  24.195  0.00  0.00    +0.118 HD
ENDBRANCH  10  11
ENDBRANCH   9  10
ENDBRANCH   8   9
ENDBRANCH   1   8
TORSDOF 7
ENDMDL
MODEL 8
REMARK VINA RESULT:      -3.4      3.667      4.469
REMARK  Name = 
REMARK  7 active torsions:
REMARK  status: ('A' for Active; 'I' for Inactive)
REMARK    1  A    between atoms: N_1  and  C_2
REMARK    2  A    between atoms: C_2  and  C_3
REMARK    3  A    between atoms: C_3  and  C_4
REMARK    4  A    between atoms: C_4  and  O_5
REMARK    5  A    between atoms: O_5  and  P_6
REMARK    6  A    between atoms: P_6  and  O_7
REMARK    7  A    between atoms: P_6  and  O_8
REMARK                            x       y       z     vdW  Elec       q    Type
REMARK                         _______ _______ _______ _____ _____    ______ ____
ROOT
ATOM      1  O   UNL     1       7.108  -3.855  24.813  0.00  0.00    -0.287 OA
ENDROOT
BRANCH   1   2
ATOM      2  P   UNL     1       8.721  -3.452  24.335  0.00  0.00    +0.472 P 
ATOM      3  O   UNL     1      10.165  -3.091  23.907  0.00  0.00    -0.228 OA
BRANCH   2   4
ATOM      4  O   UNL     1       9.020  -5.060  24.407  0.00  0.00    -0.303 OA
ATOM      5  H   UNL     1       9.661  -5.236  23.694  0.00  0.00    +0.222 HD
ENDBRANCH   2   4
BRANCH   2   6
ATOM      6  O   UNL     1       8.975  -3.219  25.937  0.00  0.00    -0.303 OA
ATOM      7  H   UNL     1       9.924  -3.179  26.141  0.00  0.00    +0.222 HD
ENDBRANCH   2   6
ENDBRANCH   1   2
BRANCH   1   8
ATOM      8  C   UNL     1       6.859  -5.255  24.694  0.00  0.00    +0.173 C 
BRANCH   8   9
ATOM      9  C   UNL     1       5.945  -5.701  25.823  0.00  0.00    +0.043 C 
BRANCH   9  10
ATOM     10  C   UNL     1       6.525  -5.391  27.201  0.00  0.00    +0.080 C 
BRANCH  10  11
ATOM     11  N   UNL     1       7.939  -5.728  27.283  0.00  0.00    -0.330 NA
ATOM     12  H   UNL     1       8.176  -5.996  28.240  0.00  0.00    +0.118 HD
ATOM     13  H   UNL     1       8.132  -6.546  26.706  0.00  0.00    +0.118 HD
ENDBRANCH  10  11
ENDBRANCH   9  10
ENDBRANCH   8   9
ENDBRANCH   1   8
TORSDOF 7
ENDMDL
MODEL 9
REMARK VINA RESULT:      -3.3      3.108      4.235
REMARK  Name = 
REMARK  7 active torsions:
REMARK  status: ('A' for Active; 'I' for Inactive)
REMARK    1  A    between atoms: N_1  and  C_2
REMARK    2  A    between atoms: C_2  and  C_3
REMARK    3  A    between atoms: C_3  and  C_4
REMARK    4  A    between atoms: C_4  and  O_5
REMARK    5  A    between atoms: O_5  and  P_6
REMARK    6  A    between atoms: P_6  and  O_7
REMARK    7  A    between atoms: P_6  and  O_8
REMARK                            x       y       z     vdW  Elec       q    Type
REMARK                         _______ _______ _______ _____ _____    ______ ____
ROOT
ATOM      1  O   UNL     1       8.487  -2.784  24.222  0.00  0.00    -0.287 OA
ENDROOT
BRANCH   1   2
ATOM      2  P   UNL     1       9.406  -1.560  23.417  0.00  0.00    +0.472 P 
ATOM      3  O   UNL     1      10.229  -0.464  22.695  0.00  0.00    -0.228 OA
BRANCH   2   4
ATOM      4  O   UNL     1       8.624  -2.030  22.058  0.00  0.00    -0.303 OA
ATOM      5  H   UNL     1       7.905  -2.615  22.361  0.00  0.00    +0.222 HD
ENDBRANCH   2   4
BRANCH   2   6
ATOM      6  O   UNL     1      10.556  -2.721  23.291  0.00  0.00    -0.303 OA
ATOM      7  H   UNL     1      10.810  -2.865  22.364  0.00  0.00    +0.222 HD
ENDBRANCH   2   6
ENDBRANCH   1   2
BRANCH   1   8
ATOM      8  C   UNL     1       7.921  -3.711  23.296  0.00  0.00    +0.173 C 
BRANCH   8   9
ATOM      9  C   UNL     1       8.015  -5.115  23.871  0.00  0.00    +0.043 C 
BRANCH   9  10
ATOM     10  C   UNL     1       8.760  -5.153  25.203  0.00  0.00    +0.080 C 
BRANCH  10  11
ATOM     11  N   UNL     1      10.203  -5.215  25.016  0.00  0.00    -0.330 NA
ATOM     12  H   UNL     1      10.440  -6.003  24.412  0.00  0.00    +0.118 HD
ATOM     13  H   UNL     1      10.523  -4.379  24.529  0.00  0.00    +0.118 HD
ENDBRANCH  10  11
ENDBRANCH   9  10
ENDBRANCH   8   9
ENDBRANCH   1   8
TORSDOF 7
ENDMDL
