MODEL 1
REMARK VINA RESULT:      -5.9      0.000      0.000
REMARK  Name = 
REMARK  2 active torsions:
REMARK  status: ('A' for Active; 'I' for Inactive)
REMARK    1  A    between atoms: C_2  and  C_10
REMARK    2  A    between atoms: N_3  and  C_4
REMARK                            x       y       z     vdW  Elec       q    Type
REMARK                         _______ _______ _______ _____ _____    ______ ____
ROOT
ATOM      1  O   UNL     1       7.655  -1.682  24.772  0.00  0.00    -0.268 OA
ATOM      2  C   UNL     1       8.748  -2.233  24.691  0.00  0.00    +0.268 C 
ATOM      3  N   UNL     1       9.898  -1.689  24.144  0.00  0.00    -0.280 N 
ATOM      4  H   UNL     1      10.668  -2.345  24.051  0.00  0.00    +0.155 HD
ENDROOT
BRANCH   2   5
ATOM      5  C   UNL     1       8.925  -3.614  25.169  0.00  0.00    +0.147 A 
ATOM      6  C   UNL     1       8.114  -4.267  26.136  0.00  0.00    +0.054 A 
ATOM      7  C   UNL     1       8.653  -5.520  26.280  0.00  0.00    +0.105 A 
ATOM      8  N   UNL     1       9.718  -5.566  25.432  0.00  0.00    -0.284 N 
ATOM      9  H   UNL     1      10.361  -6.338  25.282  0.00  0.00    +0.188 HD
ATOM     10  N   UNL     1       9.903  -4.433  24.727  0.00  0.00    -0.169 NA
ENDBRANCH   2   5
BRANCH   3  11
ATOM     11  C   UNL     1      10.048  -0.385  23.638  0.00  0.00    +0.034 A 
ATOM     12  C   UNL     1       9.715  -0.142  22.300  0.00  0.00    +0.023 A 
ATOM     13  C   UNL     1       9.809   1.149  21.768  0.00  0.00    +0.002 A 
ATOM     14  C   UNL     1      10.264   2.202  22.559  0.00  0.00    +0.000 A 
ATOM     15  C   UNL     1      10.631   1.964  23.879  0.00  0.00    +0.002 A 
ATOM     16  C   UNL     1      10.524   0.679  24.415  0.00  0.00    +0.023 A 
ENDBRANCH   3  11
TORSDOF 2
ENDMDL
MODEL 2
REMARK VINA RESULT:      -5.8      2.979      3.132
REMARK  Name = 
REMARK  2 active torsions:
REMARK  status: ('A' for Active; 'I' for Inactive)
REMARK    1  A    between atoms: C_2  and  C_10
REMARK    2  A    between atoms: N_3  and  C_4
REMARK                            x       y       z     vdW  Elec       q    Type
REMARK                         _______ _______ _______ _____ _____    ______ ____
ROOT
ATOM      1  O   UNL     1       6.377  -1.880  23.012  0.00  0.00    -0.268 OA
ATOM      2  C   UNL     1       7.231  -2.619  22.535  0.00  0.00    +0.268 C 
ATOM      3  N   UNL     1       8.555  -2.289  22.294  0.00  0.00    -0.280 N 
ATOM      4  H   UNL     1       9.074  -2.992  21.776  0.00  0.00    +0.155 HD
ENDROOT
BRANCH   2   5
ATOM      5  C   UNL     1       6.886  -3.990  22.122  0.00  0.00    +0.147 A 
ATOM      6  C   UNL     1       7.452  -5.181  22.650  0.00  0.00    +0.054 A 
ATOM      7  C   UNL     1       6.851  -6.206  21.966  0.00  0.00    +0.105 A 
ATOM      8  N   UNL     1       5.988  -5.615  21.094  0.00  0.00    -0.284 N 
ATOM      9  H   UNL     1       5.380  -6.067  20.417  0.00  0.00    +0.188 HD
ATOM     10  N   UNL     1       5.969  -4.270  21.172  0.00  0.00    -0.169 NA
ENDBRANCH   2   5
BRANCH   3  11
ATOM     11  C   UNL     1       9.184  -1.071  22.611  0.00  0.00    +0.034 A 
ATOM     12  C   UNL     1       9.263  -0.081  21.625  0.00  0.00    +0.023 A 
ATOM     13  C   UNL     1       9.843   1.160  21.909  0.00  0.00    +0.002 A 
ATOM     14  C   UNL     1      10.376   1.412  23.173  0.00  0.00    +0.000 A 
ATOM     15  C   UNL     1      10.334   0.422  24.148  0.00  0.00    +0.002 A 
ATOM     16  C   UNL     1       9.742  -0.812  23.870  0.00  0.00    +0.023 A 
ENDBRANCH   3  11
TORSDOF 2
ENDMDL
MODEL 3
REMARK VINA RESULT:      -5.6      2.750      5.983
REMARK  Name = 
REMARK  2 active torsions:
REMARK  status: ('A' for Active; 'I' for Inactive)
REMARK    1  A    between atoms: C_2  and  C_10
REMARK    2  A    between atoms: N_3  and  C_4
REMARK                            x       y       z     vdW  Elec       q    Type
REMARK                         _______ _______ _______ _____ _____    ______ ____
ROOT
ATOM      1  O   UNL     1      10.734  -1.798  22.238  0.00  0.00    -0.268 OA
ATOM      2  C   UNL     1       9.803  -1.068  22.562  0.00  0.00    +0.268 C 
ATOM      3  N   UNL     1       8.520  -1.476  22.888  0.00  0.00    -0.280 N 
ATOM      4  H   UNL     1       7.856  -0.717  23.003  0.00  0.00    +0.155 HD
ENDROOT
BRANCH   2   5
ATOM      5  C   UNL     1       9.979   0.393  22.599  0.00  0.00    +0.147 A 
ATOM      6  C   UNL     1      10.471   1.141  23.702  0.00  0.00    +0.054 A 
ATOM      7  C   UNL     1      10.447   2.451  23.296  0.00  0.00    +0.105 A 
ATOM      8  N   UNL     1       9.961   2.437  22.024  0.00  0.00    -0.284 N 
ATOM      9  H   UNL     1       9.795   3.231  21.413  0.00  0.00    +0.188 HD
ATOM     10  N   UNL     1       9.682   1.203  21.560  0.00  0.00    -0.169 NA
ENDBRANCH   2   5
BRANCH   3  11
ATOM     11  C   UNL     1       8.061  -2.804  22.972  0.00  0.00    +0.034 A 
ATOM     12  C   UNL     1       7.111  -3.244  22.044  0.00  0.00    +0.023 A 
ATOM     13  C   UNL     1       6.657  -4.568  22.066  0.00  0.00    +0.002 A 
ATOM     14  C   UNL     1       7.128  -5.455  23.033  0.00  0.00    +0.000 A 
ATOM     15  C   UNL     1       8.046  -5.016  23.981  0.00  0.00    +0.002 A 
ATOM     16  C   UNL     1       8.510  -3.700  23.951  0.00  0.00    +0.023 A 
ENDBRANCH   3  11
TORSDOF 2
ENDMDL
MODEL 4
REMARK VINA RESULT:      -5.4      2.715      5.861
REMARK  Name = 
REMARK  2 active torsions:
REMARK  status: ('A' for Active; 'I' for Inactive)
REMARK    1  A    between atoms: C_2  and  C_10
REMARK    2  A    between atoms: N_3  and  C_4
REMARK                            x       y       z     vdW  Elec       q    Type
REMARK                         _______ _______ _______ _____ _____    ______ ____
ROOT
ATOM      1  O   UNL     1      10.095  -3.401  24.111  0.00  0.00    -0.268 OA
ATOM      2  C   UNL     1       9.308  -2.465  24.022  0.00  0.00    +0.268 C 
ATOM      3  N   UNL     1       7.981  -2.548  23.633  0.00  0.00    -0.280 N 
ATOM      4  H   UNL     1       7.528  -1.649  23.497  0.00  0.00    +0.155 HD
ENDROOT
BRANCH   2   5
ATOM      5  C   UNL     1       9.748  -1.090  24.309  0.00  0.00    +0.147 A 
ATOM      6  C   UNL     1      10.478  -0.252  23.424  0.00  0.00    +0.054 A 
ATOM      7  C   UNL     1      10.679   0.918  24.110  0.00  0.00    +0.105 A 
ATOM      8  N   UNL     1      10.090   0.742  25.326  0.00  0.00    -0.284 N 
ATOM      9  H   UNL     1      10.053   1.399  26.099  0.00  0.00    +0.188 HD
ATOM     10  N   UNL     1       9.499  -0.459  25.476  0.00  0.00    -0.169 NA
ENDBRANCH   2   5
BRANCH   3  11
ATOM     11  C   UNL     1       7.270  -3.724  23.330  0.00  0.00    +0.034 A 
ATOM     12  C   UNL     1       6.658  -4.425  24.375  0.00  0.00    +0.023 A 
ATOM     13  C   UNL     1       5.907  -5.577  24.113  0.00  0.00    +0.002 A 
ATOM     14  C   UNL     1       5.784  -6.053  22.808  0.00  0.00    +0.000 A 
ATOM     15  C   UNL     1       6.418  -5.382  21.768  0.00  0.00    +0.002 A 
ATOM     16  C   UNL     1       7.156  -4.225  22.026  0.00  0.00    +0.023 A 
ENDBRANCH   3  11
TORSDOF 2
ENDMDL
MODEL 5
REMARK VINA RESULT:      -5.3      3.229      4.589
REMARK  Name = 
REMARK  2 active torsions:
REMARK  status: ('A' for Active; 'I' for Inactive)
REMARK    1  A    between atoms: C_2  and  C_10
REMARK    2  A    between atoms: N_3  and  C_4
REMARK                            x       y       z     vdW  Elec       q    Type
REMARK                         _______ _______ _______ _____ _____    ______ ____
ROOT
ATOM      1  O   UNL     1      11.171   1.033  24.657  0.00  0.00    -0.268 OA
ATOM      2  C   UNL     1      10.480   1.145  23.651  0.00  0.00    +0.268 C 
ATOM      3  N   UNL     1      10.059   2.333  23.076  0.00  0.00    -0.280 N 
ATOM      4  H   UNL     1       9.388   2.219  22.322  0.00  0.00    +0.155 HD
ENDROOT
BRANCH   2   5
ATOM      5  C   UNL     1       9.985  -0.051  22.948  0.00  0.00    +0.147 A 
ATOM      6  C   UNL     1       9.658  -1.293  23.556  0.00  0.00    +0.054 A 
ATOM      7  C   UNL     1       9.261  -2.110  22.528  0.00  0.00    +0.105 A 
ATOM      8  N   UNL     1       9.363  -1.359  21.396  0.00  0.00    -0.284 N 
ATOM      9  H   UNL     1       9.163  -1.643  20.441  0.00  0.00    +0.188 HD
ATOM     10  N   UNL     1       9.783  -0.098  21.614  0.00  0.00    -0.169 NA
ENDBRANCH   2   5
BRANCH   3  11
ATOM     11  C   UNL     1      10.396   3.632  23.499  0.00  0.00    +0.034 A 
ATOM     12  C   UNL     1      11.708   4.079  23.307  0.00  0.00    +0.023 A 
ATOM     13  C   UNL     1      12.076   5.378  23.676  0.00  0.00    +0.002 A 
ATOM     14  C   UNL     1      11.144   6.231  24.265  0.00  0.00    +0.000 A 
ATOM     15  C   UNL     1       9.848   5.782  24.492  0.00  0.00    +0.002 A 
ATOM     16  C   UNL     1       9.476   4.492  24.112  0.00  0.00    +0.023 A 
ENDBRANCH   3  11
TORSDOF 2
ENDMDL
MODEL 6
REMARK VINA RESULT:      -5.3      2.258      2.723
REMARK  Name = 
REMARK  2 active torsions:
REMARK  status: ('A' for Active; 'I' for Inactive)
REMARK    1  A    between atoms: C_2  and  C_10
REMARK    2  A    between atoms: N_3  and  C_4
REMARK                            x       y       z     vdW  Elec       q    Type
REMARK                         _______ _______ _______ _____ _____    ______ ____
ROOT
ATOM      1  O   UNL     1       9.957  -2.656  23.759  0.00  0.00    -0.268 OA
ATOM      2  C   UNL     1       8.862  -2.462  23.242  0.00  0.00    +0.268 C 
ATOM      3  N   UNL     1       8.329  -1.232  22.894  0.00  0.00    -0.280 N 
ATOM      4  H   UNL     1       7.358  -1.266  22.596  0.00  0.00    +0.155 HD
ENDROOT
BRANCH   2   5
ATOM      5  C   UNL     1       7.959  -3.591  22.963  0.00  0.00    +0.147 A 
ATOM      6  C   UNL     1       6.783  -3.535  22.167  0.00  0.00    +0.054 A 
ATOM      7  C   UNL     1       6.259  -4.801  22.199  0.00  0.00    +0.105 A 
ATOM      8  N   UNL     1       7.102  -5.534  22.978  0.00  0.00    -0.284 N 
ATOM      9  H   UNL     1       7.020  -6.514  23.233  0.00  0.00    +0.188 HD
ATOM     10  N   UNL     1       8.156  -4.837  23.446  0.00  0.00    -0.169 NA
ENDBRANCH   2   5
BRANCH   3  11
ATOM     11  C   UNL     1       8.965   0.017  23.008  0.00  0.00    +0.034 A 
ATOM     12  C   UNL     1       9.008   0.635  24.263  0.00  0.00    +0.023 A 
ATOM     13  C   UNL     1       9.666   1.859  24.430  0.00  0.00    +0.002 A 
ATOM     14  C   UNL     1      10.262   2.490  23.339  0.00  0.00    +0.000 A 
ATOM     15  C   UNL     1      10.194   1.900  22.081  0.00  0.00    +0.002 A 
ATOM     16  C   UNL     1       9.550   0.672  21.916  0.00  0.00    +0.023 A 
ENDBRANCH   3  11
TORSDOF 2
ENDMDL
MODEL 7
REMARK VINA RESULT:      -5.1      1.878      6.022
REMARK  Name = 
REMARK  2 active torsions:
REMARK  status: ('A' for Active; 'I' for Inactive)
REMARK    1  A    between atoms: C_2  and  C_10
REMARK    2  A    between atoms: N_3  and  C_4
REMARK                            x       y       z     vdW  Elec       q    Type
REMARK                         _______ _______ _______ _____ _____    ______ ____
ROOT
ATOM      1  O   UNL     1      10.474  -2.475  23.132  0.00  0.00    -0.268 OA
ATOM      2  C   UNL     1       9.743  -1.599  23.581  0.00  0.00    +0.268 C 
ATOM      3  N   UNL     1       8.637  -1.795  24.392  0.00  0.00    -0.280 N 
ATOM      4  H   UNL     1       8.085  -0.958  24.556  0.00  0.00    +0.155 HD
ENDROOT
BRANCH   2   5
ATOM      5  C   UNL     1       9.979  -0.185  23.245  0.00  0.00    +0.147 A 
ATOM      6  C   UNL     1       9.791   0.406  21.967  0.00  0.00    +0.054 A 
ATOM      7  C   UNL     1      10.146   1.722  22.117  0.00  0.00    +0.105 A 
ATOM      8  N   UNL     1      10.516   1.861  23.421  0.00  0.00    -0.284 N 
ATOM      9  H   UNL     1      10.850   2.700  23.886  0.00  0.00    +0.188 HD
ATOM     10  N   UNL     1      10.411   0.728  24.141  0.00  0.00    -0.169 NA
ENDBRANCH   2   5
BRANCH   3  11
ATOM     11  C   UNL     1       8.183  -3.023  24.905  0.00  0.00    +0.034 A 
ATOM     12  C   UNL     1       8.558  -3.388  26.203  0.00  0.00    +0.023 A 
ATOM     13  C   UNL     1       8.094  -4.582  26.767  0.00  0.00    +0.002 A 
ATOM     14  C   UNL     1       7.276  -5.436  26.029  0.00  0.00    +0.000 A 
ATOM     15  C   UNL     1       6.928  -5.099  24.726  0.00  0.00    +0.002 A 
ATOM     16  C   UNL     1       7.377  -3.901  24.167  0.00  0.00    +0.023 A 
ENDBRANCH   3  11
TORSDOF 2
ENDMDL
MODEL 8
REMARK VINA RESULT:      -5.1      2.749      4.162
REMARK  Name = 
REMARK  2 active torsions:
REMARK  status: ('A' for Active; 'I' for Inactive)
REMARK    1  A    between atoms: C_2  and  C_10
REMARK    2  A    between atoms: N_3  and  C_4
REMARK                            x       y       z     vdW  Elec       q    Type
REMARK                         _______ _______ _______ _____ _____    ______ ____
ROOT
ATOM      1  O   UNL     1       9.481   1.532  21.671  0.00  0.00    -0.268 OA
ATOM      2  C   UNL     1       9.876   1.177  22.776  0.00  0.00    +0.268 C 
ATOM      3  N   UNL     1      10.374   2.003  23.770  0.00  0.00    -0.280 N 
ATOM      4  H   UNL     1      10.770   1.510  24.565  0.00  0.00    +0.155 HD
ENDROOT
BRANCH   2   5
ATOM      5  C   UNL     1       9.883  -0.249  23.143  0.00  0.00    +0.147 A 
ATOM      6  C   UNL     1       9.473  -0.785  24.393  0.00  0.00    +0.054 A 
ATOM      7  C   UNL     1       9.665  -2.139  24.291  0.00  0.00    +0.105 A 
ATOM      8  N   UNL     1      10.161  -2.351  23.040  0.00  0.00    -0.284 N 
ATOM      9  H   UNL     1      10.433  -3.236  22.620  0.00  0.00    +0.188 HD
ATOM     10  N   UNL     1      10.291  -1.228  22.307  0.00  0.00    -0.169 NA
ENDBRANCH   2   5
BRANCH   3  11
ATOM     11  C   UNL     1      10.461   3.407  23.726  0.00  0.00    +0.034 A 
ATOM     12  C   UNL     1       9.326   4.159  24.050  0.00  0.00    +0.023 A 
ATOM     13  C   UNL     1       9.380   5.557  24.059  0.00  0.00    +0.002 A 
ATOM     14  C   UNL     1      10.559   6.216  23.715  0.00  0.00    +0.000 A 
ATOM     15  C   UNL     1      11.681   5.477  23.357  0.00  0.00    +0.002 A 
ATOM     16  C   UNL     1      11.633   4.082  23.362  0.00  0.00    +0.023 A 
ENDBRANCH   3  11
TORSDOF 2
ENDMDL
MODEL 9
REMARK VINA RESULT:      -5.0      3.571      6.871
REMARK  Name = 
REMARK  2 active torsions:
REMARK  status: ('A' for Active; 'I' for Inactive)
REMARK    1  A    between atoms: C_2  and  C_10
REMARK    2  A    between atoms: N_3  and  C_4
REMARK                            x       y       z     vdW  Elec       q    Type
REMARK                         _______ _______ _______ _____ _____    ______ ____
ROOT
ATOM      1  O   UNL     1       8.856   2.594  24.560  0.00  0.00    -0.268 OA
ATOM      2  C   UNL     1       9.850   2.719  23.854  0.00  0.00    +0.268 C 
ATOM      3  N   UNL     1      10.476   1.712  23.137  0.00  0.00    -0.280 N 
ATOM      4  H   UNL     1      11.359   1.985  22.716  0.00  0.00    +0.155 HD
ENDROOT
BRANCH   2   5
ATOM      5  C   UNL     1      10.518   4.026  23.730  0.00  0.00    +0.147 A 
ATOM      6  C   UNL     1      11.858   4.236  23.309  0.00  0.00    +0.054 A 
ATOM      7  C   UNL     1      12.050   5.592  23.362  0.00  0.00    +0.105 A 
ATOM      8  N   UNL     1      10.871   6.118  23.793  0.00  0.00    -0.284 N 
ATOM      9  H   UNL     1      10.650   7.096  23.962  0.00  0.00    +0.188 HD
ATOM     10  N   UNL     1       9.910   5.199  24.011  0.00  0.00    -0.169 NA
ENDBRANCH   2   5
BRANCH   3  11
ATOM     11  C   UNL     1      10.055   0.374  23.033  0.00  0.00    +0.034 A 
ATOM     12  C   UNL     1      10.133  -0.443  24.167  0.00  0.00    +0.023 A 
ATOM     13  C   UNL     1       9.686  -1.769  24.119  0.00  0.00    +0.002 A 
ATOM     14  C   UNL     1       9.184  -2.297  22.930  0.00  0.00    +0.000 A 
ATOM     15  C   UNL     1       9.135  -1.503  21.790  0.00  0.00    +0.002 A 
ATOM     16  C   UNL     1       9.568  -0.176  21.840  0.00  0.00    +0.023 A 
ENDBRANCH   3  11
TORSDOF 2
ENDMDL
