MODEL 1
REMARK VINA RESULT:      -5.0      0.000      0.000
REMARK  Name = 
REMARK  7 active torsions:
REMARK  status: ('A' for Active; 'I' for Inactive)
REMARK    1  A    between atoms: C_1  and  C_2
REMARK    2  A    between atoms: C_2  and  N_3
REMARK    3  A    between atoms: N_3  and  C_4
REMARK    4  A    between atoms: C_4  and  C_5
REMARK    5  A    between atoms: C_5  and  O_6
REMARK    6  A    between atoms: C_5  and  C_7
REMARK    7  A    between atoms: C_9  and  O_10
REMARK                            x       y       z     vdW  Elec       q    Type
REMARK                         _______ _______ _______ _____ _____    ______ ____
ROOT
ATOM      1  C   UNL     1       9.885   2.193  23.741  0.00  0.00    +0.158 C 
ENDROOT
BRANCH   1   2
ATOM      2  C   UNL     1      10.565   3.551  23.690  0.00  0.00    -0.014 A 
ATOM      3  C   UNL     1       9.843   4.738  23.913  0.00  0.00    +0.006 A 
ATOM      4  C   UNL     1      10.482   5.980  23.872  0.00  0.00    +0.004 A 
ATOM      5  C   UNL     1      11.845   6.055  23.613  0.00  0.00    +0.045 A 
ATOM      6  C   UNL     1      12.567   4.888  23.395  0.00  0.00    +0.117 A 
ATOM      7  C   UNL     1      11.942   3.642  23.428  0.00  0.00    +0.051 A 
BRANCH   6   8
ATOM      8  O   UNL     1      13.904   5.009  23.155  0.00  0.00    -0.507 OA
ATOM      9  H   UNL     1      14.034   5.233  22.219  0.00  0.00    +0.292 HD
ENDBRANCH   6   8
ENDBRANCH   1   2
BRANCH   1  10
ATOM     10  O   UNL     1      10.501   1.355  24.730  0.00  0.00    -0.386 OA
ATOM     11  H   UNL     1      11.194   0.832  24.296  0.00  0.00    +0.210 HD
ENDBRANCH   1  10
BRANCH   1  12
ATOM     12  C   UNL     1       9.930   1.467  22.374  0.00  0.00    +0.117 C 
BRANCH  12  13
ATOM     13  N   UNL     1       9.047   2.119  21.393  0.00  0.00    -0.313 NA
ATOM     14  H   UNL     1       9.268   3.118  21.384  0.00  0.00    +0.122 HD
BRANCH  13  16
ATOM     15  C   UNL     1       6.951   3.240  21.963  0.00  0.00    +0.020 C 
ATOM     16  C   UNL     1       7.643   1.906  21.731  0.00  0.00    +0.077 C 
ENDBRANCH  13  16
ENDBRANCH  12  13
ENDBRANCH   1  12
TORSDOF 6
ENDMDL
MODEL 2
REMARK VINA RESULT:      -5.0      4.447      5.780
REMARK  Name = 
REMARK  7 active torsions:
REMARK  status: ('A' for Active; 'I' for Inactive)
REMARK    1  A    between atoms: C_1  and  C_2
REMARK    2  A    between atoms: C_2  and  N_3
REMARK    3  A    between atoms: N_3  and  C_4
REMARK    4  A    between atoms: C_4  and  C_5
REMARK    5  A    between atoms: C_5  and  O_6
REMARK    6  A    between atoms: C_5  and  C_7
REMARK    7  A    between atoms: C_9  and  O_10
REMARK                            x       y       z     vdW  Elec       q    Type
REMARK                         _______ _______ _______ _____ _____    ______ ____
ROOT
ATOM      1  C   UNL     1       9.245  -2.323  23.008  0.00  0.00    +0.158 C 
ENDROOT
BRANCH   1   2
ATOM      2  C   UNL     1       9.675  -0.887  23.257  0.00  0.00    -0.014 A 
ATOM      3  C   UNL     1      10.110  -0.465  24.527  0.00  0.00    +0.006 A 
ATOM      4  C   UNL     1      10.512   0.856  24.742  0.00  0.00    +0.004 A 
ATOM      5  C   UNL     1      10.490   1.770  23.695  0.00  0.00    +0.045 A 
ATOM      6  C   UNL     1      10.067   1.361  22.436  0.00  0.00    +0.117 A 
ATOM      7  C   UNL     1       9.657   0.048  22.208  0.00  0.00    +0.051 A 
BRANCH   6   8
ATOM      8  O   UNL     1      10.071   2.290  21.438  0.00  0.00    -0.507 OA
ATOM      9  H   UNL     1       9.408   2.970  21.639  0.00  0.00    +0.292 HD
ENDBRANCH   6   8
ENDBRANCH   1   2
BRANCH   1  10
ATOM     10  O   UNL     1       8.054  -2.363  22.207  0.00  0.00    -0.386 OA
ATOM     11  H   UNL     1       7.729  -3.278  22.192  0.00  0.00    +0.210 HD
ENDBRANCH   1  10
BRANCH   1  12
ATOM     12  C   UNL     1       8.984  -3.090  24.327  0.00  0.00    +0.117 C 
BRANCH  12  13
ATOM     13  N   UNL     1       9.956  -4.181  24.512  0.00  0.00    -0.313 NA
ATOM     14  H   UNL     1      10.134  -4.603  23.596  0.00  0.00    +0.122 HD
BRANCH  13  16
ATOM     15  C   UNL     1       8.689  -4.499  26.577  0.00  0.00    +0.020 C 
ATOM     16  C   UNL     1       9.450  -5.178  25.450  0.00  0.00    +0.077 C 
ENDBRANCH  13  16
ENDBRANCH  12  13
ENDBRANCH   1  12
TORSDOF 6
ENDMDL
MODEL 3
REMARK VINA RESULT:      -4.9      8.012      9.482
REMARK  Name = 
REMARK  7 active torsions:
REMARK  status: ('A' for Active; 'I' for Inactive)
REMARK    1  A    between atoms: C_1  and  C_2
REMARK    2  A    between atoms: C_2  and  N_3
REMARK    3  A    between atoms: N_3  and  C_4
REMARK    4  A    between atoms: C_4  and  C_5
REMARK    5  A    between atoms: C_5  and  O_6
REMARK    6  A    between atoms: C_5  and  C_7
REMARK    7  A    between atoms: C_9  and  O_10
REMARK                            x       y       z     vdW  Elec       q    Type
REMARK                         _______ _______ _______ _____ _____    ______ ____
ROOT
ATOM      1  C   UNL     1       9.290  -4.661  25.186  0.00  0.00    +0.158 C 
ENDROOT
BRANCH   1   2
ATOM      2  C   UNL     1       8.230  -4.431  24.121  0.00  0.00    -0.014 A 
ATOM      3  C   UNL     1       7.814  -5.469  23.268  0.00  0.00    +0.006 A 
ATOM      4  C   UNL     1       6.833  -5.247  22.298  0.00  0.00    +0.004 A 
ATOM      5  C   UNL     1       6.250  -3.991  22.172  0.00  0.00    +0.045 A 
ATOM      6  C   UNL     1       6.651  -2.961  23.014  0.00  0.00    +0.117 A 
ATOM      7  C   UNL     1       7.633  -3.167  23.981  0.00  0.00    +0.051 A 
BRANCH   6   8
ATOM      8  O   UNL     1       6.044  -1.749  22.859  0.00  0.00    -0.507 OA
ATOM      9  H   UNL     1       5.129  -1.892  22.568  0.00  0.00    +0.292 HD
ENDBRANCH   6   8
ENDBRANCH   1   2
BRANCH   1  10
ATOM     10  O   UNL     1       9.813  -5.995  25.099  0.00  0.00    -0.386 OA
ATOM     11  H   UNL     1      10.752  -5.969  25.345  0.00  0.00    +0.210 HD
ENDBRANCH   1  10
BRANCH   1  12
ATOM     12  C   UNL     1       8.739  -4.435  26.615  0.00  0.00    +0.117 C 
BRANCH  12  13
ATOM     13  N   UNL     1       8.080  -5.647  27.132  0.00  0.00    -0.313 NA
ATOM     14  H   UNL     1       8.147  -6.373  26.413  0.00  0.00    +0.122 HD
BRANCH  13  16
ATOM     15  C   UNL     1       5.770  -5.961  26.400  0.00  0.00    +0.020 C 
ATOM     16  C   UNL     1       6.685  -5.381  27.467  0.00  0.00    +0.077 C 
ENDBRANCH  13  16
ENDBRANCH  12  13
ENDBRANCH   1  12
TORSDOF 6
ENDMDL
MODEL 4
REMARK VINA RESULT:      -4.9      2.306      5.304
REMARK  Name = 
REMARK  7 active torsions:
REMARK  status: ('A' for Active; 'I' for Inactive)
REMARK    1  A    between atoms: C_1  and  C_2
REMARK    2  A    between atoms: C_2  and  N_3
REMARK    3  A    between atoms: N_3  and  C_4
REMARK    4  A    between atoms: C_4  and  C_5
REMARK    5  A    between atoms: C_5  and  O_6
REMARK    6  A    between atoms: C_5  and  C_7
REMARK    7  A    between atoms: C_9  and  O_10
REMARK                            x       y       z     vdW  Elec       q    Type
REMARK                         _______ _______ _______ _____ _____    ______ ____
ROOT
ATOM      1  C   UNL     1      10.397   2.066  24.209  0.00  0.00    +0.158 C 
ENDROOT
BRANCH   1   2
ATOM      2  C   UNL     1      10.109   0.814  23.396  0.00  0.00    -0.014 A 
ATOM      3  C   UNL     1       9.691   0.894  22.055  0.00  0.00    +0.006 A 
ATOM      4  C   UNL     1       9.438  -0.263  21.316  0.00  0.00    +0.004 A 
ATOM      5  C   UNL     1       9.603  -1.514  21.900  0.00  0.00    +0.045 A 
ATOM      6  C   UNL     1      10.019  -1.603  23.223  0.00  0.00    +0.117 A 
ATOM      7  C   UNL     1      10.269  -0.456  23.975  0.00  0.00    +0.051 A 
BRANCH   6   8
ATOM      8  O   UNL     1      10.176  -2.851  23.751  0.00  0.00    -0.507 OA
ATOM      9  H   UNL     1       9.429  -3.405  23.471  0.00  0.00    +0.292 HD
ENDBRANCH   6   8
ENDBRANCH   1   2
BRANCH   1  10
ATOM     10  O   UNL     1       9.216   2.506  24.896  0.00  0.00    -0.386 OA
ATOM     11  H   UNL     1       8.995   3.397  24.578  0.00  0.00    +0.210 HD
ENDBRANCH   1  10
BRANCH   1  12
ATOM     12  C   UNL     1      10.922   3.225  23.327  0.00  0.00    +0.117 C 
BRANCH  12  13
ATOM     13  N   UNL     1      10.080   4.425  23.466  0.00  0.00    -0.313 NA
ATOM     14  H   UNL     1       9.559   4.547  22.593  0.00  0.00    +0.122 HD
BRANCH  13  16
ATOM     15  C   UNL     1      12.360   5.302  23.494  0.00  0.00    +0.020 C 
ATOM     16  C   UNL     1      10.892   5.604  23.750  0.00  0.00    +0.077 C 
ENDBRANCH  13  16
ENDBRANCH  12  13
ENDBRANCH   1  12
TORSDOF 6
ENDMDL
MODEL 5
REMARK VINA RESULT:      -4.8      6.731      8.416
REMARK  Name = 
REMARK  7 active torsions:
REMARK  status: ('A' for Active; 'I' for Inactive)
REMARK    1  A    between atoms: C_1  and  C_2
REMARK    2  A    between atoms: C_2  and  N_3
REMARK    3  A    between atoms: N_3  and  C_4
REMARK    4  A    between atoms: C_4  and  C_5
REMARK    5  A    between atoms: C_5  and  O_6
REMARK    6  A    between atoms: C_5  and  C_7
REMARK    7  A    between atoms: C_9  and  O_10
REMARK                            x       y       z     vdW  Elec       q    Type
REMARK                         _______ _______ _______ _____ _____    ______ ____
ROOT
ATOM      1  C   UNL     1       9.239  -4.663  25.575  0.00  0.00    +0.158 C 
ENDROOT
BRANCH   1   2
ATOM      2  C   UNL     1       8.993  -3.763  24.375  0.00  0.00    -0.014 A 
ATOM      3  C   UNL     1       7.879  -3.951  23.537  0.00  0.00    +0.006 A 
ATOM      4  C   UNL     1       7.659  -3.112  22.442  0.00  0.00    +0.004 A 
ATOM      5  C   UNL     1       8.541  -2.072  22.172  0.00  0.00    +0.045 A 
ATOM      6  C   UNL     1       9.642  -1.875  22.997  0.00  0.00    +0.117 A 
ATOM      7  C   UNL     1       9.877  -2.709  24.090  0.00  0.00    +0.051 A 
BRANCH   6   8
ATOM      8  O   UNL     1      10.475  -0.837  22.699  0.00  0.00    -0.507 OA
ATOM      9  H   UNL     1      11.089  -0.706  23.440  0.00  0.00    +0.292 HD
ENDBRANCH   6   8
ENDBRANCH   1   2
BRANCH   1  10
ATOM     10  O   UNL     1      10.321  -5.569  25.315  0.00  0.00    -0.386 OA
ATOM     11  H   UNL     1      10.339  -5.756  24.363  0.00  0.00    +0.210 HD
ENDBRANCH   1  10
BRANCH   1  12
ATOM     12  C   UNL     1       7.982  -5.484  25.954  0.00  0.00    +0.117 C 
BRANCH  12  13
ATOM     13  N   UNL     1       7.885  -5.670  27.411  0.00  0.00    -0.313 NA
ATOM     14  H   UNL     1       8.338  -6.557  27.647  0.00  0.00    +0.122 HD
BRANCH  13  16
ATOM     15  C   UNL     1       5.576  -5.977  26.672  0.00  0.00    +0.020 C 
ATOM     16  C   UNL     1       6.492  -5.671  27.847  0.00  0.00    +0.077 C 
ENDBRANCH  13  16
ENDBRANCH  12  13
ENDBRANCH   1  12
TORSDOF 6
ENDMDL
MODEL 6
REMARK VINA RESULT:      -4.8      2.533      4.833
REMARK  Name = 
REMARK  7 active torsions:
REMARK  status: ('A' for Active; 'I' for Inactive)
REMARK    1  A    between atoms: C_1  and  C_2
REMARK    2  A    between atoms: C_2  and  N_3
REMARK    3  A    between atoms: N_3  and  C_4
REMARK    4  A    between atoms: C_4  and  C_5
REMARK    5  A    between atoms: C_5  and  O_6
REMARK    6  A    between atoms: C_5  and  C_7
REMARK    7  A    between atoms: C_9  and  O_10
REMARK                            x       y       z     vdW  Elec       q    Type
REMARK                         _______ _______ _______ _____ _____    ______ ____
ROOT
ATOM      1  C   UNL     1       8.474   3.566  23.384  0.00  0.00    +0.158 C 
ENDROOT
BRANCH   1   2
ATOM      2  C   UNL     1       9.181   2.223  23.307  0.00  0.00    -0.014 A 
ATOM      3  C   UNL     1       9.949   1.740  24.381  0.00  0.00    +0.006 A 
ATOM      4  C   UNL     1      10.588   0.500  24.301  0.00  0.00    +0.004 A 
ATOM      5  C   UNL     1      10.464  -0.275  23.154  0.00  0.00    +0.045 A 
ATOM      6  C   UNL     1       9.702   0.192  22.089  0.00  0.00    +0.117 A 
ATOM      7  C   UNL     1       9.065   1.430  22.153  0.00  0.00    +0.051 A 
BRANCH   6   8
ATOM      8  O   UNL     1       9.602  -0.607  20.989  0.00  0.00    -0.507 OA
ATOM      9  H   UNL     1       8.712  -0.510  20.612  0.00  0.00    +0.292 HD
ENDBRANCH   6   8
ENDBRANCH   1   2
BRANCH   1  10
ATOM     10  O   UNL     1       8.211   4.078  22.069  0.00  0.00    -0.386 OA
ATOM     11  H   UNL     1       8.821   3.647  21.448  0.00  0.00    +0.210 HD
ENDBRANCH   1  10
BRANCH   1  12
ATOM     12  C   UNL     1       9.299   4.614  24.170  0.00  0.00    +0.117 C 
BRANCH  12  13
ATOM     13  N   UNL     1       9.941   5.580  23.262  0.00  0.00    -0.313 NA
ATOM     14  H   UNL     1       9.873   5.210  22.310  0.00  0.00    +0.122 HD
BRANCH  13  16
ATOM     15  C   UNL     1      12.172   4.585  23.258  0.00  0.00    +0.020 C 
ATOM     16  C   UNL     1      11.335   5.798  23.632  0.00  0.00    +0.077 C 
ENDBRANCH  13  16
ENDBRANCH  12  13
ENDBRANCH   1  12
TORSDOF 6
ENDMDL
MODEL 7
REMARK VINA RESULT:      -4.8      2.060      2.665
REMARK  Name = 
REMARK  7 active torsions:
REMARK  status: ('A' for Active; 'I' for Inactive)
REMARK    1  A    between atoms: C_1  and  C_2
REMARK    2  A    between atoms: C_2  and  N_3
REMARK    3  A    between atoms: N_3  and  C_4
REMARK    4  A    between atoms: C_4  and  C_5
REMARK    5  A    between atoms: C_5  and  O_6
REMARK    6  A    between atoms: C_5  and  C_7
REMARK    7  A    between atoms: C_9  and  O_10
REMARK                            x       y       z     vdW  Elec       q    Type
REMARK                         _______ _______ _______ _____ _____    ______ ____
ROOT
ATOM      1  C   UNL     1      10.256   2.116  22.939  0.00  0.00    +0.158 C 
ENDROOT
BRANCH   1   2
ATOM      2  C   UNL     1      10.497   3.547  23.391  0.00  0.00    -0.014 A 
ATOM      3  C   UNL     1       9.448   4.343  23.885  0.00  0.00    +0.006 A 
ATOM      4  C   UNL     1       9.684   5.654  24.305  0.00  0.00    +0.004 A 
ATOM      5  C   UNL     1      10.966   6.186  24.243  0.00  0.00    +0.045 A 
ATOM      6  C   UNL     1      12.010   5.406  23.760  0.00  0.00    +0.117 A 
ATOM      7  C   UNL     1      11.788   4.097  23.332  0.00  0.00    +0.051 A 
BRANCH   6   8
ATOM      8  O   UNL     1      13.252   5.967  23.727  0.00  0.00    -0.507 OA
ATOM      9  H   UNL     1      13.915   5.269  23.859  0.00  0.00    +0.292 HD
ENDBRANCH   6   8
ENDBRANCH   1   2
BRANCH   1  10
ATOM     10  O   UNL     1       9.783   2.085  21.584  0.00  0.00    -0.386 OA
ATOM     11  H   UNL     1       8.814   2.032  21.602  0.00  0.00    +0.210 HD
ENDBRANCH   1  10
BRANCH   1  12
ATOM     12  C   UNL     1       9.230   1.386  23.841  0.00  0.00    +0.117 C 
BRANCH  12  13
ATOM     13  N   UNL     1       9.870   0.857  25.057  0.00  0.00    -0.313 NA
ATOM     14  H   UNL     1      10.878   0.805  24.887  0.00  0.00    +0.122 HD
BRANCH  13  16
ATOM     15  C   UNL     1       9.697  -1.466  24.317  0.00  0.00    +0.020 C 
ATOM     16  C   UNL     1       9.338  -0.459  25.398  0.00  0.00    +0.077 C 
ENDBRANCH  13  16
ENDBRANCH  12  13
ENDBRANCH   1  12
TORSDOF 6
ENDMDL
MODEL 8
REMARK VINA RESULT:      -4.7      4.201      5.507
REMARK  Name = 
REMARK  7 active torsions:
REMARK  status: ('A' for Active; 'I' for Inactive)
REMARK    1  A    between atoms: C_1  and  C_2
REMARK    2  A    between atoms: C_2  and  N_3
REMARK    3  A    between atoms: N_3  and  C_4
REMARK    4  A    between atoms: C_4  and  C_5
REMARK    5  A    between atoms: C_5  and  O_6
REMARK    6  A    between atoms: C_5  and  C_7
REMARK    7  A    between atoms: C_9  and  O_10
REMARK                            x       y       z     vdW  Elec       q    Type
REMARK                         _______ _______ _______ _____ _____    ______ ____
ROOT
ATOM      1  C   UNL     1       9.350  -2.088  24.390  0.00  0.00    +0.158 C 
ENDROOT
BRANCH   1   2
ATOM      2  C   UNL     1       9.625  -0.698  23.841  0.00  0.00    -0.014 A 
ATOM      3  C   UNL     1      10.423   0.220  24.547  0.00  0.00    +0.006 A 
ATOM      4  C   UNL     1      10.677   1.492  24.029  0.00  0.00    +0.004 A 
ATOM      5  C   UNL     1      10.144   1.863  22.800  0.00  0.00    +0.045 A 
ATOM      6  C   UNL     1       9.358   0.961  22.093  0.00  0.00    +0.117 A 
ATOM      7  C   UNL     1       9.092  -0.310  22.601  0.00  0.00    +0.051 A 
BRANCH   6   8
ATOM      8  O   UNL     1       8.865   1.365  20.888  0.00  0.00    -0.507 OA
ATOM      9  H   UNL     1       8.179   2.036  21.039  0.00  0.00    +0.292 HD
ENDBRANCH   6   8
ENDBRANCH   1   2
BRANCH   1  10
ATOM     10  O   UNL     1      10.283  -3.038  23.856  0.00  0.00    -0.386 OA
ATOM     11  H   UNL     1      10.855  -2.578  23.221  0.00  0.00    +0.210 HD
ENDBRANCH   1  10
BRANCH   1  12
ATOM     12  C   UNL     1       7.913  -2.567  24.067  0.00  0.00    +0.117 C 
BRANCH  12  13
ATOM     13  N   UNL     1       7.911  -3.953  23.569  0.00  0.00    -0.313 NA
ATOM     14  H   UNL     1       8.883  -4.271  23.518  0.00  0.00    +0.122 HD
BRANCH  13  16
ATOM     15  C   UNL     1       7.030  -5.491  21.887  0.00  0.00    +0.020 C 
ATOM     16  C   UNL     1       7.272  -4.037  22.260  0.00  0.00    +0.077 C 
ENDBRANCH  13  16
ENDBRANCH  12  13
ENDBRANCH   1  12
TORSDOF 6
ENDMDL
MODEL 9
REMARK VINA RESULT:      -4.6      2.523      5.106
REMARK  Name = 
REMARK  7 active torsions:
REMARK  status: ('A' for Active; 'I' for Inactive)
REMARK    1  A    between atoms: C_1  and  C_2
REMARK    2  A    between atoms: C_2  and  N_3
REMARK    3  A    between atoms: N_3  and  C_4
REMARK    4  A    between atoms: C_4  and  C_5
REMARK    5  A    between atoms: C_5  and  O_6
REMARK    6  A    between atoms: C_5  and  C_7
REMARK    7  A    between atoms: C_9  and  O_10
REMARK                            x       y       z     vdW  Elec       q    Type
REMARK                         _______ _______ _______ _____ _____    ______ ____
ROOT
ATOM      1  C   UNL     1       9.115   1.444  21.585  0.00  0.00    +0.158 C 
ENDROOT
BRANCH   1   2
ATOM      2  C   UNL     1       9.336   0.317  22.580  0.00  0.00    -0.014 A 
ATOM      3  C   UNL     1       9.613  -0.993  22.150  0.00  0.00    +0.006 A 
ATOM      4  C   UNL     1       9.824  -2.019  23.074  0.00  0.00    +0.004 A 
ATOM      5  C   UNL     1       9.766  -1.752  24.437  0.00  0.00    +0.045 A 
ATOM      6  C   UNL     1       9.497  -0.460  24.872  0.00  0.00    +0.117 A 
ATOM      7  C   UNL     1       9.279   0.573  23.961  0.00  0.00    +0.051 A 
BRANCH   6   8
ATOM      8  O   UNL     1       9.460  -0.243  26.218  0.00  0.00    -0.507 OA
ATOM      9  H   UNL     1       8.561   0.030  26.466  0.00  0.00    +0.292 HD
ENDBRANCH   6   8
ENDBRANCH   1   2
BRANCH   1  10
ATOM     10  O   UNL     1      10.237   2.339  21.576  0.00  0.00    -0.386 OA
ATOM     11  H   UNL     1      10.199   2.866  20.760  0.00  0.00    +0.210 HD
ENDBRANCH   1  10
BRANCH   1  12
ATOM     12  C   UNL     1       7.834   2.255  21.900  0.00  0.00    +0.117 C 
BRANCH  12  13
ATOM     13  N   UNL     1       8.150   3.667  22.177  0.00  0.00    -0.313 NA
ATOM     14  H   UNL     1       9.150   3.805  22.008  0.00  0.00    +0.122 HD
BRANCH  13  16
ATOM     15  C   UNL     1       9.068   4.291  24.354  0.00  0.00    +0.020 C 
ATOM     16  C   UNL     1       7.806   4.019  23.551  0.00  0.00    +0.077 C 
ENDBRANCH  13  16
ENDBRANCH  12  13
ENDBRANCH   1  12
TORSDOF 6
ENDMDL
