MODEL 1
REMARK VINA RESULT:      -5.4      0.000      0.000
REMARK  Name = 
REMARK  4 active torsions:
REMARK  status: ('A' for Active; 'I' for Inactive)
REMARK    1  A    between atoms: O_1  and  C_2
REMARK    2  A    between atoms: C_4  and  N_12
REMARK    3  A    between atoms: C_6  and  N_9
REMARK    4  A    between atoms: C_7  and  O_8
REMARK                            x       y       z     vdW  Elec       q    Type
REMARK                         _______ _______ _______ _____ _____    ______ ____
ROOT
ATOM      1  C   UNL     1       6.205  -5.761  25.989  0.00  0.00    +0.172 A 
ATOM      2  C   UNL     1       7.564  -5.422  25.918  0.00  0.00    +0.237 A 
ATOM      3  C   UNL     1       8.031  -4.711  24.803  0.00  0.00    +0.324 A 
ATOM      4  C   UNL     1       7.151  -4.344  23.770  0.00  0.00    +0.172 A 
ATOM      5  C   UNL     1       5.797  -4.697  23.867  0.00  0.00    +0.283 A 
ATOM      6  C   UNL     1       5.317  -5.406  24.975  0.00  0.00    +0.133 A 
ENDROOT
BRANCH   3   7
ATOM      7  N   UNL     1       9.444  -4.334  24.685  0.00  0.00    +0.084 N 
ATOM      8  O   UNL     1      10.284  -5.085  25.203  0.00  0.00    +0.042 OA
ATOM      9  O   UNL     1       9.715  -3.290  24.077  0.00  0.00    -0.576 OA
ENDBRANCH   3   7
BRANCH   5  10
ATOM     10  N   UNL     1       4.867  -4.320  22.794  0.00  0.00    +0.080 N 
ATOM     11  O   UNL     1       3.759  -4.871  22.777  0.00  0.00    +0.041 OA
ATOM     12  O   UNL     1       5.250  -3.475  21.974  0.00  0.00    -0.576 OA
ENDBRANCH   5  10
BRANCH   1  13
ATOM     13  O   UNL     1       5.754  -6.454  27.078  0.00  0.00    -0.503 OA
ATOM     14  H   UNL     1       6.383  -6.384  27.814  0.00  0.00    +0.292 HD
ENDBRANCH   1  13
BRANCH   2  15
ATOM     15  O   UNL     1       8.352  -5.819  26.968  0.00  0.00    -0.499 OA
ATOM     16  H   UNL     1       8.133  -5.317  27.780  0.00  0.00    +0.293 HD
ENDBRANCH   2  15
TORSDOF 4
ENDMDL
MODEL 2
REMARK VINA RESULT:      -5.3      1.574      3.217
REMARK  Name = 
REMARK  4 active torsions:
REMARK  status: ('A' for Active; 'I' for Inactive)
REMARK    1  A    between atoms: O_1  and  C_2
REMARK    2  A    between atoms: C_4  and  N_12
REMARK    3  A    between atoms: C_6  and  N_9
REMARK    4  A    between atoms: C_7  and  O_8
REMARK                            x       y       z     vdW  Elec       q    Type
REMARK                         _______ _______ _______ _____ _____    ______ ____
ROOT
ATOM      1  C   UNL     1       8.393  -4.831  24.667  0.00  0.00    +0.172 A 
ATOM      2  C   UNL     1       7.959  -5.202  25.948  0.00  0.00    +0.237 A 
ATOM      3  C   UNL     1       6.611  -5.543  26.137  0.00  0.00    +0.324 A 
ATOM      4  C   UNL     1       5.709  -5.512  25.059  0.00  0.00    +0.172 A 
ATOM      5  C   UNL     1       6.172  -5.136  23.790  0.00  0.00    +0.283 A 
ATOM      6  C   UNL     1       7.514  -4.794  23.586  0.00  0.00    +0.133 A 
ENDROOT
BRANCH   3   7
ATOM      7  N   UNL     1       6.110  -5.939  27.458  0.00  0.00    +0.084 N 
ATOM      8  O   UNL     1       5.394  -6.949  27.522  0.00  0.00    +0.042 OA
ATOM      9  O   UNL     1       6.430  -5.242  28.430  0.00  0.00    -0.576 OA
ENDBRANCH   3   7
BRANCH   5  10
ATOM     10  N   UNL     1       5.238  -5.099  22.656  0.00  0.00    +0.080 N 
ATOM     11  O   UNL     1       4.119  -4.608  22.852  0.00  0.00    +0.041 OA
ATOM     12  O   UNL     1       5.629  -5.562  21.576  0.00  0.00    -0.576 OA
ENDBRANCH   5  10
BRANCH   1  13
ATOM     13  O   UNL     1       9.708  -4.499  24.487  0.00  0.00    -0.503 OA
ATOM     14  H   UNL     1       9.873  -4.237  23.566  0.00  0.00    +0.292 HD
ENDBRANCH   1  13
BRANCH   2  15
ATOM     15  O   UNL     1       8.905  -5.205  26.941  0.00  0.00    -0.499 OA
ATOM     16  H   UNL     1       8.725  -5.912  27.594  0.00  0.00    +0.293 HD
ENDBRANCH   2  15
TORSDOF 4
ENDMDL
MODEL 3
REMARK VINA RESULT:      -5.2      1.794      4.078
REMARK  Name = 
REMARK  4 active torsions:
REMARK  status: ('A' for Active; 'I' for Inactive)
REMARK    1  A    between atoms: O_1  and  C_2
REMARK    2  A    between atoms: C_4  and  N_12
REMARK    3  A    between atoms: C_6  and  N_9
REMARK    4  A    between atoms: C_7  and  O_8
REMARK                            x       y       z     vdW  Elec       q    Type
REMARK                         _______ _______ _______ _____ _____    ______ ____
ROOT
ATOM      1  C   UNL     1       4.977  -6.553  24.410  0.00  0.00    +0.172 A 
ATOM      2  C   UNL     1       5.246  -5.753  23.291  0.00  0.00    +0.237 A 
ATOM      3  C   UNL     1       6.201  -4.731  23.398  0.00  0.00    +0.324 A 
ATOM      4  C   UNL     1       6.877  -4.510  24.610  0.00  0.00    +0.172 A 
ATOM      5  C   UNL     1       6.587  -5.325  25.714  0.00  0.00    +0.283 A 
ATOM      6  C   UNL     1       5.637  -6.350  25.621  0.00  0.00    +0.133 A 
ENDROOT
BRANCH   3   7
ATOM      7  N   UNL     1       6.516  -3.869  22.253  0.00  0.00    +0.084 N 
ATOM      8  O   UNL     1       7.659  -3.389  22.193  0.00  0.00    +0.042 OA
ATOM      9  O   UNL     1       5.626  -3.670  21.416  0.00  0.00    -0.576 OA
ENDBRANCH   3   7
BRANCH   5  10
ATOM     10  N   UNL     1       7.287  -5.104  26.987  0.00  0.00    +0.080 N 
ATOM     11  O   UNL     1       7.174  -5.973  27.861  0.00  0.00    +0.041 OA
ATOM     12  O   UNL     1       7.947  -4.062  27.105  0.00  0.00    -0.576 OA
ENDBRANCH   5  10
BRANCH   1  13
ATOM     13  O   UNL     1       4.045  -7.548  24.302  0.00  0.00    -0.503 OA
ATOM     14  H   UNL     1       3.885  -7.964  25.165  0.00  0.00    +0.292 HD
ENDBRANCH   1  13
BRANCH   2  15
ATOM     15  O   UNL     1       4.541  -6.037  22.149  0.00  0.00    -0.499 OA
ATOM     16  H   UNL     1       4.648  -5.326  21.485  0.00  0.00    +0.293 HD
ENDBRANCH   2  15
TORSDOF 4
ENDMDL
MODEL 4
REMARK VINA RESULT:      -5.1      1.194      3.901
REMARK  Name = 
REMARK  4 active torsions:
REMARK  status: ('A' for Active; 'I' for Inactive)
REMARK    1  A    between atoms: O_1  and  C_2
REMARK    2  A    between atoms: C_4  and  N_12
REMARK    3  A    between atoms: C_6  and  N_9
REMARK    4  A    between atoms: C_7  and  O_8
REMARK                            x       y       z     vdW  Elec       q    Type
REMARK                         _______ _______ _______ _____ _____    ______ ____
ROOT
ATOM      1  C   UNL     1       7.542  -5.339  26.232  0.00  0.00    +0.172 A 
ATOM      2  C   UNL     1       6.358  -5.780  25.625  0.00  0.00    +0.237 A 
ATOM      3  C   UNL     1       6.047  -5.330  24.333  0.00  0.00    +0.324 A 
ATOM      4  C   UNL     1       6.909  -4.448  23.657  0.00  0.00    +0.172 A 
ATOM      5  C   UNL     1       8.086  -4.023  24.289  0.00  0.00    +0.283 A 
ATOM      6  C   UNL     1       8.410  -4.465  25.578  0.00  0.00    +0.133 A 
ENDROOT
BRANCH   3   7
ATOM      7  N   UNL     1       4.819  -5.764  23.657  0.00  0.00    +0.084 N 
ATOM      8  O   UNL     1       4.359  -6.875  23.961  0.00  0.00    +0.042 OA
ATOM      9  O   UNL     1       4.316  -4.999  22.824  0.00  0.00    -0.576 OA
ENDBRANCH   3   7
BRANCH   5  10
ATOM     10  N   UNL     1       8.994  -3.101  23.593  0.00  0.00    +0.080 N 
ATOM     11  O   UNL     1       8.515  -2.393  22.697  0.00  0.00    +0.041 OA
ATOM     12  O   UNL     1      10.181  -3.090  23.946  0.00  0.00    -0.576 OA
ENDBRANCH   5  10
BRANCH   1  13
ATOM     13  O   UNL     1       7.843  -5.780  27.491  0.00  0.00    -0.503 OA
ATOM     14  H   UNL     1       7.044  -6.096  27.944  0.00  0.00    +0.292 HD
ENDBRANCH   1  13
BRANCH   2  15
ATOM     15  O   UNL     1       5.576  -6.638  26.355  0.00  0.00    -0.499 OA
ATOM     16  H   UNL     1       6.106  -7.101  27.037  0.00  0.00    +0.293 HD
ENDBRANCH   2  15
TORSDOF 4
ENDMDL
MODEL 5
REMARK VINA RESULT:      -5.1      1.818      3.589
REMARK  Name = 
REMARK  4 active torsions:
REMARK  status: ('A' for Active; 'I' for Inactive)
REMARK    1  A    between atoms: O_1  and  C_2
REMARK    2  A    between atoms: C_4  and  N_12
REMARK    3  A    between atoms: C_6  and  N_9
REMARK    4  A    between atoms: C_7  and  O_8
REMARK                            x       y       z     vdW  Elec       q    Type
REMARK                         _______ _______ _______ _____ _____    ______ ____
ROOT
ATOM      1  C   UNL     1       8.632  -4.979  26.012  0.00  0.00    +0.172 A 
ATOM      2  C   UNL     1       7.485  -5.564  26.567  0.00  0.00    +0.237 A 
ATOM      3  C   UNL     1       6.322  -5.653  25.787  0.00  0.00    +0.324 A 
ATOM      4  C   UNL     1       6.306  -5.162  24.470  0.00  0.00    +0.172 A 
ATOM      5  C   UNL     1       7.468  -4.582  23.942  0.00  0.00    +0.283 A 
ATOM      6  C   UNL     1       8.636  -4.487  24.708  0.00  0.00    +0.133 A 
ENDROOT
BRANCH   3   7
ATOM      7  N   UNL     1       5.097  -6.257  26.324  0.00  0.00    +0.084 N 
ATOM      8  O   UNL     1       4.502  -7.079  25.611  0.00  0.00    +0.042 OA
ATOM      9  O   UNL     1       4.730  -5.911  27.455  0.00  0.00    -0.576 OA
ENDBRANCH   3   7
BRANCH   5  10
ATOM     10  N   UNL     1       7.464  -4.065  22.566  0.00  0.00    +0.080 N 
ATOM     11  O   UNL     1       6.868  -4.728  21.707  0.00  0.00    +0.041 OA
ATOM     12  O   UNL     1       8.056  -2.999  22.352  0.00  0.00    -0.576 OA
ENDBRANCH   5  10
BRANCH   1  13
ATOM     13  O   UNL     1       9.765  -4.894  26.775  0.00  0.00    -0.503 OA
ATOM     14  H   UNL     1      10.144  -4.001  26.727  0.00  0.00    +0.292 HD
ENDBRANCH   1  13
BRANCH   2  15
ATOM     15  O   UNL     1       7.588  -6.015  27.857  0.00  0.00    -0.499 OA
ATOM     16  H   UNL     1       8.459  -5.783  28.242  0.00  0.00    +0.293 HD
ENDBRANCH   2  15
TORSDOF 4
ENDMDL
MODEL 6
REMARK VINA RESULT:      -5.0      5.457      7.344
REMARK  Name = 
REMARK  4 active torsions:
REMARK  status: ('A' for Active; 'I' for Inactive)
REMARK    1  A    between atoms: O_1  and  C_2
REMARK    2  A    between atoms: C_4  and  N_12
REMARK    3  A    between atoms: C_6  and  N_9
REMARK    4  A    between atoms: C_7  and  O_8
REMARK                            x       y       z     vdW  Elec       q    Type
REMARK                         _______ _______ _______ _____ _____    ______ ____
ROOT
ATOM      1  C   UNL     1       9.582  -0.143  22.317  0.00  0.00    +0.172 A 
ATOM      2  C   UNL     1       9.727   1.238  22.507  0.00  0.00    +0.237 A 
ATOM      3  C   UNL     1       9.610   1.764  23.802  0.00  0.00    +0.324 A 
ATOM      4  C   UNL     1       9.350   0.918  24.895  0.00  0.00    +0.172 A 
ATOM      5  C   UNL     1       9.209  -0.460  24.675  0.00  0.00    +0.283 A 
ATOM      6  C   UNL     1       9.324  -0.998  23.387  0.00  0.00    +0.133 A 
ENDROOT
BRANCH   3   7
ATOM      7  N   UNL     1       9.755   3.202  24.050  0.00  0.00    +0.084 N 
ATOM      8  O   UNL     1      10.717   3.782  23.523  0.00  0.00    +0.042 OA
ATOM      9  O   UNL     1       8.912   3.754  24.769  0.00  0.00    -0.576 OA
ENDBRANCH   3   7
BRANCH   5  10
ATOM     10  N   UNL     1       8.936  -1.354  25.809  0.00  0.00    +0.080 N 
ATOM     11  O   UNL     1       8.950  -0.859  26.944  0.00  0.00    +0.041 OA
ATOM     12  O   UNL     1       8.710  -2.545  25.558  0.00  0.00    -0.576 OA
ENDBRANCH   5  10
BRANCH   1  13
ATOM     13  O   UNL     1       9.696  -0.652  21.052  0.00  0.00    -0.503 OA
ATOM     14  H   UNL     1       8.881  -1.112  20.792  0.00  0.00    +0.292 HD
ENDBRANCH   1  13
BRANCH   2  15
ATOM     15  O   UNL     1       9.979   1.989  21.387  0.00  0.00    -0.499 OA
ATOM     16  H   UNL     1      10.582   2.733  21.591  0.00  0.00    +0.293 HD
ENDBRANCH   2  15
TORSDOF 4
ENDMDL
MODEL 7
REMARK VINA RESULT:      -5.0      1.799      4.567
REMARK  Name = 
REMARK  4 active torsions:
REMARK  status: ('A' for Active; 'I' for Inactive)
REMARK    1  A    between atoms: O_1  and  C_2
REMARK    2  A    between atoms: C_4  and  N_12
REMARK    3  A    between atoms: C_6  and  N_9
REMARK    4  A    between atoms: C_7  and  O_8
REMARK                            x       y       z     vdW  Elec       q    Type
REMARK                         _______ _______ _______ _____ _____    ______ ____
ROOT
ATOM      1  C   UNL     1       8.544  -3.073  24.359  0.00  0.00    +0.172 A 
ATOM      2  C   UNL     1       7.954  -3.302  23.107  0.00  0.00    +0.237 A 
ATOM      3  C   UNL     1       7.013  -4.334  22.977  0.00  0.00    +0.324 A 
ATOM      4  C   UNL     1       6.666  -5.128  24.084  0.00  0.00    +0.172 A 
ATOM      5  C   UNL     1       7.273  -4.877  25.323  0.00  0.00    +0.283 A 
ATOM      6  C   UNL     1       8.213  -3.849  25.468  0.00  0.00    +0.133 A 
ENDROOT
BRANCH   3   7
ATOM      7  N   UNL     1       6.369  -4.610  21.688  0.00  0.00    +0.084 N 
ATOM      8  O   UNL     1       5.710  -3.697  21.167  0.00  0.00    +0.042 OA
ATOM      9  O   UNL     1       6.518  -5.736  21.196  0.00  0.00    -0.576 OA
ENDBRANCH   3   7
BRANCH   5  10
ATOM     10  N   UNL     1       6.920  -5.701  26.487  0.00  0.00    +0.080 N 
ATOM     11  O   UNL     1       7.660  -5.639  27.478  0.00  0.00    +0.041 OA
ATOM     12  O   UNL     1       5.905  -6.405  26.405  0.00  0.00    -0.576 OA
ENDBRANCH   5  10
BRANCH   1  13
ATOM     13  O   UNL     1       9.461  -2.066  24.482  0.00  0.00    -0.503 OA
ATOM     14  H   UNL     1      10.349  -2.427  24.638  0.00  0.00    +0.292 HD
ENDBRANCH   1  13
BRANCH   2  15
ATOM     15  O   UNL     1       8.349  -2.480  22.082  0.00  0.00    -0.499 OA
ATOM     16  H   UNL     1       8.343  -1.542  22.363  0.00  0.00    +0.293 HD
ENDBRANCH   2  15
TORSDOF 4
ENDMDL
MODEL 8
REMARK VINA RESULT:      -5.0      1.899      4.254
REMARK  Name = 
REMARK  4 active torsions:
REMARK  status: ('A' for Active; 'I' for Inactive)
REMARK    1  A    between atoms: O_1  and  C_2
REMARK    2  A    between atoms: C_4  and  N_12
REMARK    3  A    between atoms: C_6  and  N_9
REMARK    4  A    between atoms: C_7  and  O_8
REMARK                            x       y       z     vdW  Elec       q    Type
REMARK                         _______ _______ _______ _____ _____    ______ ____
ROOT
ATOM      1  C   UNL     1       6.102  -5.848  22.409  0.00  0.00    +0.172 A 
ATOM      2  C   UNL     1       5.550  -6.225  23.642  0.00  0.00    +0.237 A 
ATOM      3  C   UNL     1       6.029  -5.623  24.815  0.00  0.00    +0.324 A 
ATOM      4  C   UNL     1       7.049  -4.658  24.756  0.00  0.00    +0.172 A 
ATOM      5  C   UNL     1       7.583  -4.301  23.510  0.00  0.00    +0.283 A 
ATOM      6  C   UNL     1       7.113  -4.893  22.331  0.00  0.00    +0.133 A 
ENDROOT
BRANCH   3   7
ATOM      7  N   UNL     1       5.482  -5.985  26.127  0.00  0.00    +0.084 N 
ATOM      8  O   UNL     1       6.279  -6.374  26.994  0.00  0.00    +0.042 OA
ATOM      9  O   UNL     1       4.260  -5.880  26.293  0.00  0.00    -0.576 OA
ENDBRANCH   3   7
BRANCH   5  10
ATOM     10  N   UNL     1       8.650  -3.293  23.436  0.00  0.00    +0.080 N 
ATOM     11  O   UNL     1       9.663  -3.480  24.123  0.00  0.00    +0.041 OA
ATOM     12  O   UNL     1       8.470  -2.321  22.691  0.00  0.00    -0.576 OA
ENDBRANCH   5  10
BRANCH   1  13
ATOM     13  O   UNL     1       5.632  -6.437  21.268  0.00  0.00    -0.503 OA
ATOM     14  H   UNL     1       6.316  -6.446  20.579  0.00  0.00    +0.292 HD
ENDBRANCH   1  13
BRANCH   2  15
ATOM     15  O   UNL     1       4.560  -7.174  23.607  0.00  0.00    -0.499 OA
ATOM     16  H   UNL     1       4.939  -8.076  23.577  0.00  0.00    +0.293 HD
ENDBRANCH   2  15
TORSDOF 4
ENDMDL
MODEL 9
REMARK VINA RESULT:      -4.9      4.983      6.773
REMARK  Name = 
REMARK  4 active torsions:
REMARK  status: ('A' for Active; 'I' for Inactive)
REMARK    1  A    between atoms: O_1  and  C_2
REMARK    2  A    between atoms: C_4  and  N_12
REMARK    3  A    between atoms: C_6  and  N_9
REMARK    4  A    between atoms: C_7  and  O_8
REMARK                            x       y       z     vdW  Elec       q    Type
REMARK                         _______ _______ _______ _____ _____    ______ ____
ROOT
ATOM      1  C   UNL     1      10.038  -0.835  22.629  0.00  0.00    +0.172 A 
ATOM      2  C   UNL     1       9.576  -1.471  23.790  0.00  0.00    +0.237 A 
ATOM      3  C   UNL     1       9.251  -0.691  24.910  0.00  0.00    +0.324 A 
ATOM      4  C   UNL     1       9.387   0.708  24.870  0.00  0.00    +0.172 A 
ATOM      5  C   UNL     1       9.852   1.316  23.696  0.00  0.00    +0.283 A 
ATOM      6  C   UNL     1      10.180   0.550  22.570  0.00  0.00    +0.133 A 
ENDROOT
BRANCH   3   7
ATOM      7  N   UNL     1       8.763  -1.312  26.147  0.00  0.00    +0.084 N 
ATOM      8  O   UNL     1       8.036  -2.311  26.040  0.00  0.00    +0.042 OA
ATOM      9  O   UNL     1       9.103  -0.803  27.223  0.00  0.00    -0.576 OA
ENDBRANCH   3   7
BRANCH   5  10
ATOM     10  N   UNL     1       9.999   2.778  23.642  0.00  0.00    +0.080 N 
ATOM     11  O   UNL     1      11.130   3.231  23.422  0.00  0.00    +0.041 OA
ATOM     12  O   UNL     1       8.983   3.463  23.819  0.00  0.00    -0.576 OA
ENDBRANCH   5  10
BRANCH   1  13
ATOM     13  O   UNL     1      10.355  -1.599  21.540  0.00  0.00    -0.503 OA
ATOM     14  H   UNL     1      11.222  -2.019  21.655  0.00  0.00    +0.292 HD
ENDBRANCH   1  13
BRANCH   2  15
ATOM     15  O   UNL     1       9.474  -2.838  23.743  0.00  0.00    -0.499 OA
ATOM     16  H   UNL     1       8.541  -3.123  23.824  0.00  0.00    +0.293 HD
ENDBRANCH   2  15
TORSDOF 4
ENDMDL
