MODEL 1
REMARK VINA RESULT:      -7.4      0.000      0.000
REMARK  Name = 
REMARK  2 active torsions:
REMARK  status: ('A' for Active; 'I' for Inactive)
REMARK    1  A    between atoms: C_2  and  N_13
REMARK    2  A    between atoms: C_14  and  C_16
REMARK                            x       y       z     vdW  Elec       q    Type
REMARK                         _______ _______ _______ _____ _____    ______ ____
ROOT
ATOM      1  N   UNL     1       8.773  -2.060  24.387  0.00  0.00    -0.299 N 
ATOM      2  H   UNL     1       7.844  -1.661  24.368  0.00  0.00    +0.150 HD
ATOM      3  C   UNL     1       8.911  -3.422  24.423  0.00  0.00    +0.261 C 
ATOM      4  O   UNL     1      10.005  -3.975  24.467  0.00  0.00    -0.269 OA
ENDROOT
BRANCH   1   5
ATOM      5  C   UNL     1       9.915  -1.151  24.252  0.00  0.00    +0.164 C 
ATOM      6  C   UNL     1      10.188  -1.007  22.751  0.00  0.00    +0.238 C 
ATOM      7  O   UNL     1      10.868  -1.813  22.116  0.00  0.00    -0.273 OA
ATOM      8  N   UNL     1       9.443  -0.059  22.087  0.00  0.00    -0.284 N 
ATOM      9  H   UNL     1       9.499  -0.079  21.078  0.00  0.00    +0.155 HD
ATOM     10  C   UNL     1       8.627   0.878  22.726  0.00  0.00    +0.037 A 
ATOM     11  C   UNL     1       7.738   1.646  21.979  0.00  0.00    +0.023 A 
ATOM     12  C   UNL     1       6.925   2.582  22.621  0.00  0.00    +0.002 A 
ATOM     13  C   UNL     1       7.034   2.777  23.998  0.00  0.00    +0.000 A 
ATOM     14  C   UNL     1       7.939   2.020  24.742  0.00  0.00    +0.005 A 
ATOM     15  C   UNL     1       8.720   1.047  24.112  0.00  0.00    -0.024 A 
ATOM     16  C   UNL     1       9.715   0.229  24.887  0.00  0.00    +0.068 C 
ENDBRANCH   1   5
BRANCH   3  17
ATOM     17  C   UNL     1       7.674  -4.172  24.411  0.00  0.00    +0.103 A 
ATOM     18  N   UNL     1       7.155  -4.703  25.597  0.00  0.00    -0.345 N 
ATOM     19  H   UNL     1       7.576  -4.581  26.510  0.00  0.00    +0.167 HD
ATOM     20  C   UNL     1       6.075  -5.449  25.285  0.00  0.00    +0.087 A 
ATOM     21  S   UNL     1       5.005  -6.433  26.092  0.00  0.00    -0.059 S 
ATOM     22  C   UNL     1       4.254  -6.807  24.582  0.00  0.00    +0.081 A 
ATOM     23  C   UNL     1       4.815  -6.158  23.493  0.00  0.00    +0.037 A 
ATOM     24 CL   UNL     1       2.947  -7.922  24.552  0.00  0.00    -0.076 Cl
ATOM     25  C   UNL     1       5.872  -5.384  23.966  0.00  0.00    +0.009 A 
ATOM     26  C   UNL     1       6.826  -4.570  23.367  0.00  0.00    +0.041 A 
ENDBRANCH   3  17
TORSDOF 2
ENDMDL
MODEL 2
REMARK VINA RESULT:      -7.3      3.810      7.295
REMARK  Name = 
REMARK  2 active torsions:
REMARK  status: ('A' for Active; 'I' for Inactive)
REMARK    1  A    between atoms: C_2  and  N_13
REMARK    2  A    between atoms: C_14  and  C_16
REMARK                            x       y       z     vdW  Elec       q    Type
REMARK                         _______ _______ _______ _____ _____    ______ ____
ROOT
ATOM      1  N   UNL     1       8.407  -3.107  24.272  0.00  0.00    -0.299 N 
ATOM      2  H   UNL     1       7.660  -2.710  24.825  0.00  0.00    +0.150 HD
ATOM      3  C   UNL     1       9.400  -2.285  23.808  0.00  0.00    +0.261 C 
ATOM      4  O   UNL     1      10.327  -2.693  23.116  0.00  0.00    -0.269 OA
ENDROOT
BRANCH   1   5
ATOM      5  C   UNL     1       8.442  -4.563  24.106  0.00  0.00    +0.164 C 
ATOM      6  C   UNL     1       9.222  -5.123  25.301  0.00  0.00    +0.238 C 
ATOM      7  O   UNL     1      10.451  -5.186  25.324  0.00  0.00    -0.273 OA
ATOM      8  N   UNL     1       8.499  -5.341  26.450  0.00  0.00    -0.284 N 
ATOM      9  H   UNL     1       9.037  -5.547  27.280  0.00  0.00    +0.155 HD
ATOM     10  C   UNL     1       7.105  -5.267  26.519  0.00  0.00    +0.037 A 
ATOM     11  C   UNL     1       6.471  -5.274  27.759  0.00  0.00    +0.023 A 
ATOM     12  C   UNL     1       5.078  -5.201  27.823  0.00  0.00    +0.002 A 
ATOM     13  C   UNL     1       4.324  -5.165  26.650  0.00  0.00    +0.000 A 
ATOM     14  C   UNL     1       4.959  -5.177  25.409  0.00  0.00    +0.005 A 
ATOM     15  C   UNL     1       6.356  -5.200  25.338  0.00  0.00    -0.024 A 
ATOM     16  C   UNL     1       7.066  -5.231  24.015  0.00  0.00    +0.068 C 
ENDBRANCH   1   5
BRANCH   3  17
ATOM     17  C   UNL     1       9.282  -0.894  24.184  0.00  0.00    +0.103 A 
ATOM     18  N   UNL     1       8.247  -0.473  25.028  0.00  0.00    -0.345 N 
ATOM     19  H   UNL     1       7.556  -1.091  25.436  0.00  0.00    +0.167 HD
ATOM     20  C   UNL     1       8.299   0.872  25.116  0.00  0.00    +0.087 A 
ATOM     21  S   UNL     1       7.402   2.078  25.826  0.00  0.00    -0.059 S 
ATOM     22  C   UNL     1       8.450   3.246  25.104  0.00  0.00    +0.081 A 
ATOM     23  C   UNL     1       9.480   2.697  24.355  0.00  0.00    +0.037 A 
ATOM     24 CL   UNL     1       8.131   4.917  25.341  0.00  0.00    -0.076 Cl
ATOM     25  C   UNL     1       9.338   1.312  24.398  0.00  0.00    +0.009 A 
ATOM     26  C   UNL     1      10.012   0.245  23.815  0.00  0.00    +0.041 A 
ENDBRANCH   3  17
TORSDOF 2
ENDMDL
MODEL 3
REMARK VINA RESULT:      -7.3      3.852      7.405
REMARK  Name = 
REMARK  2 active torsions:
REMARK  status: ('A' for Active; 'I' for Inactive)
REMARK    1  A    between atoms: C_2  and  N_13
REMARK    2  A    between atoms: C_14  and  C_16
REMARK                            x       y       z     vdW  Elec       q    Type
REMARK                         _______ _______ _______ _____ _____    ______ ____
ROOT
ATOM      1  N   UNL     1       8.489  -3.014  24.306  0.00  0.00    -0.299 N 
ATOM      2  H   UNL     1       7.647  -2.589  24.668  0.00  0.00    +0.150 HD
ATOM      3  C   UNL     1       9.462  -2.211  23.772  0.00  0.00    +0.261 C 
ATOM      4  O   UNL     1      10.501  -2.657  23.297  0.00  0.00    -0.269 OA
ENDROOT
BRANCH   1   5
ATOM      5  C   UNL     1       8.665  -4.458  24.488  0.00  0.00    +0.164 C 
ATOM      6  C   UNL     1       8.266  -4.771  25.935  0.00  0.00    +0.238 C 
ATOM      7  O   UNL     1       9.043  -4.647  26.882  0.00  0.00    -0.273 OA
ATOM      8  N   UNL     1       6.926  -4.975  26.164  0.00  0.00    -0.284 N 
ATOM      9  H   UNL     1       6.643  -5.014  27.134  0.00  0.00    +0.155 HD
ATOM     10  C   UNL     1       5.972  -5.104  25.150  0.00  0.00    +0.037 A 
ATOM     11  C   UNL     1       4.617  -5.079  25.467  0.00  0.00    +0.023 A 
ATOM     12  C   UNL     1       3.668  -5.209  24.450  0.00  0.00    +0.002 A 
ATOM     13  C   UNL     1       4.077  -5.405  23.131  0.00  0.00    +0.000 A 
ATOM     14  C   UNL     1       5.435  -5.449  22.819  0.00  0.00    +0.005 A 
ATOM     15  C   UNL     1       6.390  -5.270  23.824  0.00  0.00    -0.024 A 
ATOM     16  C   UNL     1       7.860  -5.329  23.519  0.00  0.00    +0.068 C 
ENDBRANCH   1   5
BRANCH   3  17
ATOM     17  C   UNL     1       9.181  -0.793  23.800  0.00  0.00    +0.103 A 
ATOM     18  N   UNL     1       8.431  -0.197  22.779  0.00  0.00    -0.345 N 
ATOM     19  H   UNL     1       8.027  -0.702  21.999  0.00  0.00    +0.167 HD
ATOM     20  C   UNL     1       8.424   1.135  22.986  0.00  0.00    +0.087 A 
ATOM     21  S   UNL     1       7.848   2.483  22.202  0.00  0.00    -0.059 S 
ATOM     22  C   UNL     1       8.577   3.469  23.418  0.00  0.00    +0.081 A 
ATOM     23  C   UNL     1       9.226   2.755  24.414  0.00  0.00    +0.037 A 
ATOM     24 CL   UNL     1       8.465   5.179  23.288  0.00  0.00    -0.076 Cl
ATOM     25  C   UNL     1       9.104   1.402  24.106  0.00  0.00    +0.009 A 
ATOM     26  C   UNL     1       9.576   0.227  24.679  0.00  0.00    +0.041 A 
ENDBRANCH   3  17
TORSDOF 2
ENDMDL
MODEL 4
REMARK VINA RESULT:      -7.1      3.893      7.315
REMARK  Name = 
REMARK  2 active torsions:
REMARK  status: ('A' for Active; 'I' for Inactive)
REMARK    1  A    between atoms: C_2  and  N_13
REMARK    2  A    between atoms: C_14  and  C_16
REMARK                            x       y       z     vdW  Elec       q    Type
REMARK                         _______ _______ _______ _____ _____    ______ ____
ROOT
ATOM      1  N   UNL     1       8.474  -2.655  24.576  0.00  0.00    -0.299 N 
ATOM      2  H   UNL     1       7.618  -2.154  24.773  0.00  0.00    +0.150 HD
ATOM      3  C   UNL     1       9.466  -2.025  23.873  0.00  0.00    +0.261 C 
ATOM      4  O   UNL     1      10.522  -2.577  23.581  0.00  0.00    -0.269 OA
ENDROOT
BRANCH   1   5
ATOM      5  C   UNL     1       8.642  -3.987  25.165  0.00  0.00    +0.164 C 
ATOM      6  C   UNL     1       7.471  -4.192  26.133  0.00  0.00    +0.238 C 
ATOM      7  O   UNL     1       7.483  -3.776  27.291  0.00  0.00    -0.273 OA
ATOM      8  N   UNL     1       6.302  -4.659  25.580  0.00  0.00    -0.284 N 
ATOM      9  H   UNL     1       5.487  -4.635  26.179  0.00  0.00    +0.155 HD
ATOM     10  C   UNL     1       6.192  -5.128  24.268  0.00  0.00    +0.037 A 
ATOM     11  C   UNL     1       4.935  -5.366  23.720  0.00  0.00    +0.023 A 
ATOM     12  C   UNL     1       4.831  -5.835  22.408  0.00  0.00    +0.002 A 
ATOM     13  C   UNL     1       5.982  -6.104  21.667  0.00  0.00    +0.000 A 
ATOM     14  C   UNL     1       7.241  -5.883  22.225  0.00  0.00    +0.005 A 
ATOM     15  C   UNL     1       7.351  -5.366  23.519  0.00  0.00    -0.024 A 
ATOM     16  C   UNL     1       8.695  -5.134  24.151  0.00  0.00    +0.068 C 
ENDBRANCH   1   5
BRANCH   3  17
ATOM     17  C   UNL     1       9.185  -0.659  23.489  0.00  0.00    +0.103 A 
ATOM     18  N   UNL     1       9.402   0.389  24.391  0.00  0.00    -0.345 N 
ATOM     19  H   UNL     1       9.779   0.272  25.323  0.00  0.00    +0.167 HD
ATOM     20  C   UNL     1       8.948   1.527  23.827  0.00  0.00    +0.087 A 
ATOM     21  S   UNL     1       8.776   3.119  24.274  0.00  0.00    -0.059 S 
ATOM     22  C   UNL     1       8.022   3.437  22.753  0.00  0.00    +0.081 A 
ATOM     23  C   UNL     1       7.937   2.331  21.921  0.00  0.00    +0.037 A 
ATOM     24 CL   UNL     1       7.444   5.020  22.419  0.00  0.00    -0.076 Cl
ATOM     25  C   UNL     1       8.490   1.250  22.602  0.00  0.00    +0.009 A 
ATOM     26  C   UNL     1       8.642  -0.103  22.322  0.00  0.00    +0.041 A 
ENDBRANCH   3  17
TORSDOF 2
ENDMDL
MODEL 5
REMARK VINA RESULT:      -7.0      1.736      2.297
REMARK  Name = 
REMARK  2 active torsions:
REMARK  status: ('A' for Active; 'I' for Inactive)
REMARK    1  A    between atoms: C_2  and  N_13
REMARK    2  A    between atoms: C_14  and  C_16
REMARK                            x       y       z     vdW  Elec       q    Type
REMARK                         _______ _______ _______ _____ _____    ______ ____
ROOT
ATOM      1  N   UNL     1       9.325  -0.741  23.832  0.00  0.00    -0.299 N 
ATOM      2  H   UNL     1       8.550  -0.554  24.453  0.00  0.00    +0.150 HD
ATOM      3  C   UNL     1       9.696  -2.039  23.603  0.00  0.00    +0.261 C 
ATOM      4  O   UNL     1      10.637  -2.341  22.877  0.00  0.00    -0.269 OA
ENDROOT
BRANCH   1   5
ATOM      5  C   UNL     1       9.925   0.391  23.120  0.00  0.00    +0.164 C 
ATOM      6  C   UNL     1       9.101   0.595  21.844  0.00  0.00    +0.238 C 
ATOM      7  O   UNL     1       9.301  -0.045  20.811  0.00  0.00    -0.273 OA
ATOM      8  N   UNL     1       7.967   1.364  21.970  0.00  0.00    -0.284 N 
ATOM      9  H   UNL     1       7.339   1.360  21.178  0.00  0.00    +0.155 HD
ATOM     10  C   UNL     1       7.650   2.104  23.112  0.00  0.00    +0.037 A 
ATOM     11  C   UNL     1       6.383   2.666  23.244  0.00  0.00    +0.023 A 
ATOM     12  C   UNL     1       6.072   3.405  24.387  0.00  0.00    +0.002 A 
ATOM     13  C   UNL     1       7.038   3.614  25.372  0.00  0.00    +0.000 A 
ATOM     14  C   UNL     1       8.312   3.066  25.229  0.00  0.00    +0.005 A 
ATOM     15  C   UNL     1       8.616   2.284  24.110  0.00  0.00    -0.024 A 
ATOM     16  C   UNL     1       9.985   1.695  23.923  0.00  0.00    +0.068 C 
ENDBRANCH   1   5
BRANCH   3  17
ATOM     17  C   UNL     1       8.902  -3.041  24.282  0.00  0.00    +0.103 A 
ATOM     18  N   UNL     1       7.862  -3.695  23.612  0.00  0.00    -0.345 N 
ATOM     19  H   UNL     1       7.621  -3.539  22.640  0.00  0.00    +0.167 HD
ATOM     20  C   UNL     1       7.217  -4.478  24.501  0.00  0.00    +0.087 A 
ATOM     21  S   UNL     1       5.878  -5.463  24.505  0.00  0.00    -0.059 S 
ATOM     22  C   UNL     1       6.117  -5.735  26.194  0.00  0.00    +0.081 A 
ATOM     23  C   UNL     1       7.226  -5.091  26.721  0.00  0.00    +0.037 A 
ATOM     24 CL   UNL     1       4.998  -6.718  27.050  0.00  0.00    -0.076 Cl
ATOM     25  C   UNL     1       7.824  -4.373  25.688  0.00  0.00    +0.009 A 
ATOM     26  C   UNL     1       8.909  -3.509  25.604  0.00  0.00    +0.041 A 
ENDBRANCH   3  17
TORSDOF 2
ENDMDL
MODEL 6
REMARK VINA RESULT:      -6.9      3.986      7.059
REMARK  Name = 
REMARK  2 active torsions:
REMARK  status: ('A' for Active; 'I' for Inactive)
REMARK    1  A    between atoms: C_2  and  N_13
REMARK    2  A    between atoms: C_14  and  C_16
REMARK                            x       y       z     vdW  Elec       q    Type
REMARK                         _______ _______ _______ _____ _____    ______ ____
ROOT
ATOM      1  N   UNL     1       6.986  -4.467  24.620  0.00  0.00    -0.299 N 
ATOM      2  H   UNL     1       6.440  -3.623  24.520  0.00  0.00    +0.150 HD
ATOM      3  C   UNL     1       8.293  -4.466  24.211  0.00  0.00    +0.261 C 
ATOM      4  O   UNL     1       9.010  -5.458  24.284  0.00  0.00    -0.269 OA
ENDROOT
BRANCH   1   5
ATOM      5  C   UNL     1       6.373  -5.605  25.311  0.00  0.00    +0.164 C 
ATOM      6  C   UNL     1       6.532  -5.346  26.813  0.00  0.00    +0.238 C 
ATOM      7  O   UNL     1       7.555  -5.633  27.435  0.00  0.00    -0.273 OA
ATOM      8  N   UNL     1       5.567  -4.559  27.399  0.00  0.00    -0.284 N 
ATOM      9  H   UNL     1       5.759  -4.250  28.342  0.00  0.00    +0.155 HD
ATOM     10  C   UNL     1       4.388  -4.167  26.759  0.00  0.00    +0.037 A 
ATOM     11  C   UNL     1       3.579  -3.191  27.335  0.00  0.00    +0.023 A 
ATOM     12  C   UNL     1       2.402  -2.803  26.692  0.00  0.00    +0.002 A 
ATOM     13  C   UNL     1       2.017  -3.421  25.502  0.00  0.00    +0.000 A 
ATOM     14  C   UNL     1       2.819  -4.411  24.936  0.00  0.00    +0.005 A 
ATOM     15  C   UNL     1       4.024  -4.769  25.549  0.00  0.00    -0.024 A 
ATOM     16  C   UNL     1       4.899  -5.845  24.970  0.00  0.00    +0.068 C 
ENDBRANCH   1   5
BRANCH   3  17
ATOM     17  C   UNL     1       8.776  -3.210  23.679  0.00  0.00    +0.103 A 
ATOM     18  N   UNL     1       9.608  -2.388  24.447  0.00  0.00    -0.345 N 
ATOM     19  H   UNL     1       9.937  -2.618  25.377  0.00  0.00    +0.167 HD
ATOM     20  C   UNL     1       9.807  -1.240  23.767  0.00  0.00    +0.087 A 
ATOM     21  S   UNL     1      10.575   0.210  24.031  0.00  0.00    -0.059 S 
ATOM     22  C   UNL     1       9.993   0.766  22.502  0.00  0.00    +0.081 A 
ATOM     23  C   UNL     1       9.244  -0.171  21.807  0.00  0.00    +0.037 A 
ATOM     24 CL   UNL     1      10.352   2.370  22.003  0.00  0.00    -0.076 Cl
ATOM     25  C   UNL     1       9.169  -1.317  22.594  0.00  0.00    +0.009 A 
ATOM     26  C   UNL     1       8.530  -2.545  22.469  0.00  0.00    +0.041 A 
ENDBRANCH   3  17
TORSDOF 2
ENDMDL
MODEL 7
REMARK VINA RESULT:      -6.8      3.745      7.181
REMARK  Name = 
REMARK  2 active torsions:
REMARK  status: ('A' for Active; 'I' for Inactive)
REMARK    1  A    between atoms: C_2  and  N_13
REMARK    2  A    between atoms: C_14  and  C_16
REMARK                            x       y       z     vdW  Elec       q    Type
REMARK                         _______ _______ _______ _____ _____    ______ ____
ROOT
ATOM      1  N   UNL     1       7.679  -2.568  22.652  0.00  0.00    -0.299 N 
ATOM      2  H   UNL     1       6.762  -2.279  22.964  0.00  0.00    +0.150 HD
ATOM      3  C   UNL     1       8.600  -1.610  22.320  0.00  0.00    +0.261 C 
ATOM      4  O   UNL     1       9.725  -1.886  21.917  0.00  0.00    -0.269 OA
ENDROOT
BRANCH   1   5
ATOM      5  C   UNL     1       8.001  -3.997  22.693  0.00  0.00    +0.164 C 
ATOM      6  C   UNL     1       8.466  -4.303  24.121  0.00  0.00    +0.238 C 
ATOM      7  O   UNL     1       9.624  -4.122  24.498  0.00  0.00    -0.273 OA
ATOM      8  N   UNL     1       7.476  -4.571  25.038  0.00  0.00    -0.284 N 
ATOM      9  H   UNL     1       7.766  -4.605  26.006  0.00  0.00    +0.155 HD
ATOM     10  C   UNL     1       6.134  -4.766  24.701  0.00  0.00    +0.037 A 
ATOM     11  C   UNL     1       5.167  -4.803  25.701  0.00  0.00    +0.023 A 
ATOM     12  C   UNL     1       3.827  -5.000  25.359  0.00  0.00    +0.002 A 
ATOM     13  C   UNL     1       3.466  -5.201  24.026  0.00  0.00    +0.000 A 
ATOM     14  C   UNL     1       4.439  -5.181  23.028  0.00  0.00    +0.005 A 
ATOM     15  C   UNL     1       5.775  -4.936  23.358  0.00  0.00    -0.024 A 
ATOM     16  C   UNL     1       6.847  -4.926  22.304  0.00  0.00    +0.068 C 
ENDBRANCH   1   5
BRANCH   3  17
ATOM     17  C   UNL     1       8.157  -0.242  22.473  0.00  0.00    +0.103 A 
ATOM     18  N   UNL     1       7.067   0.063  23.296  0.00  0.00    -0.345 N 
ATOM     19  H   UNL     1       6.553  -0.620  23.839  0.00  0.00    +0.167 HD
ATOM     20  C   UNL     1       6.795   1.377  23.162  0.00  0.00    +0.087 A 
ATOM     21  S   UNL     1       5.646   2.442  23.718  0.00  0.00    -0.059 S 
ATOM     22  C   UNL     1       6.369   3.682  22.757  0.00  0.00    +0.081 A 
ATOM     23  C   UNL     1       7.487   3.270  22.048  0.00  0.00    +0.037 A 
ATOM     24 CL   UNL     1       5.661   5.247  22.739  0.00  0.00    -0.076 Cl
ATOM     25  C   UNL     1       7.683   1.918  22.323  0.00  0.00    +0.009 A 
ATOM     26  C   UNL     1       8.584   0.956  21.882  0.00  0.00    +0.041 A 
ENDBRANCH   3  17
TORSDOF 2
ENDMDL
MODEL 8
REMARK VINA RESULT:      -6.7      4.630      7.720
REMARK  Name = 
REMARK  2 active torsions:
REMARK  status: ('A' for Active; 'I' for Inactive)
REMARK    1  A    between atoms: C_2  and  N_13
REMARK    2  A    between atoms: C_14  and  C_16
REMARK                            x       y       z     vdW  Elec       q    Type
REMARK                         _______ _______ _______ _____ _____    ______ ____
ROOT
ATOM      1  N   UNL     1       8.804   0.560  22.595  0.00  0.00    -0.299 N 
ATOM      2  H   UNL     1       7.847   0.313  22.806  0.00  0.00    +0.150 HD
ATOM      3  C   UNL     1       9.099   1.858  22.273  0.00  0.00    +0.261 C 
ATOM      4  O   UNL     1      10.234   2.227  21.989  0.00  0.00    -0.269 OA
ENDROOT
BRANCH   1   5
ATOM      5  C   UNL     1       9.834  -0.467  22.768  0.00  0.00    +0.164 C 
ATOM      6  C   UNL     1      10.094  -0.582  24.275  0.00  0.00    +0.238 C 
ATOM      7  O   UNL     1      10.864   0.166  24.877  0.00  0.00    -0.273 OA
ATOM      8  N   UNL     1       9.248  -1.410  24.975  0.00  0.00    -0.284 N 
ATOM      9  H   UNL     1       9.309  -1.357  25.983  0.00  0.00    +0.155 HD
ATOM     10  C   UNL     1       8.327  -2.273  24.374  0.00  0.00    +0.037 A 
ATOM     11  C   UNL     1       7.358  -2.902  25.150  0.00  0.00    +0.023 A 
ATOM     12  C   UNL     1       6.441  -3.764  24.544  0.00  0.00    +0.002 A 
ATOM     13  C   UNL     1       6.523  -4.025  23.176  0.00  0.00    +0.000 A 
ATOM     14  C   UNL     1       7.506  -3.408  22.404  0.00  0.00    +0.005 A 
ATOM     15  C   UNL     1       8.396  -2.506  22.995  0.00  0.00    -0.024 A 
ATOM     16  C   UNL     1       9.476  -1.840  22.190  0.00  0.00    +0.068 C 
ENDBRANCH   1   5
BRANCH   3  17
ATOM     17  C   UNL     1       7.979   2.772  22.287  0.00  0.00    +0.103 A 
ATOM     18  N   UNL     1       8.192   4.155  22.317  0.00  0.00    -0.345 N 
ATOM     19  H   UNL     1       9.105   4.593  22.305  0.00  0.00    +0.167 HD
ATOM     20  C   UNL     1       6.994   4.761  22.446  0.00  0.00    +0.087 A 
ATOM     21  S   UNL     1       6.433   6.315  22.634  0.00  0.00    -0.059 S 
ATOM     22  C   UNL     1       4.828   5.690  22.772  0.00  0.00    +0.081 A 
ATOM     23  C   UNL     1       4.744   4.312  22.649  0.00  0.00    +0.037 A 
ATOM     24 CL   UNL     1       3.529   6.777  23.062  0.00  0.00    -0.076 Cl
ATOM     25  C   UNL     1       6.037   3.828  22.463  0.00  0.00    +0.009 A 
ATOM     26  C   UNL     1       6.593   2.560  22.334  0.00  0.00    +0.041 A 
ENDBRANCH   3  17
TORSDOF 2
ENDMDL
MODEL 9
REMARK VINA RESULT:      -6.7      2.624      2.815
REMARK  Name = 
REMARK  2 active torsions:
REMARK  status: ('A' for Active; 'I' for Inactive)
REMARK    1  A    between atoms: C_2  and  N_13
REMARK    2  A    between atoms: C_14  and  C_16
REMARK                            x       y       z     vdW  Elec       q    Type
REMARK                         _______ _______ _______ _____ _____    ______ ____
ROOT
ATOM      1  N   UNL     1       9.298  -0.608  23.832  0.00  0.00    -0.299 N 
ATOM      2  H   UNL     1       8.542  -0.080  24.245  0.00  0.00    +0.150 HD
ATOM      3  C   UNL     1       9.384  -1.952  24.081  0.00  0.00    +0.261 C 
ATOM      4  O   UNL     1      10.283  -2.653  23.628  0.00  0.00    -0.269 OA
ENDROOT
BRANCH   1   5
ATOM      5  C   UNL     1      10.185   0.081  22.890  0.00  0.00    +0.164 C 
ATOM      6  C   UNL     1       9.440   0.150  21.552  0.00  0.00    +0.238 C 
ATOM      7  O   UNL     1       9.442  -0.775  20.739  0.00  0.00    -0.273 OA
ATOM      8  N   UNL     1       8.569   1.203  21.396  0.00  0.00    -0.284 N 
ATOM      9  H   UNL     1       7.957   1.157  20.593  0.00  0.00    +0.155 HD
ATOM     10  C   UNL     1       8.483   2.281  22.281  0.00  0.00    +0.037 A 
ATOM     11  C   UNL     1       7.426   3.181  22.176  0.00  0.00    +0.023 A 
ATOM     12  C   UNL     1       7.345   4.258  23.063  0.00  0.00    +0.002 A 
ATOM     13  C   UNL     1       8.341   4.453  24.021  0.00  0.00    +0.000 A 
ATOM     14  C   UNL     1       9.408   3.560  24.112  0.00  0.00    +0.005 A 
ATOM     15  C   UNL     1       9.469   2.453  23.260  0.00  0.00    -0.024 A 
ATOM     16  C   UNL     1      10.616   1.485  23.326  0.00  0.00    +0.068 C 
ENDBRANCH   1   5
BRANCH   3  17
ATOM     17  C   UNL     1       8.340  -2.496  24.922  0.00  0.00    +0.103 A 
ATOM     18  N   UNL     1       7.252  -1.703  25.303  0.00  0.00    -0.345 N 
ATOM     19  H   UNL     1       7.111  -0.745  25.007  0.00  0.00    +0.167 HD
ATOM     20  C   UNL     1       6.502  -2.411  26.173  0.00  0.00    +0.087 A 
ATOM     21  S   UNL     1       5.150  -2.149  27.104  0.00  0.00    -0.059 S 
ATOM     22  C   UNL     1       5.332  -3.734  27.766  0.00  0.00    +0.081 A 
ATOM     23  C   UNL     1       6.405  -4.444  27.250  0.00  0.00    +0.037 A 
ATOM     24 CL   UNL     1       4.234  -4.267  28.975  0.00  0.00    -0.076 Cl
ATOM     25  C   UNL     1       7.049  -3.621  26.329  0.00  0.00    +0.009 A 
ATOM     26  C   UNL     1       8.188  -3.744  25.543  0.00  0.00    +0.041 A 
ENDBRANCH   3  17
TORSDOF 2
ENDMDL
