MODEL 1
REMARK VINA RESULT:      -6.1      0.000      0.000
REMARK  Name = 
REMARK  4 active torsions:
REMARK  status: ('A' for Active; 'I' for Inactive)
REMARK    1  A    between atoms: C_1  and  C_2
REMARK    2  A    between atoms: C_2  and  N_3
REMARK    3  A    between atoms: C_2  and  C_8
REMARK    4  A    between atoms: N_3  and  O_4
REMARK                            x       y       z     vdW  Elec       q    Type
REMARK                         _______ _______ _______ _____ _____    ______ ____
ROOT
ATOM      1  C   UNL     1       5.961  -3.777  23.940  0.00  0.00    +0.036 C 
ATOM      2  C   UNL     1       7.233  -3.472  24.734  0.00  0.00    +0.140 C 
ENDROOT
BRANCH   2   3
ATOM      3  C   UNL     1       7.953  -2.243  24.224  0.00  0.00    +0.013 A 
ATOM      4  S   UNL     1       7.939  -1.887  22.548  0.00  0.00    -0.091 S 
ATOM      5  C   UNL     1       8.876  -0.458  22.750  0.00  0.00    +0.020 A 
ATOM      6  C   UNL     1       9.206  -0.252  24.090  0.00  0.00    -0.010 A 
ATOM      7  C   UNL     1       9.974   0.890  24.422  0.00  0.00    +0.009 A 
ATOM      8  C   UNL     1      10.384   1.782  23.425  0.00  0.00    +0.001 A 
ATOM      9  C   UNL     1      10.044   1.557  22.097  0.00  0.00    +0.001 A 
ATOM     10  C   UNL     1       9.291   0.435  21.741  0.00  0.00    +0.015 A 
ATOM     11  C   UNL     1       8.672  -1.292  24.922  0.00  0.00    +0.021 A 
ENDBRANCH   2   3
BRANCH   2  12
ATOM     12  N   UNL     1       8.186  -4.591  24.801  0.00  0.00    -0.160 N 
ATOM     13  C   UNL     1       9.031  -4.882  25.839  0.00  0.00    +0.323 C 
ATOM     14  O   UNL     1       9.049  -4.320  26.929  0.00  0.00    -0.251 OA
ATOM     15  N   UNL     1       9.903  -5.897  25.595  0.00  0.00    -0.312 N 
ATOM     16  H   UNL     1      10.463  -6.206  26.376  0.00  0.00    +0.147 HD
ATOM     17  H   UNL     1       9.653  -6.564  24.880  0.00  0.00    +0.147 HD
BRANCH  12  18
ATOM     18  O   UNL     1       8.428  -5.208  23.551  0.00  0.00    -0.291 OA
ATOM     19  H   UNL     1       8.586  -6.132  23.821  0.00  0.00    +0.242 HD
ENDBRANCH  12  18
ENDBRANCH   2  12
TORSDOF 3
ENDMDL
MODEL 2
REMARK VINA RESULT:      -6.1      1.515      1.980
REMARK  Name = 
REMARK  4 active torsions:
REMARK  status: ('A' for Active; 'I' for Inactive)
REMARK    1  A    between atoms: C_1  and  C_2
REMARK    2  A    between atoms: C_2  and  N_3
REMARK    3  A    between atoms: C_2  and  C_8
REMARK    4  A    between atoms: N_3  and  O_4
REMARK                            x       y       z     vdW  Elec       q    Type
REMARK                         _______ _______ _______ _____ _____    ______ ____
ROOT
ATOM      1  C   UNL     1       7.211  -5.034  22.244  0.00  0.00    +0.036 C 
ATOM      2  C   UNL     1       7.280  -4.244  23.552  0.00  0.00    +0.140 C 
ENDROOT
BRANCH   2   3
ATOM      3  C   UNL     1       7.887  -2.871  23.366  0.00  0.00    +0.013 A 
ATOM      4  S   UNL     1       7.961  -1.790  24.694  0.00  0.00    -0.091 S 
ATOM      5  C   UNL     1       8.726  -0.558  23.767  0.00  0.00    +0.020 A 
ATOM      6  C   UNL     1       8.921  -0.963  22.446  0.00  0.00    -0.010 A 
ATOM      7  C   UNL     1       9.547  -0.060  21.554  0.00  0.00    +0.009 A 
ATOM      8  C   UNL     1       9.956   1.203  21.997  0.00  0.00    +0.001 A 
ATOM      9  C   UNL     1       9.751   1.585  23.317  0.00  0.00    +0.001 A 
ATOM     10  C   UNL     1       9.132   0.715  24.217  0.00  0.00    +0.015 A 
ATOM     11  C   UNL     1       8.426  -2.293  22.233  0.00  0.00    +0.021 A 
ENDBRANCH   2   3
BRANCH   2  12
ATOM     12  N   UNL     1       7.989  -4.937  24.639  0.00  0.00    -0.160 N 
ATOM     13  C   UNL     1       7.485  -5.247  25.874  0.00  0.00    +0.323 C 
ATOM     14  O   UNL     1       6.322  -5.096  26.233  0.00  0.00    -0.251 OA
ATOM     15  N   UNL     1       8.390  -5.775  26.741  0.00  0.00    -0.312 N 
ATOM     16  H   UNL     1       8.026  -6.113  27.620  0.00  0.00    +0.147 HD
ATOM     17  H   UNL     1       9.207  -6.218  26.349  0.00  0.00    +0.147 HD
BRANCH  12  18
ATOM     18  O   UNL     1       9.391  -4.998  24.456  0.00  0.00    -0.291 OA
ATOM     19  H   UNL     1       9.701  -4.381  25.144  0.00  0.00    +0.242 HD
ENDBRANCH  12  18
ENDBRANCH   2  12
TORSDOF 3
ENDMDL
MODEL 3
REMARK VINA RESULT:      -5.8      1.693      2.599
REMARK  Name = 
REMARK  4 active torsions:
REMARK  status: ('A' for Active; 'I' for Inactive)
REMARK    1  A    between atoms: C_1  and  C_2
REMARK    2  A    between atoms: C_2  and  N_3
REMARK    3  A    between atoms: C_2  and  C_8
REMARK    4  A    between atoms: N_3  and  O_4
REMARK                            x       y       z     vdW  Elec       q    Type
REMARK                         _______ _______ _______ _____ _____    ______ ____
ROOT
ATOM      1  C   UNL     1       9.118  -4.398  25.417  0.00  0.00    +0.036 C 
ATOM      2  C   UNL     1       8.684  -3.926  24.028  0.00  0.00    +0.140 C 
ENDROOT
BRANCH   2   3
ATOM      3  C   UNL     1       9.084  -2.493  23.753  0.00  0.00    +0.013 A 
ATOM      4  S   UNL     1       8.925  -1.858  22.170  0.00  0.00    -0.091 S 
ATOM      5  C   UNL     1       9.519  -0.310  22.633  0.00  0.00    +0.020 A 
ATOM      6  C   UNL     1       9.845  -0.275  23.989  0.00  0.00    -0.010 A 
ATOM      7  C   UNL     1      10.344   0.935  24.527  0.00  0.00    +0.009 A 
ATOM      8  C   UNL     1      10.501   2.061  23.711  0.00  0.00    +0.001 A 
ATOM      9  C   UNL     1      10.171   2.003  22.362  0.00  0.00    +0.001 A 
ATOM     10  C   UNL     1       9.680   0.820  21.806  0.00  0.00    +0.015 A 
ATOM     11  C   UNL     1       9.595  -1.542  24.615  0.00  0.00    +0.021 A 
ENDBRANCH   2   3
BRANCH   2  12
ATOM     12  N   UNL     1       7.246  -4.081  23.760  0.00  0.00    -0.160 N 
ATOM     13  C   UNL     1       6.679  -4.778  22.725  0.00  0.00    +0.323 C 
ATOM     14  O   UNL     1       7.280  -5.479  21.918  0.00  0.00    -0.251 OA
ATOM     15  N   UNL     1       5.328  -4.656  22.632  0.00  0.00    -0.312 N 
ATOM     16  H   UNL     1       4.871  -5.243  21.948  0.00  0.00    +0.147 HD
ATOM     17  H   UNL     1       4.825  -4.397  23.466  0.00  0.00    +0.147 HD
BRANCH  12  18
ATOM     18  O   UNL     1       6.432  -3.173  24.477  0.00  0.00    -0.291 OA
ATOM     19  H   UNL     1       6.130  -3.731  25.218  0.00  0.00    +0.242 HD
ENDBRANCH  12  18
ENDBRANCH   2  12
TORSDOF 3
ENDMDL
MODEL 4
REMARK VINA RESULT:      -5.7      3.702      5.885
REMARK  Name = 
REMARK  4 active torsions:
REMARK  status: ('A' for Active; 'I' for Inactive)
REMARK    1  A    between atoms: C_1  and  C_2
REMARK    2  A    between atoms: C_2  and  N_3
REMARK    3  A    between atoms: C_2  and  C_8
REMARK    4  A    between atoms: N_3  and  O_4
REMARK                            x       y       z     vdW  Elec       q    Type
REMARK                         _______ _______ _______ _____ _____    ______ ____
ROOT
ATOM      1  C   UNL     1       9.269  -0.428  25.625  0.00  0.00    +0.036 C 
ATOM      2  C   UNL     1       8.530  -0.244  24.298  0.00  0.00    +0.140 C 
ENDROOT
BRANCH   2   3
ATOM      3  C   UNL     1       8.082  -1.559  23.699  0.00  0.00    +0.013 A 
ATOM      4  S   UNL     1       8.769  -3.025  24.260  0.00  0.00    -0.091 S 
ATOM      5  C   UNL     1       7.817  -3.986  23.196  0.00  0.00    +0.020 A 
ATOM      6  C   UNL     1       6.980  -3.195  22.408  0.00  0.00    -0.010 A 
ATOM      7  C   UNL     1       6.127  -3.839  21.481  0.00  0.00    +0.009 A 
ATOM      8  C   UNL     1       6.131  -5.234  21.367  0.00  0.00    +0.001 A 
ATOM      9  C   UNL     1       6.973  -6.002  22.161  0.00  0.00    +0.001 A 
ATOM     10  C   UNL     1       7.829  -5.391  23.080  0.00  0.00    +0.015 A 
ATOM     11  C   UNL     1       7.151  -1.801  22.707  0.00  0.00    +0.021 A 
ENDBRANCH   2   3
BRANCH   2  12
ATOM     12  N   UNL     1       9.286   0.509  23.286  0.00  0.00    -0.160 N 
ATOM     13  C   UNL     1       8.790   1.473  22.448  0.00  0.00    +0.323 C 
ATOM     14  O   UNL     1       7.658   1.942  22.484  0.00  0.00    -0.251 OA
ATOM     15  N   UNL     1       9.672   1.924  21.516  0.00  0.00    -0.312 N 
ATOM     16  H   UNL     1       9.372   2.709  20.955  0.00  0.00    +0.147 HD
ATOM     17  H   UNL     1      10.655   1.813  21.713  0.00  0.00    +0.147 HD
BRANCH  12  18
ATOM     18  O   UNL     1      10.549  -0.052  22.983  0.00  0.00    -0.291 OA
ATOM     19  H   UNL     1      10.556  -0.834  23.566  0.00  0.00    +0.242 HD
ENDBRANCH  12  18
ENDBRANCH   2  12
TORSDOF 3
ENDMDL
MODEL 5
REMARK VINA RESULT:      -5.7      2.547      3.071
REMARK  Name = 
REMARK  4 active torsions:
REMARK  status: ('A' for Active; 'I' for Inactive)
REMARK    1  A    between atoms: C_1  and  C_2
REMARK    2  A    between atoms: C_2  and  N_3
REMARK    3  A    between atoms: C_2  and  C_8
REMARK    4  A    between atoms: N_3  and  O_4
REMARK                            x       y       z     vdW  Elec       q    Type
REMARK                         _______ _______ _______ _____ _____    ______ ____
ROOT
ATOM      1  C   UNL     1       5.851  -3.612  24.842  0.00  0.00    +0.036 C 
ATOM      2  C   UNL     1       6.824  -3.686  23.665  0.00  0.00    +0.140 C 
ENDROOT
BRANCH   2   3
ATOM      3  C   UNL     1       7.382  -2.330  23.290  0.00  0.00    +0.013 A 
ATOM      4  S   UNL     1       6.631  -0.911  23.887  0.00  0.00    -0.091 S 
ATOM      5  C   UNL     1       7.756   0.126  23.098  0.00  0.00    +0.020 A 
ATOM      6  C   UNL     1       8.699  -0.604  22.374  0.00  0.00    -0.010 A 
ATOM      7  C   UNL     1       9.700   0.107  21.670  0.00  0.00    +0.009 A 
ATOM      8  C   UNL     1       9.733   1.506  21.707  0.00  0.00    +0.001 A 
ATOM      9  C   UNL     1       8.783   2.213  22.433  0.00  0.00    +0.001 A 
ATOM     10  C   UNL     1       7.782   1.535  23.133  0.00  0.00    +0.015 A 
ATOM     11  C   UNL     1       8.464  -2.015  22.491  0.00  0.00    +0.021 A 
ENDBRANCH   2   3
BRANCH   2  12
ATOM     12  N   UNL     1       6.270  -4.324  22.461  0.00  0.00    -0.160 N 
ATOM     13  C   UNL     1       6.757  -5.439  21.830  0.00  0.00    +0.323 C 
ATOM     14  O   UNL     1       7.672  -6.149  22.233  0.00  0.00    -0.251 OA
ATOM     15  N   UNL     1       6.134  -5.748  20.662  0.00  0.00    -0.312 N 
ATOM     16  H   UNL     1       6.398  -6.622  20.230  0.00  0.00    +0.147 HD
ATOM     17  H   UNL     1       5.196  -5.402  20.528  0.00  0.00    +0.147 HD
BRANCH  12  18
ATOM     18  O   UNL     1       5.341  -3.516  21.764  0.00  0.00    -0.291 OA
ATOM     19  H   UNL     1       5.256  -4.004  20.924  0.00  0.00    +0.242 HD
ENDBRANCH  12  18
ENDBRANCH   2  12
TORSDOF 3
ENDMDL
MODEL 6
REMARK VINA RESULT:      -5.6      2.523      2.933
REMARK  Name = 
REMARK  4 active torsions:
REMARK  status: ('A' for Active; 'I' for Inactive)
REMARK    1  A    between atoms: C_1  and  C_2
REMARK    2  A    between atoms: C_2  and  N_3
REMARK    3  A    between atoms: C_2  and  C_8
REMARK    4  A    between atoms: N_3  and  O_4
REMARK                            x       y       z     vdW  Elec       q    Type
REMARK                         _______ _______ _______ _____ _____    ______ ____
ROOT
ATOM      1  C   UNL     1       5.135  -3.085  24.507  0.00  0.00    +0.036 C 
ATOM      2  C   UNL     1       6.362  -3.344  23.631  0.00  0.00    +0.140 C 
ENDROOT
BRANCH   2   3
ATOM      3  C   UNL     1       7.076  -2.068  23.244  0.00  0.00    +0.013 A 
ATOM      4  S   UNL     1       8.645  -2.149  22.560  0.00  0.00    -0.091 S 
ATOM      5  C   UNL     1       8.762  -0.439  22.395  0.00  0.00    +0.020 A 
ATOM      6  C   UNL     1       7.611   0.196  22.865  0.00  0.00    -0.010 A 
ATOM      7  C   UNL     1       7.550   1.608  22.794  0.00  0.00    +0.009 A 
ATOM      8  C   UNL     1       8.620   2.337  22.263  0.00  0.00    +0.001 A 
ATOM      9  C   UNL     1       9.755   1.684  21.801  0.00  0.00    +0.001 A 
ATOM     10  C   UNL     1       9.844   0.291  21.864  0.00  0.00    +0.015 A 
ATOM     11  C   UNL     1       6.656  -0.757  23.355  0.00  0.00    +0.021 A 
ENDBRANCH   2   3
BRANCH   2  12
ATOM     12  N   UNL     1       6.083  -4.124  22.416  0.00  0.00    -0.160 N 
ATOM     13  C   UNL     1       6.721  -5.269  22.016  0.00  0.00    +0.323 C 
ATOM     14  O   UNL     1       7.554  -5.890  22.667  0.00  0.00    -0.251 OA
ATOM     15  N   UNL     1       6.358  -5.722  20.786  0.00  0.00    -0.312 N 
ATOM     16  H   UNL     1       6.729  -6.620  20.511  0.00  0.00    +0.147 HD
ATOM     17  H   UNL     1       5.458  -5.437  20.432  0.00  0.00    +0.147 HD
BRANCH  12  18
ATOM     18  O   UNL     1       5.294  -3.435  21.466  0.00  0.00    -0.291 OA
ATOM     19  H   UNL     1       5.933  -3.311  20.739  0.00  0.00    +0.242 HD
ENDBRANCH  12  18
ENDBRANCH   2  12
TORSDOF 3
ENDMDL
MODEL 7
REMARK VINA RESULT:      -5.4      3.606      5.734
REMARK  Name = 
REMARK  4 active torsions:
REMARK  status: ('A' for Active; 'I' for Inactive)
REMARK    1  A    between atoms: C_1  and  C_2
REMARK    2  A    between atoms: C_2  and  N_3
REMARK    3  A    between atoms: C_2  and  C_8
REMARK    4  A    between atoms: N_3  and  O_4
REMARK                            x       y       z     vdW  Elec       q    Type
REMARK                         _______ _______ _______ _____ _____    ______ ____
ROOT
ATOM      1  C   UNL     1       9.296  -0.431  25.757  0.00  0.00    +0.036 C 
ATOM      2  C   UNL     1       8.581  -0.218  24.422  0.00  0.00    +0.140 C 
ENDROOT
BRANCH   2   3
ATOM      3  C   UNL     1       8.068  -1.511  23.827  0.00  0.00    +0.013 A 
ATOM      4  S   UNL     1       6.802  -1.471  22.674  0.00  0.00    -0.091 S 
ATOM      5  C   UNL     1       6.795  -3.181  22.484  0.00  0.00    +0.020 A 
ATOM      6  C   UNL     1       7.751  -3.787  23.301  0.00  0.00    -0.010 A 
ATOM      7  C   UNL     1       7.874  -5.196  23.257  0.00  0.00    +0.009 A 
ATOM      8  C   UNL     1       7.055  -5.952  22.411  0.00  0.00    +0.001 A 
ATOM      9  C   UNL     1       6.110  -5.328  21.606  0.00  0.00    +0.001 A 
ATOM     10  C   UNL     1       5.964  -3.939  21.635  0.00  0.00    +0.015 A 
ATOM     11  C   UNL     1       8.469  -2.811  24.071  0.00  0.00    +0.021 A 
ENDBRANCH   2   3
BRANCH   2  12
ATOM     12  N   UNL     1       9.385   0.487  23.411  0.00  0.00    -0.160 N 
ATOM     13  C   UNL     1       8.977   1.538  22.632  0.00  0.00    +0.323 C 
ATOM     14  O   UNL     1       7.910   2.132  22.730  0.00  0.00    -0.251 OA
ATOM     15  N   UNL     1       9.874   1.924  21.685  0.00  0.00    -0.312 N 
ATOM     16  H   UNL     1       9.649   2.762  21.168  0.00  0.00    +0.147 HD
ATOM     17  H   UNL     1      10.843   1.692  21.840  0.00  0.00    +0.147 HD
BRANCH  12  18
ATOM     18  O   UNL     1      10.562  -0.202  23.039  0.00  0.00    -0.291 OA
ATOM     19  H   UNL     1      11.239   0.487  23.173  0.00  0.00    +0.242 HD
ENDBRANCH  12  18
ENDBRANCH   2  12
TORSDOF 3
ENDMDL
MODEL 8
REMARK VINA RESULT:      -5.3      3.748      5.760
REMARK  Name = 
REMARK  4 active torsions:
REMARK  status: ('A' for Active; 'I' for Inactive)
REMARK    1  A    between atoms: C_1  and  C_2
REMARK    2  A    between atoms: C_2  and  N_3
REMARK    3  A    between atoms: C_2  and  C_8
REMARK    4  A    between atoms: N_3  and  O_4
REMARK                            x       y       z     vdW  Elec       q    Type
REMARK                         _______ _______ _______ _____ _____    ______ ____
ROOT
ATOM      1  C   UNL     1       7.727   1.528  25.711  0.00  0.00    +0.036 C 
ATOM      2  C   UNL     1       7.845   0.994  24.283  0.00  0.00    +0.140 C 
ENDROOT
BRANCH   2   3
ATOM      3  C   UNL     1       7.945  -0.515  24.237  0.00  0.00    +0.013 A 
ATOM      4  S   UNL     1       7.148  -1.380  22.991  0.00  0.00    -0.091 S 
ATOM      5  C   UNL     1       7.701  -2.904  23.568  0.00  0.00    +0.020 A 
ATOM      6  C   UNL     1       8.487  -2.760  24.712  0.00  0.00    -0.010 A 
ATOM      7  C   UNL     1       9.024  -3.926  25.308  0.00  0.00    +0.009 A 
ATOM      8  C   UNL     1       8.768  -5.185  24.754  0.00  0.00    +0.001 A 
ATOM      9  C   UNL     1       7.981  -5.306  23.615  0.00  0.00    +0.001 A 
ATOM     10  C   UNL     1       7.435  -4.171  23.011  0.00  0.00    +0.015 A 
ATOM     11  C   UNL     1       8.610  -1.379  25.086  0.00  0.00    +0.021 A 
ENDBRANCH   2   3
BRANCH   2  12
ATOM     12  N   UNL     1       8.958   1.570  23.513  0.00  0.00    -0.160 N 
ATOM     13  C   UNL     1       8.959   1.863  22.175  0.00  0.00    +0.323 C 
ATOM     14  O   UNL     1       7.991   1.795  21.425  0.00  0.00    -0.251 OA
ATOM     15  N   UNL     1      10.160   2.269  21.682  0.00  0.00    -0.312 N 
ATOM     16  H   UNL     1      10.166   2.595  20.726  0.00  0.00    +0.147 HD
ATOM     17  H   UNL     1      10.823   2.658  22.335  0.00  0.00    +0.147 HD
BRANCH  12  18
ATOM     18  O   UNL     1      10.202   1.519  24.185  0.00  0.00    -0.291 OA
ATOM     19  H   UNL     1      10.037   0.817  24.841  0.00  0.00    +0.242 HD
ENDBRANCH  12  18
ENDBRANCH   2  12
TORSDOF 3
ENDMDL
MODEL 9
REMARK VINA RESULT:      -5.2      1.881      2.808
REMARK  Name = 
REMARK  4 active torsions:
REMARK  status: ('A' for Active; 'I' for Inactive)
REMARK    1  A    between atoms: C_1  and  C_2
REMARK    2  A    between atoms: C_2  and  N_3
REMARK    3  A    between atoms: C_2  and  C_8
REMARK    4  A    between atoms: N_3  and  O_4
REMARK                            x       y       z     vdW  Elec       q    Type
REMARK                         _______ _______ _______ _____ _____    ______ ____
ROOT
ATOM      1  C   UNL     1       8.112  -4.567  25.595  0.00  0.00    +0.036 C 
ATOM      2  C   UNL     1       8.344  -4.371  24.095  0.00  0.00    +0.140 C 
ENDROOT
BRANCH   2   3
ATOM      3  C   UNL     1       8.713  -2.945  23.749  0.00  0.00    +0.013 A 
ATOM      4  S   UNL     1       9.068  -1.833  25.003  0.00  0.00    -0.091 S 
ATOM      5  C   UNL     1       9.379  -0.548  23.902  0.00  0.00    +0.020 A 
ATOM      6  C   UNL     1       9.209  -0.960  22.579  0.00  0.00    -0.010 A 
ATOM      7  C   UNL     1       9.434  -0.016  21.549  0.00  0.00    +0.009 A 
ATOM      8  C   UNL     1       9.818   1.294  21.861  0.00  0.00    +0.001 A 
ATOM      9  C   UNL     1       9.982   1.682  23.185  0.00  0.00    +0.001 A 
ATOM     10  C   UNL     1       9.761   0.771  24.220  0.00  0.00    +0.015 A 
ATOM     11  C   UNL     1       8.819  -2.340  22.512  0.00  0.00    +0.021 A 
ENDBRANCH   2   3
BRANCH   2  12
ATOM     12  N   UNL     1       7.216  -4.791  23.250  0.00  0.00    -0.160 N 
ATOM     13  C   UNL     1       5.898  -4.460  23.423  0.00  0.00    +0.323 C 
ATOM     14  O   UNL     1       5.460  -3.668  24.250  0.00  0.00    -0.251 OA
ATOM     15  N   UNL     1       5.039  -5.086  22.575  0.00  0.00    -0.312 N 
ATOM     16  H   UNL     1       4.076  -4.782  22.606  0.00  0.00    +0.147 HD
ATOM     17  H   UNL     1       5.413  -5.432  21.705  0.00  0.00    +0.147 HD
BRANCH  12  18
ATOM     18  O   UNL     1       7.526  -5.863  22.380  0.00  0.00    -0.291 OA
ATOM     19  H   UNL     1       7.484  -5.423  21.511  0.00  0.00    +0.242 HD
ENDBRANCH  12  18
ENDBRANCH   2  12
TORSDOF 3
ENDMDL
