MODEL 1
REMARK VINA RESULT:      -6.3      0.000      0.000
REMARK  Name = 
REMARK  2 active torsions:
REMARK  status: ('A' for Active; 'I' for Inactive)
REMARK    1  A    between atoms: C_4  and  C_7
REMARK    2  A    between atoms: C_10  and  O_11
REMARK                            x       y       z     vdW  Elec       q    Type
REMARK                         _______ _______ _______ _____ _____    ______ ____
ROOT
ATOM      1  N   UNL     1      10.040  -5.674  25.577  0.00  0.00    -0.338 N 
ATOM      2  H   UNL     1       9.516  -6.314  26.159  0.00  0.00    +0.144 HD
ATOM      3  H   UNL     1      10.931  -5.383  25.963  0.00  0.00    +0.144 HD
ATOM      4  C   UNL     1       9.361  -4.737  24.896  0.00  0.00    +0.156 A 
ATOM      5  S   UNL     1       7.688  -4.919  24.570  0.00  0.00    -0.060 S 
ATOM      6  C   UNL     1       7.696  -3.415  23.750  0.00  0.00    +0.076 A 
ATOM      7  C   UNL     1       8.961  -2.857  23.784  0.00  0.00    +0.080 A 
ATOM      8  N   UNL     1       9.904  -3.631  24.454  0.00  0.00    -0.225 NA
ENDROOT
BRANCH   7   9
ATOM      9  C   UNL     1       9.322  -1.566  23.192  0.00  0.00    +0.001 A 
ATOM     10  C   UNL     1       9.048  -1.250  21.852  0.00  0.00    +0.013 A 
ATOM     11  C   UNL     1       9.380   0.003  21.328  0.00  0.00    +0.046 A 
ATOM     12  C   UNL     1       9.986   0.952  22.138  0.00  0.00    +0.117 A 
ATOM     13  C   UNL     1      10.283   0.664  23.465  0.00  0.00    +0.046 A 
ATOM     14  C   UNL     1       9.953  -0.592  23.986  0.00  0.00    +0.013 A 
BRANCH  12  15
ATOM     15  O   UNL     1      10.270   2.168  21.591  0.00  0.00    -0.507 OA
ATOM     16  H   UNL     1      10.760   2.028  20.765  0.00  0.00    +0.292 HD
ENDBRANCH  12  15
ENDBRANCH   7   9
TORSDOF 2
ENDMDL
MODEL 2
REMARK VINA RESULT:      -5.8      5.286      6.813
REMARK  Name = 
REMARK  2 active torsions:
REMARK  status: ('A' for Active; 'I' for Inactive)
REMARK    1  A    between atoms: C_4  and  C_7
REMARK    2  A    between atoms: C_10  and  O_11
REMARK                            x       y       z     vdW  Elec       q    Type
REMARK                         _______ _______ _______ _____ _____    ______ ____
ROOT
ATOM      1  N   UNL     1      12.836   6.133  23.772  0.00  0.00    -0.338 N 
ATOM      2  H   UNL     1      12.696   7.130  23.687  0.00  0.00    +0.144 HD
ATOM      3  H   UNL     1      13.670   5.781  23.316  0.00  0.00    +0.144 HD
ATOM      4  C   UNL     1      11.758   5.335  23.722  0.00  0.00    +0.156 A 
ATOM      5  S   UNL     1      10.189   5.948  24.042  0.00  0.00    -0.060 S 
ATOM      6  C   UNL     1       9.538   4.386  23.776  0.00  0.00    +0.076 A 
ATOM      7  C   UNL     1      10.544   3.496  23.446  0.00  0.00    +0.080 A 
ATOM      8  N   UNL     1      11.814   4.064  23.414  0.00  0.00    -0.225 NA
ENDROOT
BRANCH   7   9
ATOM      9  C   UNL     1      10.339   2.078  23.138  0.00  0.00    +0.001 A 
ATOM     10  C   UNL     1       9.822   1.643  21.908  0.00  0.00    +0.013 A 
ATOM     11  C   UNL     1       9.667   0.280  21.637  0.00  0.00    +0.046 A 
ATOM     12  C   UNL     1      10.028  -0.660  22.591  0.00  0.00    +0.117 A 
ATOM     13  C   UNL     1      10.528  -0.260  23.824  0.00  0.00    +0.046 A 
ATOM     14  C   UNL     1      10.679   1.105  24.094  0.00  0.00    +0.013 A 
BRANCH  12  15
ATOM     15  O   UNL     1       9.881  -1.977  22.274  0.00  0.00    -0.507 OA
ATOM     16  H   UNL     1      10.572  -2.484  22.728  0.00  0.00    +0.292 HD
ENDBRANCH  12  15
ENDBRANCH   7   9
TORSDOF 2
ENDMDL
MODEL 3
REMARK VINA RESULT:      -5.6      1.474      1.620
REMARK  Name = 
REMARK  2 active torsions:
REMARK  status: ('A' for Active; 'I' for Inactive)
REMARK    1  A    between atoms: C_4  and  C_7
REMARK    2  A    between atoms: C_10  and  O_11
REMARK                            x       y       z     vdW  Elec       q    Type
REMARK                         _______ _______ _______ _____ _____    ______ ____
ROOT
ATOM      1  N   UNL     1       6.693  -5.583  23.103  0.00  0.00    -0.338 N 
ATOM      2  H   UNL     1       6.813  -6.547  23.384  0.00  0.00    +0.144 HD
ATOM      3  H   UNL     1       6.314  -5.457  22.172  0.00  0.00    +0.144 HD
ATOM      4  C   UNL     1       7.621  -4.692  23.486  0.00  0.00    +0.156 A 
ATOM      5  S   UNL     1       8.658  -5.010  24.813  0.00  0.00    -0.060 S 
ATOM      6  C   UNL     1       9.406  -3.487  24.578  0.00  0.00    +0.076 A 
ATOM      7  C   UNL     1       8.838  -2.835  23.499  0.00  0.00    +0.080 A 
ATOM      8  N   UNL     1       7.816  -3.548  22.880  0.00  0.00    -0.225 NA
ENDROOT
BRANCH   7   9
ATOM      9  C   UNL     1       9.248  -1.516  23.008  0.00  0.00    +0.001 A 
ATOM     10  C   UNL     1       9.019  -1.102  21.687  0.00  0.00    +0.013 A 
ATOM     11  C   UNL     1       9.397   0.175  21.260  0.00  0.00    +0.046 A 
ATOM     12  C   UNL     1      10.005   1.049  22.149  0.00  0.00    +0.117 A 
ATOM     13  C   UNL     1      10.258   0.663  23.459  0.00  0.00    +0.046 A 
ATOM     14  C   UNL     1       9.882  -0.617  23.883  0.00  0.00    +0.013 A 
BRANCH  12  15
ATOM     15  O   UNL     1      10.335   2.291  21.694  0.00  0.00    -0.507 OA
ATOM     16  H   UNL     1      11.302   2.370  21.682  0.00  0.00    +0.292 HD
ENDBRANCH  12  15
ENDBRANCH   7   9
TORSDOF 2
ENDMDL
MODEL 4
REMARK VINA RESULT:      -5.3      4.132      6.127
REMARK  Name = 
REMARK  2 active torsions:
REMARK  status: ('A' for Active; 'I' for Inactive)
REMARK    1  A    between atoms: C_4  and  C_7
REMARK    2  A    between atoms: C_10  and  O_11
REMARK                            x       y       z     vdW  Elec       q    Type
REMARK                         _______ _______ _______ _____ _____    ______ ____
ROOT
ATOM      1  N   UNL     1       9.665  -0.793  21.229  0.00  0.00    -0.338 N 
ATOM      2  H   UNL     1      10.084   0.102  21.446  0.00  0.00    +0.144 HD
ATOM      3  H   UNL     1       9.060  -0.792  20.417  0.00  0.00    +0.144 HD
ATOM      4  C   UNL     1       9.276  -1.573  22.250  0.00  0.00    +0.156 A 
ATOM      5  S   UNL     1       9.921  -1.357  23.824  0.00  0.00    -0.060 S 
ATOM      6  C   UNL     1       8.953  -2.655  24.385  0.00  0.00    +0.076 A 
ATOM      7  C   UNL     1       8.188  -3.165  23.352  0.00  0.00    +0.080 A 
ATOM      8  N   UNL     1       8.385  -2.524  22.132  0.00  0.00    -0.225 NA
ENDROOT
BRANCH   7   9
ATOM      9  C   UNL     1       7.236  -4.271  23.483  0.00  0.00    +0.001 A 
ATOM     10  C   UNL     1       6.578  -4.557  24.690  0.00  0.00    +0.013 A 
ATOM     11  C   UNL     1       5.652  -5.602  24.772  0.00  0.00    +0.046 A 
ATOM     12  C   UNL     1       5.375  -6.370  23.649  0.00  0.00    +0.117 A 
ATOM     13  C   UNL     1       6.022  -6.121  22.445  0.00  0.00    +0.046 A 
ATOM     14  C   UNL     1       6.950  -5.076  22.366  0.00  0.00    +0.013 A 
BRANCH  12  15
ATOM     15  O   UNL     1       4.449  -7.363  23.771  0.00  0.00    -0.507 OA
ATOM     16  H   UNL     1       4.851  -8.197  23.483  0.00  0.00    +0.292 HD
ENDBRANCH  12  15
ENDBRANCH   7   9
TORSDOF 2
ENDMDL
MODEL 5
REMARK VINA RESULT:      -5.3      5.419      7.120
REMARK  Name = 
REMARK  2 active torsions:
REMARK  status: ('A' for Active; 'I' for Inactive)
REMARK    1  A    between atoms: C_4  and  C_7
REMARK    2  A    between atoms: C_10  and  O_11
REMARK                            x       y       z     vdW  Elec       q    Type
REMARK                         _______ _______ _______ _____ _____    ______ ____
ROOT
ATOM      1  N   UNL     1       9.388   6.723  24.282  0.00  0.00    -0.338 N 
ATOM      2  H   UNL     1       9.825   7.534  24.698  0.00  0.00    +0.144 HD
ATOM      3  H   UNL     1       8.475   6.494  24.658  0.00  0.00    +0.144 HD
ATOM      4  C   UNL     1      10.167   5.680  23.956  0.00  0.00    +0.156 A 
ATOM      5  S   UNL     1      11.856   5.874  23.734  0.00  0.00    -0.060 S 
ATOM      6  C   UNL     1      11.989   4.203  23.379  0.00  0.00    +0.076 A 
ATOM      7  C   UNL     1      10.751   3.595  23.465  0.00  0.00    +0.080 A 
ATOM      8  N   UNL     1       9.716   4.461  23.805  0.00  0.00    -0.225 NA
ENDROOT
BRANCH   7   9
ATOM      9  C   UNL     1      10.502   2.168  23.239  0.00  0.00    +0.001 A 
ATOM     10  C   UNL     1      10.749   1.197  24.222  0.00  0.00    +0.013 A 
ATOM     11  C   UNL     1      10.473  -0.153  23.983  0.00  0.00    +0.046 A 
ATOM     12  C   UNL     1       9.946  -0.544  22.760  0.00  0.00    +0.117 A 
ATOM     13  C   UNL     1       9.705   0.392  21.762  0.00  0.00    +0.046 A 
ATOM     14  C   UNL     1       9.985   1.742  22.003  0.00  0.00    +0.013 A 
BRANCH  12  15
ATOM     15  O   UNL     1       9.671  -1.867  22.580  0.00  0.00    -0.507 OA
ATOM     16  H   UNL     1       8.786  -1.949  22.190  0.00  0.00    +0.292 HD
ENDBRANCH  12  15
ENDBRANCH   7   9
TORSDOF 2
ENDMDL
MODEL 6
REMARK VINA RESULT:      -5.1      3.914      5.420
REMARK  Name = 
REMARK  2 active torsions:
REMARK  status: ('A' for Active; 'I' for Inactive)
REMARK    1  A    between atoms: C_4  and  C_7
REMARK    2  A    between atoms: C_10  and  O_11
REMARK                            x       y       z     vdW  Elec       q    Type
REMARK                         _______ _______ _______ _____ _____    ______ ____
ROOT
ATOM      1  N   UNL     1      10.011   2.173  21.719  0.00  0.00    -0.338 N 
ATOM      2  H   UNL     1      10.281   3.062  22.118  0.00  0.00    +0.144 HD
ATOM      3  H   UNL     1       9.312   2.232  20.987  0.00  0.00    +0.144 HD
ATOM      4  C   UNL     1       9.915   1.114  22.539  0.00  0.00    +0.156 A 
ATOM      5  S   UNL     1      10.714   1.096  24.056  0.00  0.00    -0.060 S 
ATOM      6  C   UNL     1      10.089  -0.472  24.352  0.00  0.00    +0.076 A 
ATOM      7  C   UNL     1       9.301  -0.882  23.293  0.00  0.00    +0.080 A 
ATOM      8  N   UNL     1       9.208   0.049  22.262  0.00  0.00    -0.225 NA
ENDROOT
BRANCH   7   9
ATOM      9  C   UNL     1       8.597  -2.166  23.222  0.00  0.00    +0.001 A 
ATOM     10  C   UNL     1       7.579  -2.414  22.287  0.00  0.00    +0.013 A 
ATOM     11  C   UNL     1       6.948  -3.661  22.228  0.00  0.00    +0.046 A 
ATOM     12  C   UNL     1       7.330  -4.670  23.100  0.00  0.00    +0.117 A 
ATOM     13  C   UNL     1       8.323  -4.450  24.046  0.00  0.00    +0.046 A 
ATOM     14  C   UNL     1       8.951  -3.200  24.106  0.00  0.00    +0.013 A 
BRANCH  12  15
ATOM     15  O   UNL     1       6.703  -5.876  22.990  0.00  0.00    -0.507 OA
ATOM     16  H   UNL     1       6.042  -5.817  22.282  0.00  0.00    +0.292 HD
ENDBRANCH  12  15
ENDBRANCH   7   9
TORSDOF 2
ENDMDL
MODEL 7
REMARK VINA RESULT:      -5.1      3.924      5.664
REMARK  Name = 
REMARK  2 active torsions:
REMARK  status: ('A' for Active; 'I' for Inactive)
REMARK    1  A    between atoms: C_4  and  C_7
REMARK    2  A    between atoms: C_10  and  O_11
REMARK                            x       y       z     vdW  Elec       q    Type
REMARK                         _______ _______ _______ _____ _____    ______ ____
ROOT
ATOM      1  N   UNL     1      10.495   1.668  24.003  0.00  0.00    -0.338 N 
ATOM      2  H   UNL     1      11.014   2.153  23.283  0.00  0.00    +0.144 HD
ATOM      3  H   UNL     1      10.816   1.844  24.948  0.00  0.00    +0.144 HD
ATOM      4  C   UNL     1      10.075   0.419  23.748  0.00  0.00    +0.156 A 
ATOM      5  S   UNL     1       9.926  -0.153  22.139  0.00  0.00    -0.060 S 
ATOM      6  C   UNL     1       9.387  -1.665  22.739  0.00  0.00    +0.076 A 
ATOM      7  C   UNL     1       9.366  -1.652  24.122  0.00  0.00    +0.080 A 
ATOM      8  N   UNL     1       9.772  -0.445  24.684  0.00  0.00    -0.225 NA
ENDROOT
BRANCH   7   9
ATOM      9  C   UNL     1       8.971  -2.786  24.963  0.00  0.00    +0.001 A 
ATOM     10  C   UNL     1       9.576  -4.048  24.855  0.00  0.00    +0.013 A 
ATOM     11  C   UNL     1       9.195  -5.099  25.695  0.00  0.00    +0.046 A 
ATOM     12  C   UNL     1       8.207  -4.899  26.649  0.00  0.00    +0.117 A 
ATOM     13  C   UNL     1       7.580  -3.666  26.769  0.00  0.00    +0.046 A 
ATOM     14  C   UNL     1       7.961  -2.615  25.925  0.00  0.00    +0.013 A 
BRANCH  12  15
ATOM     15  O   UNL     1       7.885  -5.946  27.459  0.00  0.00    -0.507 OA
ATOM     16  H   UNL     1       7.252  -5.638  28.127  0.00  0.00    +0.292 HD
ENDBRANCH  12  15
ENDBRANCH   7   9
TORSDOF 2
ENDMDL
MODEL 8
REMARK VINA RESULT:      -5.0      5.209      6.686
REMARK  Name = 
REMARK  2 active torsions:
REMARK  status: ('A' for Active; 'I' for Inactive)
REMARK    1  A    between atoms: C_4  and  C_7
REMARK    2  A    between atoms: C_10  and  O_11
REMARK                            x       y       z     vdW  Elec       q    Type
REMARK                         _______ _______ _______ _____ _____    ______ ____
ROOT
ATOM      1  N   UNL     1       6.592   5.770  21.931  0.00  0.00    -0.338 N 
ATOM      2  H   UNL     1       6.225   6.584  22.405  0.00  0.00    +0.144 HD
ATOM      3  H   UNL     1       5.911   5.254  21.386  0.00  0.00    +0.144 HD
ATOM      4  C   UNL     1       7.517   5.032  22.564  0.00  0.00    +0.156 A 
ATOM      5  S   UNL     1       8.443   5.687  23.850  0.00  0.00    -0.060 S 
ATOM      6  C   UNL     1       9.261   4.190  24.008  0.00  0.00    +0.076 A 
ATOM      7  C   UNL     1       8.775   3.278  23.089  0.00  0.00    +0.080 A 
ATOM      8  N   UNL     1       7.766   3.781  22.272  0.00  0.00    -0.225 NA
ENDROOT
BRANCH   7   9
ATOM      9  C   UNL     1       9.239   1.894  22.958  0.00  0.00    +0.001 A 
ATOM     10  C   UNL     1       9.197   1.200  21.739  0.00  0.00    +0.013 A 
ATOM     11  C   UNL     1       9.676  -0.110  21.643  0.00  0.00    +0.046 A 
ATOM     12  C   UNL     1      10.202  -0.738  22.763  0.00  0.00    +0.117 A 
ATOM     13  C   UNL     1      10.244  -0.082  23.987  0.00  0.00    +0.046 A 
ATOM     14  C   UNL     1       9.761   1.229  24.081  0.00  0.00    +0.013 A 
BRANCH  12  15
ATOM     15  O   UNL     1      10.678  -2.006  22.616  0.00  0.00    -0.507 OA
ATOM     16  H   UNL     1       9.936  -2.627  22.698  0.00  0.00    +0.292 HD
ENDBRANCH  12  15
ENDBRANCH   7   9
TORSDOF 2
ENDMDL
MODEL 9
REMARK VINA RESULT:      -5.0      2.053      2.667
REMARK  Name = 
REMARK  2 active torsions:
REMARK  status: ('A' for Active; 'I' for Inactive)
REMARK    1  A    between atoms: C_4  and  C_7
REMARK    2  A    between atoms: C_10  and  O_11
REMARK                            x       y       z     vdW  Elec       q    Type
REMARK                         _______ _______ _______ _____ _____    ______ ____
ROOT
ATOM      1  N   UNL     1       6.090  -3.838  22.721  0.00  0.00    -0.338 N 
ATOM      2  H   UNL     1       6.074  -4.848  22.662  0.00  0.00    +0.144 HD
ATOM      3  H   UNL     1       5.592  -3.363  21.977  0.00  0.00    +0.144 HD
ATOM      4  C   UNL     1       7.217  -3.247  23.146  0.00  0.00    +0.156 A 
ATOM      5  S   UNL     1       8.383  -4.115  24.056  0.00  0.00    -0.060 S 
ATOM      6  C   UNL     1       9.351  -2.704  24.138  0.00  0.00    +0.076 A 
ATOM      7  C   UNL     1       8.743  -1.664  23.460  0.00  0.00    +0.080 A 
ATOM      8  N   UNL     1       7.518  -1.999  22.890  0.00  0.00    -0.225 NA
ENDROOT
BRANCH   7   9
ATOM      9  C   UNL     1       9.303  -0.317  23.316  0.00  0.00    +0.001 A 
ATOM     10  C   UNL     1       9.881   0.375  24.392  0.00  0.00    +0.013 A 
ATOM     11  C   UNL     1      10.433   1.647  24.213  0.00  0.00    +0.046 A 
ATOM     12  C   UNL     1      10.414   2.238  22.958  0.00  0.00    +0.117 A 
ATOM     13  C   UNL     1       9.836   1.585  21.877  0.00  0.00    +0.046 A 
ATOM     14  C   UNL     1       9.281   0.312  22.060  0.00  0.00    +0.013 A 
BRANCH  12  15
ATOM     15  O   UNL     1      10.985   3.469  22.827  0.00  0.00    -0.507 OA
ATOM     16  H   UNL     1      11.830   3.370  22.360  0.00  0.00    +0.292 HD
ENDBRANCH  12  15
ENDBRANCH   7   9
TORSDOF 2
ENDMDL
