MODEL 1
REMARK VINA RESULT:      -5.0      0.000      0.000
REMARK  Name = 
REMARK  12 active torsions:
REMARK  status: ('A' for Active; 'I' for Inactive)
REMARK    1  A    between atoms: O_1  and  N_2
REMARK    2  A    between atoms: N_2  and  C_3
REMARK    3  A    between atoms: C_3  and  O_5
REMARK    4  A    between atoms: C_3  and  C_6
REMARK    5  A    between atoms: C_6  and  O_8
REMARK    6  A    between atoms: C_6  and  C_9
REMARK    7  A    between atoms: C_9  and  O_11
REMARK    8  A    between atoms: C_9  and  C_12
REMARK    9  A    between atoms: C_12  and  O_13
REMARK   10  A    between atoms: O_13  and  P_14
REMARK   11  A    between atoms: P_14  and  O_15
REMARK   12  A    between atoms: P_14  and  O_16
REMARK                            x       y       z     vdW  Elec       q    Type
REMARK                         _______ _______ _______ _____ _____    ______ ____
ROOT
ATOM      1  C   UNL     1       7.659  -3.647  23.939  0.00  0.00    +0.173 C 
ENDROOT
BRANCH   1   2
ATOM      2  O   UNL     1       7.719  -4.704  22.961  0.00  0.00    -0.387 OA
ATOM      3  H   UNL     1       6.792  -4.937  22.779  0.00  0.00    +0.210 HD
ENDBRANCH   1   2
BRANCH   1   4
ATOM      4  C   UNL     1       8.859  -3.745  24.894  0.00  0.00    +0.190 C 
BRANCH   4   5
ATOM      5  O   UNL     1      10.074  -3.454  24.175  0.00  0.00    -0.385 OA
ATOM      6  H   UNL     1       9.774  -3.070  23.327  0.00  0.00    +0.210 HD
ENDBRANCH   4   5
BRANCH   4   7
ATOM      7  C   UNL     1       9.015  -5.119  25.594  0.00  0.00    +0.237 C 
BRANCH   7   8
ATOM      8  N   UNL     1       8.930  -4.968  27.056  0.00  0.00    -0.173 NA
ATOM      9  H   UNL     1       9.775  -5.420  27.422  0.00  0.00    +0.157 HD
BRANCH   8  10
ATOM     10  O   UNL     1       7.892  -5.894  27.496  0.00  0.00    -0.313 OA
ATOM     11  H   UNL     1       7.212  -5.811  26.798  0.00  0.00    +0.236 HD
ENDBRANCH   8  10
ENDBRANCH   7   8
BRANCH   7  12
ATOM     12  O   UNL     1      10.305  -5.648  25.332  0.00  0.00    -0.373 OA
ATOM     13  H   UNL     1      10.189  -6.177  24.522  0.00  0.00    +0.212 HD
ENDBRANCH   7  12
ENDBRANCH   4   7
ENDBRANCH   1   4
BRANCH   1  14
ATOM     14  C   UNL     1       7.499  -2.299  23.222  0.00  0.00    +0.206 C 
BRANCH  14  15
ATOM     15  O   UNL     1       8.413  -2.288  22.125  0.00  0.00    -0.284 OA
BRANCH  15  16
ATOM     16  P   UNL     1       9.208  -0.772  21.874  0.00  0.00    +0.472 P 
ATOM     17  O   UNL     1       9.920   0.584  21.649  0.00  0.00    -0.228 OA
BRANCH  16  18
ATOM     18  O   UNL     1      10.587  -1.639  21.794  0.00  0.00    -0.303 OA
ATOM     19  H   UNL     1      10.823  -1.752  20.860  0.00  0.00    +0.222 HD
ENDBRANCH  16  18
BRANCH  16  20
ATOM     20  O   UNL     1       9.231  -0.610  23.501  0.00  0.00    -0.303 OA
ATOM     21  H   UNL     1       8.869   0.280  23.687  0.00  0.00    +0.222 HD
ENDBRANCH  16  20
ENDBRANCH  15  16
ENDBRANCH  14  15
ENDBRANCH   1  14
TORSDOF 12
ENDMDL
MODEL 2
REMARK VINA RESULT:      -4.9      3.331      5.832
REMARK  Name = 
REMARK  12 active torsions:
REMARK  status: ('A' for Active; 'I' for Inactive)
REMARK    1  A    between atoms: O_1  and  N_2
REMARK    2  A    between atoms: N_2  and  C_3
REMARK    3  A    between atoms: C_3  and  O_5
REMARK    4  A    between atoms: C_3  and  C_6
REMARK    5  A    between atoms: C_6  and  O_8
REMARK    6  A    between atoms: C_6  and  C_9
REMARK    7  A    between atoms: C_9  and  O_11
REMARK    8  A    between atoms: C_9  and  C_12
REMARK    9  A    between atoms: C_12  and  O_13
REMARK   10  A    between atoms: O_13  and  P_14
REMARK   11  A    between atoms: P_14  and  O_15
REMARK   12  A    between atoms: P_14  and  O_16
REMARK                            x       y       z     vdW  Elec       q    Type
REMARK                         _______ _______ _______ _____ _____    ______ ____
ROOT
ATOM      1  C   UNL     1      10.238  -1.472  22.678  0.00  0.00    +0.173 C 
ENDROOT
BRANCH   1   2
ATOM      2  O   UNL     1       9.783  -1.233  21.331  0.00  0.00    -0.387 OA
ATOM      3  H   UNL     1       9.735  -2.113  20.917  0.00  0.00    +0.210 HD
ENDBRANCH   1   2
BRANCH   1   4
ATOM      4  C   UNL     1      10.485  -0.136  23.394  0.00  0.00    +0.190 C 
BRANCH   4   5
ATOM      5  O   UNL     1      10.406  -0.329  24.820  0.00  0.00    -0.385 OA
ATOM      6  H   UNL     1       9.658   0.234  25.105  0.00  0.00    +0.210 HD
ENDBRANCH   4   5
BRANCH   4   7
ATOM      7  C   UNL     1       9.511   1.001  22.994  0.00  0.00    +0.237 C 
BRANCH   7   8
ATOM      8  N   UNL     1       9.902   1.589  21.703  0.00  0.00    -0.173 NA
ATOM      9  H   UNL     1       9.902   2.603  21.858  0.00  0.00    +0.157 HD
BRANCH   8  10
ATOM     10  O   UNL     1       8.748   1.430  20.824  0.00  0.00    -0.313 OA
ATOM     11  H   UNL     1       8.080   1.017  21.408  0.00  0.00    +0.236 HD
ENDBRANCH   8  10
ENDBRANCH   7   8
BRANCH   7  12
ATOM     12  O   UNL     1       9.587   2.056  23.940  0.00  0.00    -0.373 OA
ATOM     13  H   UNL     1      10.294   1.779  24.552  0.00  0.00    +0.212 HD
ENDBRANCH   7  12
ENDBRANCH   4   7
ENDBRANCH   1   4
BRANCH   1  14
ATOM     14  C   UNL     1       9.262  -2.424  23.383  0.00  0.00    +0.206 C 
BRANCH  14  15
ATOM     15  O   UNL     1      10.043  -3.370  24.115  0.00  0.00    -0.284 OA
BRANCH  15  16
ATOM     16  P   UNL     1       9.120  -4.416  25.137  0.00  0.00    +0.472 P 
ATOM     17  O   UNL     1       8.294  -5.353  26.054  0.00  0.00    -0.228 OA
BRANCH  16  18
ATOM     18  O   UNL     1      10.458  -5.346  25.201  0.00  0.00    -0.303 OA
ATOM     19  H   UNL     1      10.419  -5.881  26.010  0.00  0.00    +0.222 HD
ENDBRANCH  16  18
BRANCH  16  20
ATOM     20  O   UNL     1       8.533  -5.097  23.772  0.00  0.00    -0.303 OA
ATOM     21  H   UNL     1       7.594  -4.827  23.718  0.00  0.00    +0.222 HD
ENDBRANCH  16  20
ENDBRANCH  15  16
ENDBRANCH  14  15
ENDBRANCH   1  14
TORSDOF 12
ENDMDL
MODEL 3
REMARK VINA RESULT:      -4.9      3.341      5.650
REMARK  Name = 
REMARK  12 active torsions:
REMARK  status: ('A' for Active; 'I' for Inactive)
REMARK    1  A    between atoms: O_1  and  N_2
REMARK    2  A    between atoms: N_2  and  C_3
REMARK    3  A    between atoms: C_3  and  O_5
REMARK    4  A    between atoms: C_3  and  C_6
REMARK    5  A    between atoms: C_6  and  O_8
REMARK    6  A    between atoms: C_6  and  C_9
REMARK    7  A    between atoms: C_9  and  O_11
REMARK    8  A    between atoms: C_9  and  C_12
REMARK    9  A    between atoms: C_12  and  O_13
REMARK   10  A    between atoms: O_13  and  P_14
REMARK   11  A    between atoms: P_14  and  O_15
REMARK   12  A    between atoms: P_14  and  O_16
REMARK                            x       y       z     vdW  Elec       q    Type
REMARK                         _______ _______ _______ _____ _____    ______ ____
ROOT
ATOM      1  C   UNL     1       8.416   1.159  24.167  0.00  0.00    +0.173 C 
ENDROOT
BRANCH   1   2
ATOM      2  O   UNL     1       9.761   1.674  24.101  0.00  0.00    -0.387 OA
ATOM      3  H   UNL     1       9.669   2.585  23.771  0.00  0.00    +0.210 HD
ENDBRANCH   1   2
BRANCH   1   4
ATOM      4  C   UNL     1       7.769   1.198  22.774  0.00  0.00    +0.190 C 
BRANCH   4   5
ATOM      5  O   UNL     1       6.898   0.060  22.612  0.00  0.00    -0.385 OA
ATOM      6  H   UNL     1       7.494  -0.714  22.653  0.00  0.00    +0.210 HD
ENDBRANCH   4   5
BRANCH   4   7
ATOM      7  C   UNL     1       8.775   1.223  21.595  0.00  0.00    +0.237 C 
BRANCH   7   8
ATOM      8  N   UNL     1       9.825   0.210  21.789  0.00  0.00    -0.173 NA
ATOM      9  H   UNL     1      10.616   0.530  21.220  0.00  0.00    +0.157 HD
BRANCH   8  10
ATOM     10  O   UNL     1       9.390  -0.967  21.045  0.00  0.00    -0.313 OA
ATOM     11  H   UNL     1       9.427  -0.667  20.115  0.00  0.00    +0.236 HD
ENDBRANCH   8  10
ENDBRANCH   7   8
BRANCH   7  12
ATOM     12  O   UNL     1       9.443   2.474  21.559  0.00  0.00    -0.373 OA
ATOM     13  H   UNL     1      10.359   2.251  21.311  0.00  0.00    +0.212 HD
ENDBRANCH   7  12
ENDBRANCH   4   7
ENDBRANCH   1   4
BRANCH   1  14
ATOM     14  C   UNL     1       8.431  -0.218  24.845  0.00  0.00    +0.206 C 
BRANCH  14  15
ATOM     15  O   UNL     1       9.551  -0.936  24.327  0.00  0.00    -0.284 OA
BRANCH  15  16
ATOM     16  P   UNL     1       9.314  -2.646  24.223  0.00  0.00    +0.472 P 
ATOM     17  O   UNL     1       9.103  -4.178  24.129  0.00  0.00    -0.228 OA
BRANCH  16  18
ATOM     18  O   UNL     1      10.526  -2.633  23.133  0.00  0.00    -0.303 OA
ATOM     19  H   UNL     1      10.357  -3.330  22.479  0.00  0.00    +0.222 HD
ENDBRANCH  16  18
BRANCH  16  20
ATOM     20  O   UNL     1       8.135  -2.333  23.134  0.00  0.00    -0.303 OA
ATOM     21  H   UNL     1       8.030  -3.153  22.609  0.00  0.00    +0.222 HD
ENDBRANCH  16  20
ENDBRANCH  15  16
ENDBRANCH  14  15
ENDBRANCH   1  14
TORSDOF 12
ENDMDL
MODEL 4
REMARK VINA RESULT:      -4.8      3.355      5.729
REMARK  Name = 
REMARK  12 active torsions:
REMARK  status: ('A' for Active; 'I' for Inactive)
REMARK    1  A    between atoms: O_1  and  N_2
REMARK    2  A    between atoms: N_2  and  C_3
REMARK    3  A    between atoms: C_3  and  O_5
REMARK    4  A    between atoms: C_3  and  C_6
REMARK    5  A    between atoms: C_6  and  O_8
REMARK    6  A    between atoms: C_6  and  C_9
REMARK    7  A    between atoms: C_9  and  O_11
REMARK    8  A    between atoms: C_9  and  C_12
REMARK    9  A    between atoms: C_12  and  O_13
REMARK   10  A    between atoms: O_13  and  P_14
REMARK   11  A    between atoms: P_14  and  O_15
REMARK   12  A    between atoms: P_14  and  O_16
REMARK                            x       y       z     vdW  Elec       q    Type
REMARK                         _______ _______ _______ _____ _____    ______ ____
ROOT
ATOM      1  C   UNL     1      10.377  -1.296  22.666  0.00  0.00    +0.173 C 
ENDROOT
BRANCH   1   2
ATOM      2  O   UNL     1       9.808  -1.889  21.482  0.00  0.00    -0.387 OA
ATOM      3  H   UNL     1      10.228  -2.765  21.409  0.00  0.00    +0.210 HD
ENDBRANCH   1   2
BRANCH   1   4
ATOM      4  C   UNL     1      10.135   0.222  22.660  0.00  0.00    +0.190 C 
BRANCH   4   5
ATOM      5  O   UNL     1       9.807   0.665  23.993  0.00  0.00    -0.385 OA
ATOM      6  H   UNL     1       9.328   1.507  23.862  0.00  0.00    +0.210 HD
ENDBRANCH   4   5
BRANCH   4   7
ATOM      7  C   UNL     1       9.020   0.695  21.693  0.00  0.00    +0.237 C 
BRANCH   7   8
ATOM      8  N   UNL     1       9.089   2.151  21.495  0.00  0.00    -0.173 NA
ATOM      9  H   UNL     1       9.016   2.288  20.481  0.00  0.00    +0.157 HD
BRANCH   8  10
ATOM     10  O   UNL     1      10.479   2.524  21.738  0.00  0.00    -0.313 OA
ATOM     11  H   UNL     1      10.427   3.044  22.565  0.00  0.00    +0.236 HD
ENDBRANCH   8  10
ENDBRANCH   7   8
BRANCH   7  12
ATOM     12  O   UNL     1       7.747   0.440  22.266  0.00  0.00    -0.373 OA
ATOM     13  H   UNL     1       7.552   1.242  22.785  0.00  0.00    +0.212 HD
ENDBRANCH   7  12
ENDBRANCH   4   7
ENDBRANCH   1   4
BRANCH   1  14
ATOM     14  C   UNL     1       9.860  -2.037  23.906  0.00  0.00    +0.206 C 
BRANCH  14  15
ATOM     15  O   UNL     1       8.433  -2.025  23.848  0.00  0.00    -0.284 OA
BRANCH  15  16
ATOM     16  P   UNL     1       7.698  -3.578  24.044  0.00  0.00    +0.472 P 
ATOM     17  O   UNL     1       7.040  -4.969  24.220  0.00  0.00    -0.228 OA
BRANCH  16  18
ATOM     18  O   UNL     1       9.217  -4.153  24.189  0.00  0.00    -0.303 OA
ATOM     19  H   UNL     1       9.516  -4.450  23.315  0.00  0.00    +0.222 HD
ENDBRANCH  16  18
BRANCH  16  20
ATOM     20  O   UNL     1       7.661  -3.675  22.412  0.00  0.00    -0.303 OA
ATOM     21  H   UNL     1       6.990  -3.024  22.120  0.00  0.00    +0.222 HD
ENDBRANCH  16  20
ENDBRANCH  15  16
ENDBRANCH  14  15
ENDBRANCH   1  14
TORSDOF 12
ENDMDL
MODEL 5
REMARK VINA RESULT:      -4.7      4.658      5.868
REMARK  Name = 
REMARK  12 active torsions:
REMARK  status: ('A' for Active; 'I' for Inactive)
REMARK    1  A    between atoms: O_1  and  N_2
REMARK    2  A    between atoms: N_2  and  C_3
REMARK    3  A    between atoms: C_3  and  O_5
REMARK    4  A    between atoms: C_3  and  C_6
REMARK    5  A    between atoms: C_6  and  O_8
REMARK    6  A    between atoms: C_6  and  C_9
REMARK    7  A    between atoms: C_9  and  O_11
REMARK    8  A    between atoms: C_9  and  C_12
REMARK    9  A    between atoms: C_12  and  O_13
REMARK   10  A    between atoms: O_13  and  P_14
REMARK   11  A    between atoms: P_14  and  O_15
REMARK   12  A    between atoms: P_14  and  O_16
REMARK                            x       y       z     vdW  Elec       q    Type
REMARK                         _______ _______ _______ _____ _____    ______ ____
ROOT
ATOM      1  C   UNL     1       8.345  -0.040  23.849  0.00  0.00    +0.173 C 
ENDROOT
BRANCH   1   2
ATOM      2  O   UNL     1       7.448  -0.298  22.751  0.00  0.00    -0.387 OA
ATOM      3  H   UNL     1       7.155  -1.218  22.872  0.00  0.00    +0.210 HD
ENDBRANCH   1   2
BRANCH   1   4
ATOM      4  C   UNL     1       9.802  -0.146  23.373  0.00  0.00    +0.190 C 
BRANCH   4   5
ATOM      5  O   UNL     1      10.610   0.826  24.066  0.00  0.00    -0.385 OA
ATOM      6  H   UNL     1      10.069   1.640  24.069  0.00  0.00    +0.210 HD
ENDBRANCH   4   5
BRANCH   4   7
ATOM      7  C   UNL     1       9.998   0.046  21.847  0.00  0.00    +0.237 C 
BRANCH   7   8
ATOM      8  N   UNL     1       9.321   1.269  21.388  0.00  0.00    -0.173 NA
ATOM      9  H   UNL     1       9.280   1.185  20.366  0.00  0.00    +0.157 HD
BRANCH   8  10
ATOM     10  O   UNL     1      10.288   2.349  21.552  0.00  0.00    -0.313 OA
ATOM     11  H   UNL     1      10.178   2.602  22.491  0.00  0.00    +0.236 HD
ENDBRANCH   8  10
ENDBRANCH   7   8
BRANCH   7  12
ATOM     12  O   UNL     1       9.386  -1.025  21.145  0.00  0.00    -0.373 OA
ATOM     13  H   UNL     1       9.829  -1.028  20.277  0.00  0.00    +0.212 HD
ENDBRANCH   7  12
ENDBRANCH   4   7
ENDBRANCH   1   4
BRANCH   1  14
ATOM     14  C   UNL     1       7.968   1.291  24.514  0.00  0.00    +0.206 C 
BRANCH  14  15
ATOM     15  O   UNL     1       7.713   2.232  23.471  0.00  0.00    -0.284 OA
BRANCH  15  16
ATOM     16  P   UNL     1       8.073   3.871  23.886  0.00  0.00    +0.472 P 
ATOM     17  O   UNL     1       8.396   5.340  24.258  0.00  0.00    -0.228 OA
BRANCH  16  18
ATOM     18  O   UNL     1       8.111   4.151  22.280  0.00  0.00    -0.303 OA
ATOM     19  H   UNL     1       8.015   5.105  22.134  0.00  0.00    +0.222 HD
ENDBRANCH  16  18
BRANCH  16  20
ATOM     20  O   UNL     1       9.639   3.413  23.992  0.00  0.00    -0.303 OA
ATOM     21  H   UNL     1      10.036   3.607  23.119  0.00  0.00    +0.222 HD
ENDBRANCH  16  20
ENDBRANCH  15  16
ENDBRANCH  14  15
ENDBRANCH   1  14
TORSDOF 12
ENDMDL
MODEL 6
REMARK VINA RESULT:      -4.7      3.218      4.239
REMARK  Name = 
REMARK  12 active torsions:
REMARK  status: ('A' for Active; 'I' for Inactive)
REMARK    1  A    between atoms: O_1  and  N_2
REMARK    2  A    between atoms: N_2  and  C_3
REMARK    3  A    between atoms: C_3  and  O_5
REMARK    4  A    between atoms: C_3  and  C_6
REMARK    5  A    between atoms: C_6  and  O_8
REMARK    6  A    between atoms: C_6  and  C_9
REMARK    7  A    between atoms: C_9  and  O_11
REMARK    8  A    between atoms: C_9  and  C_12
REMARK    9  A    between atoms: C_12  and  O_13
REMARK   10  A    between atoms: O_13  and  P_14
REMARK   11  A    between atoms: P_14  and  O_15
REMARK   12  A    between atoms: P_14  and  O_16
REMARK                            x       y       z     vdW  Elec       q    Type
REMARK                         _______ _______ _______ _____ _____    ______ ____
ROOT
ATOM      1  C   UNL     1       7.313  -0.626  24.143  0.00  0.00    +0.173 C 
ENDROOT
BRANCH   1   2
ATOM      2  O   UNL     1       6.448  -0.608  22.990  0.00  0.00    -0.387 OA
ATOM      3  H   UNL     1       5.569  -0.372  23.335  0.00  0.00    +0.210 HD
ENDBRANCH   1   2
BRANCH   1   4
ATOM      4  C   UNL     1       8.323  -1.778  24.025  0.00  0.00    +0.190 C 
BRANCH   4   5
ATOM      5  O   UNL     1       9.594  -1.366  24.566  0.00  0.00    -0.385 OA
ATOM      6  H   UNL     1       9.654  -0.413  24.356  0.00  0.00    +0.210 HD
ENDBRANCH   4   5
BRANCH   4   7
ATOM      7  C   UNL     1       8.545  -2.296  22.581  0.00  0.00    +0.237 C 
BRANCH   7   8
ATOM      8  N   UNL     1       8.847  -1.179  21.671  0.00  0.00    -0.173 NA
ATOM      9  H   UNL     1       8.677  -1.547  20.728  0.00  0.00    +0.157 HD
BRANCH   8  10
ATOM     10  O   UNL     1      10.300  -1.043  21.671  0.00  0.00    -0.313 OA
ATOM     11  H   UNL     1      10.520  -1.025  22.625  0.00  0.00    +0.236 HD
ENDBRANCH   8  10
ENDBRANCH   7   8
BRANCH   7  12
ATOM     12  O   UNL     1       7.350  -2.884  22.091  0.00  0.00    -0.373 OA
ATOM     13  H   UNL     1       7.370  -3.795  22.438  0.00  0.00    +0.212 HD
ENDBRANCH   7  12
ENDBRANCH   4   7
ENDBRANCH   1   4
BRANCH   1  14
ATOM     14  C   UNL     1       7.928   0.767  24.341  0.00  0.00    +0.206 C 
BRANCH  14  15
ATOM     15  O   UNL     1       8.405   1.207  23.069  0.00  0.00    -0.284 OA
BRANCH  15  16
ATOM     16  P   UNL     1       9.783   2.250  23.147  0.00  0.00    +0.472 P 
ATOM     17  O   UNL     1      11.016   3.185  23.216  0.00  0.00    -0.228 OA
BRANCH  16  18
ATOM     18  O   UNL     1       9.933   1.983  21.545  0.00  0.00    -0.303 OA
ATOM     19  H   UNL     1      10.875   2.027  21.316  0.00  0.00    +0.222 HD
ENDBRANCH  16  18
BRANCH  16  20
ATOM     20  O   UNL     1      10.648   0.938  23.596  0.00  0.00    -0.303 OA
ATOM     21  H   UNL     1      10.257   0.634  24.440  0.00  0.00    +0.222 HD
ENDBRANCH  16  20
ENDBRANCH  15  16
ENDBRANCH  14  15
ENDBRANCH   1  14
TORSDOF 12
ENDMDL
MODEL 7
REMARK VINA RESULT:      -4.7      2.891      5.295
REMARK  Name = 
REMARK  12 active torsions:
REMARK  status: ('A' for Active; 'I' for Inactive)
REMARK    1  A    between atoms: O_1  and  N_2
REMARK    2  A    between atoms: N_2  and  C_3
REMARK    3  A    between atoms: C_3  and  O_5
REMARK    4  A    between atoms: C_3  and  C_6
REMARK    5  A    between atoms: C_6  and  O_8
REMARK    6  A    between atoms: C_6  and  C_9
REMARK    7  A    between atoms: C_9  and  O_11
REMARK    8  A    between atoms: C_9  and  C_12
REMARK    9  A    between atoms: C_12  and  O_13
REMARK   10  A    between atoms: O_13  and  P_14
REMARK   11  A    between atoms: P_14  and  O_15
REMARK   12  A    between atoms: P_14  and  O_16
REMARK                            x       y       z     vdW  Elec       q    Type
REMARK                         _______ _______ _______ _____ _____    ______ ____
ROOT
ATOM      1  C   UNL     1       7.640  -1.957  24.618  0.00  0.00    +0.173 C 
ENDROOT
BRANCH   1   2
ATOM      2  O   UNL     1       8.600  -1.742  25.671  0.00  0.00    -0.387 OA
ATOM      3  H   UNL     1       9.454  -1.626  25.218  0.00  0.00    +0.210 HD
ENDBRANCH   1   2
BRANCH   1   4
ATOM      4  C   UNL     1       8.327  -1.840  23.249  0.00  0.00    +0.190 C 
BRANCH   4   5
ATOM      5  O   UNL     1       7.882  -2.910  22.391  0.00  0.00    -0.385 OA
ATOM      6  H   UNL     1       8.689  -3.202  21.922  0.00  0.00    +0.210 HD
ENDBRANCH   4   5
BRANCH   4   7
ATOM      7  C   UNL     1       9.876  -1.858  23.300  0.00  0.00    +0.237 C 
BRANCH   7   8
ATOM      8  N   UNL     1      10.440  -1.786  21.942  0.00  0.00    -0.173 NA
ATOM      9  H   UNL     1      11.325  -1.279  22.046  0.00  0.00    +0.157 HD
BRANCH   8  10
ATOM     10  O   UNL     1       9.629  -0.809  21.222  0.00  0.00    -0.313 OA
ATOM     11  H   UNL     1       9.252  -0.262  21.941  0.00  0.00    +0.236 HD
ENDBRANCH   8  10
ENDBRANCH   7   8
BRANCH   7  12
ATOM     12  O   UNL     1      10.325  -3.090  23.842  0.00  0.00    -0.373 OA
ATOM     13  H   UNL     1       9.747  -3.239  24.613  0.00  0.00    +0.212 HD
ENDBRANCH   7  12
ENDBRANCH   4   7
ENDBRANCH   1   4
BRANCH   1  14
ATOM     14  C   UNL     1       6.898  -3.277  24.868  0.00  0.00    +0.206 C 
BRANCH  14  15
ATOM     15  O   UNL     1       7.883  -4.281  25.115  0.00  0.00    -0.284 OA
BRANCH  15  16
ATOM     16  P   UNL     1       7.643  -5.170  26.579  0.00  0.00    +0.472 P 
ATOM     17  O   UNL     1       7.427  -5.967  27.890  0.00  0.00    -0.228 OA
BRANCH  16  18
ATOM     18  O   UNL     1       6.897  -3.832  27.137  0.00  0.00    -0.303 OA
ATOM     19  H   UNL     1       7.351  -3.543  27.944  0.00  0.00    +0.222 HD
ENDBRANCH  16  18
BRANCH  16  20
ATOM     20  O   UNL     1       9.144  -4.695  27.017  0.00  0.00    -0.303 OA
ATOM     21  H   UNL     1       9.724  -4.903  26.257  0.00  0.00    +0.222 HD
ENDBRANCH  16  20
ENDBRANCH  15  16
ENDBRANCH  14  15
ENDBRANCH   1  14
TORSDOF 12
ENDMDL
MODEL 8
REMARK VINA RESULT:      -4.6      1.743      2.277
REMARK  Name = 
REMARK  12 active torsions:
REMARK  status: ('A' for Active; 'I' for Inactive)
REMARK    1  A    between atoms: O_1  and  N_2
REMARK    2  A    between atoms: N_2  and  C_3
REMARK    3  A    between atoms: C_3  and  O_5
REMARK    4  A    between atoms: C_3  and  C_6
REMARK    5  A    between atoms: C_6  and  O_8
REMARK    6  A    between atoms: C_6  and  C_9
REMARK    7  A    between atoms: C_9  and  O_11
REMARK    8  A    between atoms: C_9  and  C_12
REMARK    9  A    between atoms: C_12  and  O_13
REMARK   10  A    between atoms: O_13  and  P_14
REMARK   11  A    between atoms: P_14  and  O_15
REMARK   12  A    between atoms: P_14  and  O_16
REMARK                            x       y       z     vdW  Elec       q    Type
REMARK                         _______ _______ _______ _____ _____    ______ ____
ROOT
ATOM      1  C   UNL     1       7.623  -5.123  23.971  0.00  0.00    +0.173 C 
ENDROOT
BRANCH   1   2
ATOM      2  O   UNL     1       8.996  -5.415  24.300  0.00  0.00    -0.387 OA
ATOM      3  H   UNL     1       9.066  -5.262  25.259  0.00  0.00    +0.210 HD
ENDBRANCH   1   2
BRANCH   1   4
ATOM      4  C   UNL     1       6.797  -4.964  25.257  0.00  0.00    +0.190 C 
BRANCH   4   5
ATOM      5  O   UNL     1       5.899  -3.845  25.120  0.00  0.00    -0.385 OA
ATOM      6  H   UNL     1       5.052  -4.242  24.834  0.00  0.00    +0.210 HD
ENDBRANCH   4   5
BRANCH   4   7
ATOM      7  C   UNL     1       7.638  -4.768  26.545  0.00  0.00    +0.237 C 
BRANCH   7   8
ATOM      8  N   UNL     1       8.675  -3.745  26.335  0.00  0.00    -0.173 NA
ATOM      9  H   UNL     1       9.275  -3.797  27.166  0.00  0.00    +0.157 HD
BRANCH   8  10
ATOM     10  O   UNL     1       8.015  -2.459  26.535  0.00  0.00    -0.313 OA
ATOM     11  H   UNL     1       8.764  -1.830  26.575  0.00  0.00    +0.236 HD
ENDBRANCH   8  10
ENDBRANCH   7   8
BRANCH   7  12
ATOM     12  O   UNL     1       8.332  -5.967  26.854  0.00  0.00    -0.373 OA
ATOM     13  H   UNL     1       9.053  -6.003  26.198  0.00  0.00    +0.212 HD
ENDBRANCH   7  12
ENDBRANCH   4   7
ENDBRANCH   1   4
BRANCH   1  14
ATOM     14  C   UNL     1       7.573  -3.930  23.008  0.00  0.00    +0.206 C 
BRANCH  14  15
ATOM     15  O   UNL     1       7.989  -2.775  23.736  0.00  0.00    -0.284 OA
BRANCH  15  16
ATOM     16  P   UNL     1       9.278  -1.891  22.995  0.00  0.00    +0.472 P 
ATOM     17  O   UNL     1      10.432  -1.100  22.331  0.00  0.00    -0.228 OA
BRANCH  16  18
ATOM     18  O   UNL     1      10.278  -2.902  23.793  0.00  0.00    -0.303 OA
ATOM     19  H   UNL     1      10.142  -3.799  23.449  0.00  0.00    +0.222 HD
ENDBRANCH  16  18
BRANCH  16  20
ATOM     20  O   UNL     1       9.140  -0.822  24.224  0.00  0.00    -0.303 OA
ATOM     21  H   UNL     1       9.978  -0.316  24.236  0.00  0.00    +0.222 HD
ENDBRANCH  16  20
ENDBRANCH  15  16
ENDBRANCH  14  15
ENDBRANCH   1  14
TORSDOF 12
ENDMDL
MODEL 9
REMARK VINA RESULT:      -4.5      2.350      3.207
REMARK  Name = 
REMARK  12 active torsions:
REMARK  status: ('A' for Active; 'I' for Inactive)
REMARK    1  A    between atoms: O_1  and  N_2
REMARK    2  A    between atoms: N_2  and  C_3
REMARK    3  A    between atoms: C_3  and  O_5
REMARK    4  A    between atoms: C_3  and  C_6
REMARK    5  A    between atoms: C_6  and  O_8
REMARK    6  A    between atoms: C_6  and  C_9
REMARK    7  A    between atoms: C_9  and  O_11
REMARK    8  A    between atoms: C_9  and  C_12
REMARK    9  A    between atoms: C_12  and  O_13
REMARK   10  A    between atoms: O_13  and  P_14
REMARK   11  A    between atoms: P_14  and  O_15
REMARK   12  A    between atoms: P_14  and  O_16
REMARK                            x       y       z     vdW  Elec       q    Type
REMARK                         _______ _______ _______ _____ _____    ______ ____
ROOT
ATOM      1  C   UNL     1       5.638  -4.555  25.429  0.00  0.00    +0.173 C 
ENDROOT
BRANCH   1   2
ATOM      2  O   UNL     1       5.767  -5.955  25.107  0.00  0.00    -0.387 OA
ATOM      3  H   UNL     1       5.205  -6.088  24.323  0.00  0.00    +0.210 HD
ENDBRANCH   1   2
BRANCH   1   4
ATOM      4  C   UNL     1       5.969  -4.325  26.912  0.00  0.00    +0.190 C 
BRANCH   4   5
ATOM      5  O   UNL     1       6.721  -3.104  27.056  0.00  0.00    -0.385 OA
ATOM      6  H   UNL     1       6.057  -2.392  26.960  0.00  0.00    +0.210 HD
ENDBRANCH   4   5
BRANCH   4   7
ATOM      7  C   UNL     1       6.761  -5.476  27.583  0.00  0.00    +0.237 C 
BRANCH   7   8
ATOM      8  N   UNL     1       7.934  -5.840  26.771  0.00  0.00    -0.173 NA
ATOM      9  H   UNL     1       8.281  -6.715  27.178  0.00  0.00    +0.157 HD
BRANCH   8  10
ATOM     10  O   UNL     1       8.989  -4.905  27.149  0.00  0.00    -0.313 OA
ATOM     11  H   UNL     1       8.704  -4.595  28.032  0.00  0.00    +0.236 HD
ENDBRANCH   8  10
ENDBRANCH   7   8
BRANCH   7  12
ATOM     12  O   UNL     1       5.955  -6.642  27.647  0.00  0.00    -0.373 OA
ATOM     13  H   UNL     1       6.592  -7.368  27.780  0.00  0.00    +0.212 HD
ENDBRANCH   7  12
ENDBRANCH   4   7
ENDBRANCH   1   4
BRANCH   1  14
ATOM     14  C   UNL     1       6.463  -3.726  24.437  0.00  0.00    +0.206 C 
BRANCH  14  15
ATOM     15  O   UNL     1       7.806  -4.211  24.488  0.00  0.00    -0.284 OA
BRANCH  15  16
ATOM     16  P   UNL     1       9.001  -3.051  24.022  0.00  0.00    +0.472 P 
ATOM     17  O   UNL     1      10.071  -2.012  23.604  0.00  0.00    -0.228 OA
BRANCH  16  18
ATOM     18  O   UNL     1      10.098  -4.163  24.486  0.00  0.00    -0.303 OA
ATOM     19  H   UNL     1      10.073  -4.899  23.854  0.00  0.00    +0.222 HD
ENDBRANCH  16  18
BRANCH  16  20
ATOM     20  O   UNL     1       8.822  -2.393  25.508  0.00  0.00    -0.303 OA
ATOM     21  H   UNL     1       8.845  -3.141  26.138  0.00  0.00    +0.222 HD
ENDBRANCH  16  20
ENDBRANCH  15  16
ENDBRANCH  14  15
ENDBRANCH   1  14
TORSDOF 12
ENDMDL
