MODEL 1
REMARK VINA RESULT:      -8.2      0.000      0.000
REMARK  Name = 
REMARK  8 active torsions:
REMARK  status: ('A' for Active; 'I' for Inactive)
REMARK    1  A    between atoms: C_2  and  C_3
REMARK    2  A    between atoms: C_3  and  O_4
REMARK    3  A    between atoms: O_4  and  C_5
REMARK    4  A    between atoms: C_9  and  N_10
REMARK    5  A    between atoms: C_11  and  C_13
REMARK    6  A    between atoms: C_13  and  C_14
REMARK    7  A    between atoms: C_14  and  C_15
REMARK    8  A    between atoms: N_17  and  C_18
REMARK                            x       y       z     vdW  Elec       q    Type
REMARK                         _______ _______ _______ _____ _____    ______ ____
ROOT
ATOM      1  C   UNL     1       9.279  -1.969  24.061  0.00  0.00    +0.218 C 
ATOM      2  N   UNL     1       9.380  -3.334  24.264  0.00  0.00    -0.285 N 
ATOM      3  H   UNL     1      10.223  -3.791  23.924  0.00  0.00    +0.155 HD
ATOM      4  O   UNL     1       8.442  -1.234  24.573  0.00  0.00    -0.275 OA
ENDROOT
BRANCH   2   5
ATOM      5  C   UNL     1       8.448  -4.136  24.953  0.00  0.00    +0.034 A 
ATOM      6  C   UNL     1       7.328  -4.602  24.257  0.00  0.00    +0.036 A 
ATOM      7  C   UNL     1       6.377  -5.402  24.912  0.00  0.00    +0.041 A 
ATOM      8  C   UNL     1       6.517  -5.706  26.264  0.00  0.00    +0.048 A 
ATOM      9  C   UNL     1       5.488  -6.489  26.980  0.00  0.00    +0.251 C 
ATOM     10  N   UNL     1       4.356  -6.818  26.284  0.00  0.00    -0.246 N 
ATOM     11  H   UNL     1       3.756  -7.471  26.772  0.00  0.00    +0.158 HD
ATOM     12  C   UNL     1       4.326  -6.929  24.919  0.00  0.00    +0.291 C 
ATOM     13  O   UNL     1       3.680  -7.784  24.334  0.00  0.00    -0.266 OA
ATOM     14  O   UNL     1       5.662  -6.866  28.133  0.00  0.00    -0.270 OA
ATOM     15  C   UNL     1       7.633  -5.246  26.960  0.00  0.00    +0.015 A 
ATOM     16  C   UNL     1       5.231  -5.954  24.172  0.00  0.00    +0.248 C 
ATOM     17  O   UNL     1       5.009  -5.645  23.013  0.00  0.00    -0.282 OA
ATOM     18  C   UNL     1       8.588  -4.462  26.307  0.00  0.00    +0.024 A 
ENDBRANCH   2   5
BRANCH   1  19
ATOM     19  C   UNL     1      10.360  -1.407  23.175  0.00  0.00    +0.105 C 
BRANCH  19  20
ATOM     20  C   UNL     1       9.739  -0.833  21.904  0.00  0.00    +0.105 C 
BRANCH  20  23
ATOM     21  N   UNL     1       9.933   1.157  23.275  0.00  0.00    -0.285 N 
ATOM     22  H   UNL     1      10.602   0.601  23.791  0.00  0.00    +0.155 HD
ATOM     23  C   UNL     1       9.391   0.613  22.122  0.00  0.00    +0.218 C 
ATOM     24  O   UNL     1       8.708   1.200  21.284  0.00  0.00    -0.275 OA
BRANCH  21  27
ATOM     25  C   UNL     1      10.401   4.810  23.808  0.00  0.00    +0.122 A 
ATOM     26  C   UNL     1      10.600   3.492  23.369  0.00  0.00    +0.069 A 
ATOM     27  C   UNL     1       9.711   2.471  23.747  0.00  0.00    +0.037 A 
ATOM     28  C   UNL     1       8.644   2.783  24.592  0.00  0.00    +0.023 A 
ATOM     29  C   UNL     1       8.446   4.087  25.032  0.00  0.00    +0.005 A 
ATOM     30  C   UNL     1       9.315   5.098  24.638  0.00  0.00    +0.046 A 
BRANCH  25  31
ATOM     31  O   UNL     1      11.311   5.744  23.370  0.00  0.00    -0.489 OA
BRANCH  31  32
ATOM     32  C   UNL     1      12.685   5.366  23.514  0.00  0.00    +0.262 C 
BRANCH  32  34
ATOM     33  F   UNL     1      12.878   5.042  21.207  0.00  0.00    -0.246 F 
ATOM     34  C   UNL     1      13.473   5.673  22.256  0.00  0.00    +0.254 C 
ENDBRANCH  32  34
ENDBRANCH  31  32
ENDBRANCH  25  31
ENDBRANCH  21  27
ENDBRANCH  20  23
ENDBRANCH  19  20
ENDBRANCH   1  19
TORSDOF 8
ENDMDL
MODEL 2
REMARK VINA RESULT:      -8.1      1.071      2.150
REMARK  Name = 
REMARK  8 active torsions:
REMARK  status: ('A' for Active; 'I' for Inactive)
REMARK    1  A    between atoms: C_2  and  C_3
REMARK    2  A    between atoms: C_3  and  O_4
REMARK    3  A    between atoms: O_4  and  C_5
REMARK    4  A    between atoms: C_9  and  N_10
REMARK    5  A    between atoms: C_11  and  C_13
REMARK    6  A    between atoms: C_13  and  C_14
REMARK    7  A    between atoms: C_14  and  C_15
REMARK    8  A    between atoms: N_17  and  C_18
REMARK                            x       y       z     vdW  Elec       q    Type
REMARK                         _______ _______ _______ _____ _____    ______ ____
ROOT
ATOM      1  C   UNL     1       9.534  -2.885  23.982  0.00  0.00    +0.218 C 
ATOM      2  N   UNL     1       8.158  -2.825  23.846  0.00  0.00    -0.285 N 
ATOM      3  H   UNL     1       7.771  -1.985  23.423  0.00  0.00    +0.155 HD
ATOM      4  O   UNL     1      10.175  -3.886  24.280  0.00  0.00    -0.275 OA
ENDROOT
BRANCH   2   5
ATOM      5  C   UNL     1       7.250  -3.849  24.188  0.00  0.00    +0.034 A 
ATOM      6  C   UNL     1       7.133  -4.213  25.533  0.00  0.00    +0.036 A 
ATOM      7  C   UNL     1       6.240  -5.229  25.909  0.00  0.00    +0.041 A 
ATOM      8  C   UNL     1       5.496  -5.910  24.949  0.00  0.00    +0.048 A 
ATOM      9  C   UNL     1       4.605  -7.028  25.327  0.00  0.00    +0.251 C 
ATOM     10  N   UNL     1       4.617  -7.422  26.637  0.00  0.00    -0.246 N 
ATOM     11  H   UNL     1       3.890  -8.087  26.867  0.00  0.00    +0.158 HD
ATOM     12  C   UNL     1       4.967  -6.586  27.664  0.00  0.00    +0.291 C 
ATOM     13  O   UNL     1       4.409  -6.594  28.749  0.00  0.00    -0.266 OA
ATOM     14  O   UNL     1       3.854  -7.548  24.509  0.00  0.00    -0.270 OA
ATOM     15  C   UNL     1       5.608  -5.549  23.609  0.00  0.00    +0.015 A 
ATOM     16  C   UNL     1       6.059  -5.574  27.328  0.00  0.00    +0.248 C 
ATOM     17  O   UNL     1       6.750  -5.076  28.202  0.00  0.00    -0.282 OA
ATOM     18  C   UNL     1       6.484  -4.527  23.233  0.00  0.00    +0.024 A 
ENDBRANCH   2   5
BRANCH   1  19
ATOM     19  C   UNL     1      10.231  -1.589  23.659  0.00  0.00    +0.105 C 
BRANCH  19  20
ATOM     20  C   UNL     1       9.789  -1.095  22.283  0.00  0.00    +0.105 C 
BRANCH  20  23
ATOM     21  N   UNL     1       9.853   0.977  23.540  0.00  0.00    -0.285 N 
ATOM     22  H   UNL     1      10.417   0.439  24.184  0.00  0.00    +0.155 HD
ATOM     23  C   UNL     1       9.468   0.372  22.355  0.00  0.00    +0.218 C 
ATOM     24  O   UNL     1       8.939   0.919  21.390  0.00  0.00    -0.275 OA
BRANCH  21  27
ATOM     25  C   UNL     1      10.340   4.654  23.842  0.00  0.00    +0.122 A 
ATOM     26  C   UNL     1      10.554   3.305  23.523  0.00  0.00    +0.069 A 
ATOM     27  C   UNL     1       9.614   2.326  23.889  0.00  0.00    +0.037 A 
ATOM     28  C   UNL     1       8.479   2.715  24.604  0.00  0.00    +0.023 A 
ATOM     29  C   UNL     1       8.266   4.051  24.925  0.00  0.00    +0.005 A 
ATOM     30  C   UNL     1       9.187   5.018  24.542  0.00  0.00    +0.046 A 
BRANCH  25  31
ATOM     31  O   UNL     1      11.306   5.541  23.424  0.00  0.00    -0.489 OA
BRANCH  31  32
ATOM     32  C   UNL     1      12.622   4.989  23.298  0.00  0.00    +0.262 C 
BRANCH  32  34
ATOM     33  F   UNL     1      13.123   5.110  21.018  0.00  0.00    -0.246 F 
ATOM     34  C   UNL     1      13.411   5.695  22.213  0.00  0.00    +0.254 C 
ENDBRANCH  32  34
ENDBRANCH  31  32
ENDBRANCH  25  31
ENDBRANCH  21  27
ENDBRANCH  20  23
ENDBRANCH  19  20
ENDBRANCH   1  19
TORSDOF 8
ENDMDL
MODEL 3
REMARK VINA RESULT:      -7.6      1.457      2.160
REMARK  Name = 
REMARK  8 active torsions:
REMARK  status: ('A' for Active; 'I' for Inactive)
REMARK    1  A    between atoms: C_2  and  C_3
REMARK    2  A    between atoms: C_3  and  O_4
REMARK    3  A    between atoms: O_4  and  C_5
REMARK    4  A    between atoms: C_9  and  N_10
REMARK    5  A    between atoms: C_11  and  C_13
REMARK    6  A    between atoms: C_13  and  C_14
REMARK    7  A    between atoms: C_14  and  C_15
REMARK    8  A    between atoms: N_17  and  C_18
REMARK                            x       y       z     vdW  Elec       q    Type
REMARK                         _______ _______ _______ _____ _____    ______ ____
ROOT
ATOM      1  C   UNL     1       9.199  -1.913  24.309  0.00  0.00    +0.218 C 
ATOM      2  N   UNL     1       9.155  -3.295  24.239  0.00  0.00    -0.285 N 
ATOM      3  H   UNL     1       9.843  -3.750  23.645  0.00  0.00    +0.155 HD
ATOM      4  O   UNL     1       8.587  -1.223  25.116  0.00  0.00    -0.275 OA
ENDROOT
BRANCH   2   5
ATOM      5  C   UNL     1       8.279  -4.129  24.963  0.00  0.00    +0.034 A 
ATOM      6  C   UNL     1       7.147  -4.631  24.313  0.00  0.00    +0.036 A 
ATOM      7  C   UNL     1       6.252  -5.463  25.003  0.00  0.00    +0.041 A 
ATOM      8  C   UNL     1       6.458  -5.765  26.348  0.00  0.00    +0.048 A 
ATOM      9  C   UNL     1       5.486  -6.584  27.102  0.00  0.00    +0.251 C 
ATOM     10  N   UNL     1       4.338  -6.949  26.453  0.00  0.00    -0.246 N 
ATOM     11  H   UNL     1       3.781  -7.623  26.963  0.00  0.00    +0.158 HD
ATOM     12  C   UNL     1       4.255  -7.058  25.090  0.00  0.00    +0.291 C 
ATOM     13  O   UNL     1       3.614  -7.933  24.529  0.00  0.00    -0.266 OA
ATOM     14  O   UNL     1       5.721  -6.958  28.246  0.00  0.00    -0.270 OA
ATOM     15  C   UNL     1       7.585  -5.270  26.998  0.00  0.00    +0.015 A 
ATOM     16  C   UNL     1       5.095  -6.051  24.310  0.00  0.00    +0.248 C 
ATOM     17  O   UNL     1       4.814  -5.748  23.162  0.00  0.00    -0.282 OA
ATOM     18  C   UNL     1       8.486  -4.453  26.309  0.00  0.00    +0.024 A 
ENDBRANCH   2   5
BRANCH   1  19
ATOM     19  C   UNL     1      10.148  -1.287  23.321  0.00  0.00    +0.105 C 
BRANCH  19  20
ATOM     20  C   UNL     1       9.368  -0.775  22.112  0.00  0.00    +0.105 C 
BRANCH  20  23
ATOM     21  N   UNL     1       9.986   1.299  23.206  0.00  0.00    -0.285 N 
ATOM     22  H   UNL     1      10.417   0.684  23.883  0.00  0.00    +0.155 HD
ATOM     23  C   UNL     1       9.426   0.727  22.076  0.00  0.00    +0.218 C 
ATOM     24  O   UNL     1       9.021   1.321  21.078  0.00  0.00    -0.275 OA
BRANCH  21  27
ATOM     25  C   UNL     1       9.047   4.779  24.132  0.00  0.00    +0.122 A 
ATOM     26  C   UNL     1       8.964   3.404  23.863  0.00  0.00    +0.069 A 
ATOM     27  C   UNL     1      10.101   2.686  23.455  0.00  0.00    +0.037 A 
ATOM     28  C   UNL     1      11.308   3.369  23.291  0.00  0.00    +0.023 A 
ATOM     29  C   UNL     1      11.393   4.732  23.552  0.00  0.00    +0.005 A 
ATOM     30  C   UNL     1      10.271   5.434  23.977  0.00  0.00    +0.046 A 
BRANCH  25  31
ATOM     31  O   UNL     1       7.887   5.391  24.546  0.00  0.00    -0.489 OA
BRANCH  31  32
ATOM     32  C   UNL     1       6.882   5.535  23.535  0.00  0.00    +0.262 C 
BRANCH  32  34
ATOM     33  F   UNL     1       7.514   6.021  21.337  0.00  0.00    -0.246 F 
ATOM     34  C   UNL     1       7.260   6.612  22.537  0.00  0.00    +0.254 C 
ENDBRANCH  32  34
ENDBRANCH  31  32
ENDBRANCH  25  31
ENDBRANCH  21  27
ENDBRANCH  20  23
ENDBRANCH  19  20
ENDBRANCH   1  19
TORSDOF 8
ENDMDL
MODEL 4
REMARK VINA RESULT:      -7.5      2.022      2.315
REMARK  Name = 
REMARK  8 active torsions:
REMARK  status: ('A' for Active; 'I' for Inactive)
REMARK    1  A    between atoms: C_2  and  C_3
REMARK    2  A    between atoms: C_3  and  O_4
REMARK    3  A    between atoms: O_4  and  C_5
REMARK    4  A    between atoms: C_9  and  N_10
REMARK    5  A    between atoms: C_11  and  C_13
REMARK    6  A    between atoms: C_13  and  C_14
REMARK    7  A    between atoms: C_14  and  C_15
REMARK    8  A    between atoms: N_17  and  C_18
REMARK                            x       y       z     vdW  Elec       q    Type
REMARK                         _______ _______ _______ _____ _____    ______ ____
ROOT
ATOM      1  C   UNL     1       9.477  -2.493  24.233  0.00  0.00    +0.218 C 
ATOM      2  N   UNL     1       8.178  -2.457  24.709  0.00  0.00    -0.285 N 
ATOM      3  H   UNL     1       7.663  -1.589  24.580  0.00  0.00    +0.155 HD
ATOM      4  O   UNL     1      10.166  -3.501  24.125  0.00  0.00    -0.275 OA
ENDROOT
BRANCH   2   5
ATOM      5  C   UNL     1       7.488  -3.532  25.305  0.00  0.00    +0.034 A 
ATOM      6  C   UNL     1       6.437  -4.123  24.596  0.00  0.00    +0.036 A 
ATOM      7  C   UNL     1       5.726  -5.195  25.159  0.00  0.00    +0.041 A 
ATOM      8  C   UNL     1       6.031  -5.653  26.438  0.00  0.00    +0.048 A 
ATOM      9  C   UNL     1       5.244  -6.735  27.068  0.00  0.00    +0.251 C 
ATOM     10  N   UNL     1       4.153  -7.196  26.381  0.00  0.00    -0.246 N 
ATOM     11  H   UNL     1       3.741  -8.026  26.786  0.00  0.00    +0.158 HD
ATOM     12  C   UNL     1       4.040  -7.113  25.018  0.00  0.00    +0.291 C 
ATOM     13  O   UNL     1       3.541  -7.993  24.336  0.00  0.00    -0.266 OA
ATOM     14  O   UNL     1       5.582  -7.228  28.138  0.00  0.00    -0.270 OA
ATOM     15  C   UNL     1       7.078  -5.069  27.146  0.00  0.00    +0.015 A 
ATOM     16  C   UNL     1       4.664  -5.867  24.394  0.00  0.00    +0.248 C 
ATOM     17  O   UNL     1       4.293  -5.450  23.309  0.00  0.00    -0.282 OA
ATOM     18  C   UNL     1       7.798  -4.012  26.582  0.00  0.00    +0.024 A 
ENDBRANCH   2   5
BRANCH   1  19
ATOM     19  C   UNL     1       9.991  -1.155  23.771  0.00  0.00    +0.105 C 
BRANCH  19  20
ATOM     20  C   UNL     1      10.087  -0.202  24.960  0.00  0.00    +0.105 C 
BRANCH  20  23
ATOM     21  N   UNL     1       9.297   1.624  23.575  0.00  0.00    -0.285 N 
ATOM     22  H   UNL     1       9.935   1.237  22.893  0.00  0.00    +0.155 HD
ATOM     23  C   UNL     1       9.129   0.941  24.768  0.00  0.00    +0.218 C 
ATOM     24  O   UNL     1       8.277   1.163  25.626  0.00  0.00    -0.275 OA
BRANCH  21  27
ATOM     25  C   UNL     1       8.396   5.204  23.098  0.00  0.00    +0.122 A 
ATOM     26  C   UNL     1       9.082   4.044  23.491  0.00  0.00    +0.069 A 
ATOM     27  C   UNL     1       8.573   2.772  23.176  0.00  0.00    +0.037 A 
ATOM     28  C   UNL     1       7.359   2.680  22.493  0.00  0.00    +0.023 A 
ATOM     29  C   UNL     1       6.675   3.828  22.105  0.00  0.00    +0.005 A 
ATOM     30  C   UNL     1       7.193   5.083  22.400  0.00  0.00    +0.046 A 
BRANCH  25  31
ATOM     31  O   UNL     1       8.982   6.402  23.433  0.00  0.00    -0.489 OA
BRANCH  31  32
ATOM     32  C   UNL     1      10.232   6.294  24.126  0.00  0.00    +0.262 C 
BRANCH  32  34
ATOM     33  F   UNL     1       9.535   6.245  26.357  0.00  0.00    -0.246 F 
ATOM     34  C   UNL     1      10.188   7.026  25.453  0.00  0.00    +0.254 C 
ENDBRANCH  32  34
ENDBRANCH  31  32
ENDBRANCH  25  31
ENDBRANCH  21  27
ENDBRANCH  20  23
ENDBRANCH  19  20
ENDBRANCH   1  19
TORSDOF 8
ENDMDL
MODEL 5
REMARK VINA RESULT:      -7.3      2.071      3.371
REMARK  Name = 
REMARK  8 active torsions:
REMARK  status: ('A' for Active; 'I' for Inactive)
REMARK    1  A    between atoms: C_2  and  C_3
REMARK    2  A    between atoms: C_3  and  O_4
REMARK    3  A    between atoms: O_4  and  C_5
REMARK    4  A    between atoms: C_9  and  N_10
REMARK    5  A    between atoms: C_11  and  C_13
REMARK    6  A    between atoms: C_13  and  C_14
REMARK    7  A    between atoms: C_14  and  C_15
REMARK    8  A    between atoms: N_17  and  C_18
REMARK                            x       y       z     vdW  Elec       q    Type
REMARK                         _______ _______ _______ _____ _____    ______ ____
ROOT
ATOM      1  C   UNL     1       8.138  -2.023  22.511  0.00  0.00    +0.218 C 
ATOM      2  N   UNL     1       8.394  -3.311  22.948  0.00  0.00    -0.285 N 
ATOM      3  H   UNL     1       9.359  -3.631  22.905  0.00  0.00    +0.155 HD
ATOM      4  O   UNL     1       7.088  -1.413  22.675  0.00  0.00    -0.275 OA
ENDROOT
BRANCH   2   5
ATOM      5  C   UNL     1       7.448  -4.197  23.503  0.00  0.00    +0.034 A 
ATOM      6  C   UNL     1       7.453  -4.395  24.888  0.00  0.00    +0.036 A 
ATOM      7  C   UNL     1       6.526  -5.271  25.475  0.00  0.00    +0.041 A 
ATOM      8  C   UNL     1       5.623  -5.980  24.686  0.00  0.00    +0.048 A 
ATOM      9  C   UNL     1       4.689  -6.957  25.286  0.00  0.00    +0.251 C 
ATOM     10  N   UNL     1       4.817  -7.201  26.627  0.00  0.00    -0.246 N 
ATOM     11  H   UNL     1       4.066  -7.762  27.009  0.00  0.00    +0.158 HD
ATOM     12  C   UNL     1       5.349  -6.292  27.503  0.00  0.00    +0.291 C 
ATOM     13  O   UNL     1       4.919  -6.124  28.632  0.00  0.00    -0.266 OA
ATOM     14  O   UNL     1       3.810  -7.490  24.619  0.00  0.00    -0.270 OA
ATOM     15  C   UNL     1       5.613  -5.784  23.307  0.00  0.00    +0.015 A 
ATOM     16  C   UNL     1       6.478  -5.435  26.936  0.00  0.00    +0.248 C 
ATOM     17  O   UNL     1       7.303  -4.912  27.667  0.00  0.00    -0.282 OA
ATOM     18  C   UNL     1       6.524  -4.901  22.722  0.00  0.00    +0.024 A 
ENDBRANCH   2   5
BRANCH   1  19
ATOM     19  C   UNL     1       9.317  -1.365  21.844  0.00  0.00    +0.105 C 
BRANCH  19  20
ATOM     20  C   UNL     1      10.132  -0.595  22.881  0.00  0.00    +0.105 C 
BRANCH  20  23
ATOM     21  N   UNL     1      10.518   1.678  23.630  0.00  0.00    -0.285 N 
ATOM     22  H   UNL     1      11.018   1.227  24.384  0.00  0.00    +0.155 HD
ATOM     23  C   UNL     1      10.021   0.881  22.613  0.00  0.00    +0.218 C 
ATOM     24  O   UNL     1       9.548   1.264  21.545  0.00  0.00    -0.275 OA
BRANCH  21  27
ATOM     25  C   UNL     1       9.192   5.136  24.000  0.00  0.00    +0.122 A 
ATOM     26  C   UNL     1       9.262   3.736  23.948  0.00  0.00    +0.069 A 
ATOM     27  C   UNL     1      10.478   3.092  23.661  0.00  0.00    +0.037 A 
ATOM     28  C   UNL     1      11.608   3.869  23.396  0.00  0.00    +0.023 A 
ATOM     29  C   UNL     1      11.540   5.257  23.442  0.00  0.00    +0.005 A 
ATOM     30  C   UNL     1      10.341   5.889  23.749  0.00  0.00    +0.046 A 
BRANCH  25  31
ATOM     31  O   UNL     1       7.964   5.674  24.310  0.00  0.00    -0.489 OA
BRANCH  31  32
ATOM     32  C   UNL     1       6.859   4.768  24.201  0.00  0.00    +0.262 C 
BRANCH  32  34
ATOM     33  F   UNL     1       4.839   5.470  23.257  0.00  0.00    -0.246 F 
ATOM     34  C   UNL     1       6.077   5.010  22.926  0.00  0.00    +0.254 C 
ENDBRANCH  32  34
ENDBRANCH  31  32
ENDBRANCH  25  31
ENDBRANCH  21  27
ENDBRANCH  20  23
ENDBRANCH  19  20
ENDBRANCH   1  19
TORSDOF 8
ENDMDL
MODEL 6
REMARK VINA RESULT:      -7.3      3.004      4.350
REMARK  Name = 
REMARK  8 active torsions:
REMARK  status: ('A' for Active; 'I' for Inactive)
REMARK    1  A    between atoms: C_2  and  C_3
REMARK    2  A    between atoms: C_3  and  O_4
REMARK    3  A    between atoms: O_4  and  C_5
REMARK    4  A    between atoms: C_9  and  N_10
REMARK    5  A    between atoms: C_11  and  C_13
REMARK    6  A    between atoms: C_13  and  C_14
REMARK    7  A    between atoms: C_14  and  C_15
REMARK    8  A    between atoms: N_17  and  C_18
REMARK                            x       y       z     vdW  Elec       q    Type
REMARK                         _______ _______ _______ _____ _____    ______ ____
ROOT
ATOM      1  C   UNL     1       9.374  -1.293  22.064  0.00  0.00    +0.218 C 
ATOM      2  N   UNL     1       8.083  -1.653  22.411  0.00  0.00    -0.285 N 
ATOM      3  H   UNL     1       7.325  -1.187  21.919  0.00  0.00    +0.155 HD
ATOM      4  O   UNL     1      10.392  -1.884  22.403  0.00  0.00    -0.275 OA
ENDROOT
BRANCH   2   5
ATOM      5  C   UNL     1       7.728  -2.651  23.341  0.00  0.00    +0.034 A 
ATOM      6  C   UNL     1       6.615  -3.453  23.066  0.00  0.00    +0.036 A 
ATOM      7  C   UNL     1       6.231  -4.455  23.971  0.00  0.00    +0.041 A 
ATOM      8  C   UNL     1       6.926  -4.635  25.166  0.00  0.00    +0.048 A 
ATOM      9  C   UNL     1       6.488  -5.641  26.157  0.00  0.00    +0.251 C 
ATOM     10  N   UNL     1       5.326  -6.314  25.893  0.00  0.00    -0.246 N 
ATOM     11  H   UNL     1       5.152  -7.085  26.526  0.00  0.00    +0.158 HD
ATOM     12  C   UNL     1       4.844  -6.501  24.625  0.00  0.00    +0.291 C 
ATOM     13  O   UNL     1       4.303  -7.533  24.262  0.00  0.00    -0.266 OA
ATOM     14  O   UNL     1       7.163  -5.892  27.149  0.00  0.00    -0.270 OA
ATOM     15  C   UNL     1       8.035  -3.841  25.442  0.00  0.00    +0.015 A 
ATOM     16  C   UNL     1       5.104  -5.348  23.659  0.00  0.00    +0.248 C 
ATOM     17  O   UNL     1       4.405  -5.177  22.675  0.00  0.00    -0.282 OA
ATOM     18  C   UNL     1       8.429  -2.853  24.536  0.00  0.00    +0.024 A 
ENDBRANCH   2   5
BRANCH   1  19
ATOM     19  C   UNL     1       9.443  -0.104  21.142  0.00  0.00    +0.105 C 
BRANCH  19  20
ATOM     20  C   UNL     1       9.914   1.124  21.918  0.00  0.00    +0.105 C 
BRANCH  20  23
ATOM     21  N   UNL     1       9.141   1.690  24.145  0.00  0.00    -0.285 N 
ATOM     22  H   UNL     1      10.109   1.543  24.399  0.00  0.00    +0.155 HD
ATOM     23  C   UNL     1       8.803   1.615  22.804  0.00  0.00    +0.218 C 
ATOM     24  O   UNL     1       7.729   1.934  22.299  0.00  0.00    -0.275 OA
BRANCH  21  27
ATOM     25  C   UNL     1       6.722   1.382  26.957  0.00  0.00    +0.122 A 
ATOM     26  C   UNL     1       7.586   1.052  25.902  0.00  0.00    +0.069 A 
ATOM     27  C   UNL     1       8.267   2.058  25.194  0.00  0.00    +0.037 A 
ATOM     28  C   UNL     1       8.044   3.393  25.537  0.00  0.00    +0.023 A 
ATOM     29  C   UNL     1       7.185   3.724  26.580  0.00  0.00    +0.005 A 
ATOM     30  C   UNL     1       6.532   2.725  27.291  0.00  0.00    +0.046 A 
BRANCH  25  31
ATOM     31  O   UNL     1       6.119   0.328  27.604  0.00  0.00    -0.489 OA
BRANCH  31  32
ATOM     32  C   UNL     1       6.353  -0.958  27.018  0.00  0.00    +0.262 C 
BRANCH  32  34
ATOM     33  F   UNL     1       5.017  -1.473  25.169  0.00  0.00    -0.246 F 
ATOM     34  C   UNL     1       5.060  -1.579  26.526  0.00  0.00    +0.254 C 
ENDBRANCH  32  34
ENDBRANCH  31  32
ENDBRANCH  25  31
ENDBRANCH  21  27
ENDBRANCH  20  23
ENDBRANCH  19  20
ENDBRANCH   1  19
TORSDOF 8
ENDMDL
MODEL 7
REMARK VINA RESULT:      -7.2      2.546      3.518
REMARK  Name = 
REMARK  8 active torsions:
REMARK  status: ('A' for Active; 'I' for Inactive)
REMARK    1  A    between atoms: C_2  and  C_3
REMARK    2  A    between atoms: C_3  and  O_4
REMARK    3  A    between atoms: O_4  and  C_5
REMARK    4  A    between atoms: C_9  and  N_10
REMARK    5  A    between atoms: C_11  and  C_13
REMARK    6  A    between atoms: C_13  and  C_14
REMARK    7  A    between atoms: C_14  and  C_15
REMARK    8  A    between atoms: N_17  and  C_18
REMARK                            x       y       z     vdW  Elec       q    Type
REMARK                         _______ _______ _______ _____ _____    ______ ____
ROOT
ATOM      1  C   UNL     1       9.678  -0.704  22.491  0.00  0.00    +0.218 C 
ATOM      2  N   UNL     1       8.592  -0.783  23.345  0.00  0.00    -0.285 N 
ATOM      3  H   UNL     1       7.976   0.026  23.386  0.00  0.00    +0.155 HD
ATOM      4  O   UNL     1      10.398  -1.642  22.170  0.00  0.00    -0.275 OA
ENDROOT
BRANCH   2   5
ATOM      5  C   UNL     1       8.231  -1.905  24.119  0.00  0.00    +0.034 A 
ATOM      6  C   UNL     1       7.132  -2.669  23.712  0.00  0.00    +0.036 A 
ATOM      7  C   UNL     1       6.742  -3.792  24.459  0.00  0.00    +0.041 A 
ATOM      8  C   UNL     1       7.417  -4.134  25.629  0.00  0.00    +0.048 A 
ATOM      9  C   UNL     1       6.973  -5.273  26.459  0.00  0.00    +0.251 C 
ATOM     10  N   UNL     1       5.823  -5.912  26.081  0.00  0.00    -0.246 N 
ATOM     11  H   UNL     1       5.646  -6.766  26.595  0.00  0.00    +0.158 HD
ATOM     12  C   UNL     1       5.365  -5.921  24.790  0.00  0.00    +0.291 C 
ATOM     13  O   UNL     1       4.842  -6.896  24.275  0.00  0.00    -0.266 OA
ATOM     14  O   UNL     1       7.632  -5.657  27.419  0.00  0.00    -0.270 OA
ATOM     15  C   UNL     1       8.513  -3.377  26.036  0.00  0.00    +0.015 A 
ATOM     16  C   UNL     1       5.631  -4.641  24.003  0.00  0.00    +0.248 C 
ATOM     17  O   UNL     1       4.947  -4.338  23.039  0.00  0.00    -0.282 OA
ATOM     18  C   UNL     1       8.913  -2.268  25.286  0.00  0.00    +0.024 A 
ENDBRANCH   2   5
BRANCH   1  19
ATOM     19  C   UNL     1       9.886   0.666  21.901  0.00  0.00    +0.105 C 
BRANCH  19  20
ATOM     20  C   UNL     1       8.558   1.209  21.378  0.00  0.00    +0.105 C 
BRANCH  20  23
ATOM     21  N   UNL     1       9.246   2.966  22.900  0.00  0.00    -0.285 N 
ATOM     22  H   UNL     1      10.136   2.486  22.876  0.00  0.00    +0.155 HD
ATOM     23  C   UNL     1       8.238   2.505  22.069  0.00  0.00    +0.218 C 
ATOM     24  O   UNL     1       7.166   3.062  21.837  0.00  0.00    -0.275 OA
BRANCH  21  27
ATOM     25  C   UNL     1       8.474   5.163  25.803  0.00  0.00    +0.122 A 
ATOM     26  C   UNL     1       8.547   4.039  24.966  0.00  0.00    +0.069 A 
ATOM     27  C   UNL     1       9.177   4.122  23.713  0.00  0.00    +0.037 A 
ATOM     28  C   UNL     1       9.701   5.348  23.300  0.00  0.00    +0.023 A 
ATOM     29  C   UNL     1       9.627   6.465  24.125  0.00  0.00    +0.005 A 
ATOM     30  C   UNL     1       9.023   6.373  25.373  0.00  0.00    +0.046 A 
BRANCH  25  31
ATOM     31  O   UNL     1       7.858   4.979  27.020  0.00  0.00    -0.489 OA
BRANCH  31  32
ATOM     32  C   UNL     1       6.461   4.665  26.951  0.00  0.00    +0.262 C 
BRANCH  32  34
ATOM     33  F   UNL     1       7.317   2.868  28.176  0.00  0.00    -0.246 F 
ATOM     34  C   UNL     1       6.159   3.357  27.655  0.00  0.00    +0.254 C 
ENDBRANCH  32  34
ENDBRANCH  31  32
ENDBRANCH  25  31
ENDBRANCH  21  27
ENDBRANCH  20  23
ENDBRANCH  19  20
ENDBRANCH   1  19
TORSDOF 8
ENDMDL
MODEL 8
REMARK VINA RESULT:      -7.1      3.936      5.659
REMARK  Name = 
REMARK  8 active torsions:
REMARK  status: ('A' for Active; 'I' for Inactive)
REMARK    1  A    between atoms: C_2  and  C_3
REMARK    2  A    between atoms: C_3  and  O_4
REMARK    3  A    between atoms: O_4  and  C_5
REMARK    4  A    between atoms: C_9  and  N_10
REMARK    5  A    between atoms: C_11  and  C_13
REMARK    6  A    between atoms: C_13  and  C_14
REMARK    7  A    between atoms: C_14  and  C_15
REMARK    8  A    between atoms: N_17  and  C_18
REMARK                            x       y       z     vdW  Elec       q    Type
REMARK                         _______ _______ _______ _____ _____    ______ ____
ROOT
ATOM      1  C   UNL     1       4.968  -0.421  26.692  0.00  0.00    +0.218 C 
ATOM      2  N   UNL     1       5.853  -1.480  26.599  0.00  0.00    -0.285 N 
ATOM      3  H   UNL     1       6.755  -1.370  27.056  0.00  0.00    +0.155 HD
ATOM      4  O   UNL     1       3.783  -0.456  26.380  0.00  0.00    -0.275 OA
ENDROOT
BRANCH   2   5
ATOM      5  C   UNL     1       5.594  -2.720  25.979  0.00  0.00    +0.034 A 
ATOM      6  C   UNL     1       5.754  -2.817  24.593  0.00  0.00    +0.036 A 
ATOM      7  C   UNL     1       5.503  -4.035  23.942  0.00  0.00    +0.041 A 
ATOM      8  C   UNL     1       5.056  -5.144  24.659  0.00  0.00    +0.048 A 
ATOM      9  C   UNL     1       4.723  -6.410  23.974  0.00  0.00    +0.251 C 
ATOM     10  N   UNL     1       4.781  -6.416  22.607  0.00  0.00    -0.246 N 
ATOM     11  H   UNL     1       4.686  -7.339  22.201  0.00  0.00    +0.158 HD
ATOM     12  C   UNL     1       5.576  -5.560  21.891  0.00  0.00    +0.291 C 
ATOM     13  O   UNL     1       6.173  -5.894  20.880  0.00  0.00    -0.266 OA
ATOM     14  O   UNL     1       4.451  -7.424  24.607  0.00  0.00    -0.270 OA
ATOM     15  C   UNL     1       4.899  -5.051  26.039  0.00  0.00    +0.015 A 
ATOM     16  C   UNL     1       5.732  -4.168  22.495  0.00  0.00    +0.248 C 
ATOM     17  O   UNL     1       6.033  -3.208  21.804  0.00  0.00    -0.282 OA
ATOM     18  C   UNL     1       5.163  -3.844  26.693  0.00  0.00    +0.024 A 
ENDBRANCH   2   5
BRANCH   1  19
ATOM     19  C   UNL     1       5.570   0.822  27.294  0.00  0.00    +0.105 C 
BRANCH  19  20
ATOM     20  C   UNL     1       5.994   1.779  26.182  0.00  0.00    +0.105 C 
BRANCH  20  23
ATOM     21  N   UNL     1       7.929   0.643  25.263  0.00  0.00    -0.285 N 
ATOM     22  H   UNL     1       8.325   0.813  26.178  0.00  0.00    +0.155 HD
ATOM     23  C   UNL     1       6.607   0.998  25.052  0.00  0.00    +0.218 C 
ATOM     24  O   UNL     1       5.917   0.712  24.076  0.00  0.00    -0.275 OA
BRANCH  21  27
ATOM     25  C   UNL     1       9.872  -2.094  23.656  0.00  0.00    +0.122 A 
ATOM     26  C   UNL     1       9.067  -1.388  24.562  0.00  0.00    +0.069 A 
ATOM     27  C   UNL     1       8.756  -0.035  24.338  0.00  0.00    +0.037 A 
ATOM     28  C   UNL     1       9.288   0.603  23.216  0.00  0.00    +0.023 A 
ATOM     29  C   UNL     1      10.090  -0.093  22.318  0.00  0.00    +0.005 A 
ATOM     30  C   UNL     1      10.377  -1.436  22.532  0.00  0.00    +0.046 A 
BRANCH  25  31
ATOM     31  O   UNL     1      10.104  -3.418  23.949  0.00  0.00    -0.489 OA
BRANCH  31  32
ATOM     32  C   UNL     1       9.392  -3.921  25.087  0.00  0.00    +0.262 C 
BRANCH  32  34
ATOM     33  F   UNL     1       8.193  -5.740  25.934  0.00  0.00    -0.246 F 
ATOM     34  C   UNL     1       8.807  -5.291  24.805  0.00  0.00    +0.254 C 
ENDBRANCH  32  34
ENDBRANCH  31  32
ENDBRANCH  25  31
ENDBRANCH  21  27
ENDBRANCH  20  23
ENDBRANCH  19  20
ENDBRANCH   1  19
TORSDOF 8
ENDMDL
MODEL 9
REMARK VINA RESULT:      -6.9      2.194      3.089
REMARK  Name = 
REMARK  8 active torsions:
REMARK  status: ('A' for Active; 'I' for Inactive)
REMARK    1  A    between atoms: C_2  and  C_3
REMARK    2  A    between atoms: C_3  and  O_4
REMARK    3  A    between atoms: O_4  and  C_5
REMARK    4  A    between atoms: C_9  and  N_10
REMARK    5  A    between atoms: C_11  and  C_13
REMARK    6  A    between atoms: C_13  and  C_14
REMARK    7  A    between atoms: C_14  and  C_15
REMARK    8  A    between atoms: N_17  and  C_18
REMARK                            x       y       z     vdW  Elec       q    Type
REMARK                         _______ _______ _______ _____ _____    ______ ____
ROOT
ATOM      1  C   UNL     1       9.438  -2.955  23.662  0.00  0.00    +0.218 C 
ATOM      2  N   UNL     1       8.119  -3.083  23.261  0.00  0.00    -0.285 N 
ATOM      3  H   UNL     1       7.796  -2.456  22.529  0.00  0.00    +0.155 HD
ATOM      4  O   UNL     1      10.043  -3.746  24.376  0.00  0.00    -0.275 OA
ENDROOT
BRANCH   2   5
ATOM      5  C   UNL     1       7.203  -4.044  23.736  0.00  0.00    +0.034 A 
ATOM      6  C   UNL     1       7.093  -4.233  25.118  0.00  0.00    +0.036 A 
ATOM      7  C   UNL     1       6.192  -5.183  25.626  0.00  0.00    +0.041 A 
ATOM      8  C   UNL     1       5.431  -5.970  24.764  0.00  0.00    +0.048 A 
ATOM      9  C   UNL     1       4.531  -7.020  25.286  0.00  0.00    +0.251 C 
ATOM     10  N   UNL     1       4.550  -7.245  26.636  0.00  0.00    -0.246 N 
ATOM     11  H   UNL     1       3.816  -7.867  26.953  0.00  0.00    +0.158 HD
ATOM     12  C   UNL     1       4.918  -6.290  27.546  0.00  0.00    +0.291 C 
ATOM     13  O   UNL     1       4.369  -6.154  28.628  0.00  0.00    -0.266 OA
ATOM     14  O   UNL     1       3.767  -7.630  24.546  0.00  0.00    -0.270 OA
ATOM     15  C   UNL     1       5.536  -5.782  23.388  0.00  0.00    +0.015 A 
ATOM     16  C   UNL     1       6.018  -5.343  27.078  0.00  0.00    +0.248 C 
ATOM     17  O   UNL     1       6.723  -4.747  27.876  0.00  0.00    -0.282 OA
ATOM     18  C   UNL     1       6.421  -4.827  22.880  0.00  0.00    +0.024 A 
ENDBRANCH   2   5
BRANCH   1  19
ATOM     19  C   UNL     1      10.134  -1.753  23.079  0.00  0.00    +0.105 C 
BRANCH  19  20
ATOM     20  C   UNL     1       9.196  -1.032  22.114  0.00  0.00    +0.105 C 
BRANCH  20  23
ATOM     21  N   UNL     1       8.794   1.357  22.017  0.00  0.00    -0.285 N 
ATOM     22  H   UNL     1       9.119   1.261  21.064  0.00  0.00    +0.155 HD
ATOM     23  C   UNL     1       8.651   0.205  22.772  0.00  0.00    +0.218 C 
ATOM     24  O   UNL     1       8.110   0.111  23.872  0.00  0.00    -0.275 OA
BRANCH  21  27
ATOM     25  C   UNL     1       8.947   4.668  23.709  0.00  0.00    +0.122 A 
ATOM     26  C   UNL     1       9.275   3.368  23.294  0.00  0.00    +0.069 A 
ATOM     27  C   UNL     1       8.426   2.659  22.426  0.00  0.00    +0.037 A 
ATOM     28  C   UNL     1       7.236   3.257  22.009  0.00  0.00    +0.023 A 
ATOM     29  C   UNL     1       6.906   4.544  22.421  0.00  0.00    +0.005 A 
ATOM     30  C   UNL     1       7.759   5.250  23.261  0.00  0.00    +0.046 A 
BRANCH  25  31
ATOM     31  O   UNL     1       9.850   5.289  24.541  0.00  0.00    -0.489 OA
BRANCH  31  32
ATOM     32  C   UNL     1       9.532   6.646  24.875  0.00  0.00    +0.262 C 
BRANCH  32  34
ATOM     33  F   UNL     1       7.721   6.999  26.310  0.00  0.00    -0.246 F 
ATOM     34  C   UNL     1       9.062   6.762  26.311  0.00  0.00    +0.254 C 
ENDBRANCH  32  34
ENDBRANCH  31  32
ENDBRANCH  25  31
ENDBRANCH  21  27
ENDBRANCH  20  23
ENDBRANCH  19  20
ENDBRANCH   1  19
TORSDOF 8
ENDMDL
