MODEL 1
REMARK VINA RESULT:      -6.3      0.000      0.000
REMARK  Name = 
REMARK  5 active torsions:
REMARK  status: ('A' for Active; 'I' for Inactive)
REMARK    1  A    between atoms: O_1  and  C_2
REMARK    2  A    between atoms: C_2  and  C_3
REMARK    3  A    between atoms: C_13  and  O_15
REMARK    4  A    between atoms: C_16  and  O_18
REMARK    5  A    between atoms: C_19  and  O_21
REMARK                            x       y       z     vdW  Elec       q    Type
REMARK                         _______ _______ _______ _____ _____    ______ ____
ROOT
ATOM      1  C   UNL     1       6.696  -5.034  22.653  0.00  0.00    +0.178 C 
ATOM      2  C   UNL     1       6.652  -3.549  22.272  0.00  0.00    +0.177 C 
ATOM      3  C   UNL     1       6.841  -2.656  23.499  0.00  0.00    +0.179 C 
ATOM      4  C   UNL     1       8.103  -3.052  24.270  0.00  0.00    +0.205 C 
ATOM      5  C   UNL     1       8.030  -4.558  24.610  0.00  0.00    +0.244 C 
ATOM      6  C   UNL     1       9.347  -4.924  25.339  0.00  0.00    +0.274 C 
ATOM      7  O   UNL     1      10.481  -4.847  24.887  0.00  0.00    -0.270 OA
ATOM      8  N   UNL     1       9.047  -5.272  26.621  0.00  0.00    -0.236 N 
ATOM      9  H   UNL     1       9.722  -5.477  27.339  0.00  0.00    +0.159 HD
ATOM     10  C   UNL     1       7.716  -5.193  26.831  0.00  0.00    +0.308 C 
ATOM     11  O   UNL     1       7.149  -5.346  27.896  0.00  0.00    -0.252 OA
ATOM     12  N   UNL     1       7.088  -4.892  25.652  0.00  0.00    -0.261 N 
ATOM     13  H   UNL     1       6.099  -4.691  25.648  0.00  0.00    +0.154 HD
ATOM     14  O   UNL     1       7.812  -5.389  23.482  0.00  0.00    -0.338 OA
ENDROOT
BRANCH   2  15
ATOM     15  O   UNL     1       5.388  -3.268  21.651  0.00  0.00    -0.386 OA
ATOM     16  H   UNL     1       5.027  -2.459  22.062  0.00  0.00    +0.210 HD
ENDBRANCH   2  15
BRANCH   3  17
ATOM     17  O   UNL     1       6.874  -1.284  23.071  0.00  0.00    -0.386 OA
ATOM     18  H   UNL     1       6.076  -1.103  22.545  0.00  0.00    +0.210 HD
ENDBRANCH   3  17
BRANCH   4  19
ATOM     19  O   UNL     1       8.208  -2.230  25.444  0.00  0.00    -0.384 OA
ATOM     20  H   UNL     1       7.404  -2.361  25.980  0.00  0.00    +0.210 HD
ENDBRANCH   4  19
BRANCH   1  21
ATOM     21  C   UNL     1       6.760  -5.905  21.385  0.00  0.00    +0.190 C 
BRANCH  21  22
ATOM     22  O   UNL     1       5.440  -6.240  20.948  0.00  0.00    -0.392 OA
ATOM     23  H   UNL     1       5.490  -7.127  20.550  0.00  0.00    +0.210 HD
ENDBRANCH  21  22
ENDBRANCH   1  21
TORSDOF 5
ENDMDL
MODEL 2
REMARK VINA RESULT:      -5.9      6.928      8.903
REMARK  Name = 
REMARK  5 active torsions:
REMARK  status: ('A' for Active; 'I' for Inactive)
REMARK    1  A    between atoms: O_1  and  C_2
REMARK    2  A    between atoms: C_2  and  C_3
REMARK    3  A    between atoms: C_13  and  O_15
REMARK    4  A    between atoms: C_16  and  O_18
REMARK    5  A    between atoms: C_19  and  O_21
REMARK                            x       y       z     vdW  Elec       q    Type
REMARK                         _______ _______ _______ _____ _____    ______ ____
ROOT
ATOM      1  C   UNL     1      11.388   4.573  23.170  0.00  0.00    +0.178 C 
ATOM      2  C   UNL     1      10.315   5.246  24.036  0.00  0.00    +0.177 C 
ATOM      3  C   UNL     1       9.015   4.440  24.033  0.00  0.00    +0.179 C 
ATOM      4  C   UNL     1       9.278   2.981  24.411  0.00  0.00    +0.205 C 
ATOM      5  C   UNL     1      10.360   2.407  23.466  0.00  0.00    +0.244 C 
ATOM      6  C   UNL     1      10.633   0.951  23.919  0.00  0.00    +0.274 C 
ATOM      7  O   UNL     1      11.064   0.589  25.005  0.00  0.00    -0.270 OA
ATOM      8  N   UNL     1      10.229   0.109  22.928  0.00  0.00    -0.236 N 
ATOM      9  H   UNL     1      10.216  -0.895  22.990  0.00  0.00    +0.159 HD
ATOM     10  C   UNL     1       9.738   0.812  21.886  0.00  0.00    +0.308 C 
ATOM     11  O   UNL     1       9.211   0.346  20.893  0.00  0.00    -0.252 OA
ATOM     12  N   UNL     1       9.906   2.150  22.121  0.00  0.00    -0.261 N 
ATOM     13  H   UNL     1       9.498   2.825  21.491  0.00  0.00    +0.154 HD
ATOM     14  O   UNL     1      11.553   3.173  23.432  0.00  0.00    -0.338 OA
ENDROOT
BRANCH   2  15
ATOM     15  O   UNL     1      10.075   6.568  23.531  0.00  0.00    -0.386 OA
ATOM     16  H   UNL     1      10.485   7.203  24.150  0.00  0.00    +0.210 HD
ENDBRANCH   2  15
BRANCH   3  17
ATOM     17  O   UNL     1       8.079   5.071  24.924  0.00  0.00    -0.386 OA
ATOM     18  H   UNL     1       7.302   4.492  25.018  0.00  0.00    +0.210 HD
ENDBRANCH   3  17
BRANCH   4  19
ATOM     19  O   UNL     1       8.044   2.250  24.336  0.00  0.00    -0.384 OA
ATOM     20  H   UNL     1       7.532   2.434  25.145  0.00  0.00    +0.210 HD
ENDBRANCH   4  19
BRANCH   1  21
ATOM     21  C   UNL     1      12.750   5.255  23.389  0.00  0.00    +0.190 C 
BRANCH  21  22
ATOM     22  O   UNL     1      12.706   6.086  24.552  0.00  0.00    -0.392 OA
ATOM     23  H   UNL     1      13.286   6.848  24.377  0.00  0.00    +0.210 HD
ENDBRANCH  21  22
ENDBRANCH   1  21
TORSDOF 5
ENDMDL
MODEL 3
REMARK VINA RESULT:      -5.7      3.741      5.911
REMARK  Name = 
REMARK  5 active torsions:
REMARK  status: ('A' for Active; 'I' for Inactive)
REMARK    1  A    between atoms: O_1  and  C_2
REMARK    2  A    between atoms: C_2  and  C_3
REMARK    3  A    between atoms: C_13  and  O_15
REMARK    4  A    between atoms: C_16  and  O_18
REMARK    5  A    between atoms: C_19  and  O_21
REMARK                            x       y       z     vdW  Elec       q    Type
REMARK                         _______ _______ _______ _____ _____    ______ ____
ROOT
ATOM      1  C   UNL     1       8.288   1.171  24.710  0.00  0.00    +0.178 C 
ATOM      2  C   UNL     1       8.810   1.999  23.528  0.00  0.00    +0.177 C 
ATOM      3  C   UNL     1       9.642   1.139  22.574  0.00  0.00    +0.179 C 
ATOM      4  C   UNL     1       8.865  -0.110  22.151  0.00  0.00    +0.205 C 
ATOM      5  C   UNL     1       8.405  -0.867  23.419  0.00  0.00    +0.244 C 
ATOM      6  C   UNL     1       7.580  -2.090  22.944  0.00  0.00    +0.274 C 
ATOM      7  O   UNL     1       6.539  -2.067  22.301  0.00  0.00    -0.270 OA
ATOM      8  N   UNL     1       8.253  -3.222  23.287  0.00  0.00    -0.236 N 
ATOM      9  H   UNL     1       7.984  -4.156  23.029  0.00  0.00    +0.159 HD
ATOM     10  C   UNL     1       9.400  -2.912  23.928  0.00  0.00    +0.308 C 
ATOM     11  O   UNL     1      10.262  -3.697  24.272  0.00  0.00    -0.252 OA
ATOM     12  N   UNL     1       9.460  -1.558  24.120  0.00  0.00    -0.261 N 
ATOM     13  H   UNL     1      10.301  -1.141  24.491  0.00  0.00    +0.154 HD
ATOM     14  O   UNL     1       7.669  -0.065  24.327  0.00  0.00    -0.338 OA
ENDROOT
BRANCH   2  15
ATOM     15  O   UNL     1       9.606   3.080  24.035  0.00  0.00    -0.386 OA
ATOM     16  H   UNL     1      10.035   2.774  24.857  0.00  0.00    +0.210 HD
ENDBRANCH   2  15
BRANCH   3  17
ATOM     17  O   UNL     1      10.030   1.944  21.448  0.00  0.00    -0.386 OA
ATOM     18  H   UNL     1      10.955   1.738  21.224  0.00  0.00    +0.210 HD
ENDBRANCH   3  17
BRANCH   4  19
ATOM     19  O   UNL     1       9.704  -0.916  21.307  0.00  0.00    -0.384 OA
ATOM     20  H   UNL     1      10.386  -1.332  21.865  0.00  0.00    +0.210 HD
ENDBRANCH   4  19
BRANCH   1  21
ATOM     21  C   UNL     1       7.255   1.984  25.511  0.00  0.00    +0.190 C 
BRANCH  21  22
ATOM     22  O   UNL     1       7.917   2.917  26.370  0.00  0.00    -0.392 OA
ATOM     23  H   UNL     1       8.466   2.396  26.983  0.00  0.00    +0.210 HD
ENDBRANCH  21  22
ENDBRANCH   1  21
TORSDOF 5
ENDMDL
MODEL 4
REMARK VINA RESULT:      -5.7      1.841      4.852
REMARK  Name = 
REMARK  5 active torsions:
REMARK  status: ('A' for Active; 'I' for Inactive)
REMARK    1  A    between atoms: O_1  and  C_2
REMARK    2  A    between atoms: C_2  and  C_3
REMARK    3  A    between atoms: C_13  and  O_15
REMARK    4  A    between atoms: C_16  and  O_18
REMARK    5  A    between atoms: C_19  and  O_21
REMARK                            x       y       z     vdW  Elec       q    Type
REMARK                         _______ _______ _______ _____ _____    ______ ____
ROOT
ATOM      1  C   UNL     1       6.106  -5.225  26.296  0.00  0.00    +0.178 C 
ATOM      2  C   UNL     1       7.438  -5.119  27.051  0.00  0.00    +0.177 C 
ATOM      3  C   UNL     1       8.621  -5.077  26.083  0.00  0.00    +0.179 C 
ATOM      4  C   UNL     1       8.424  -3.981  25.031  0.00  0.00    +0.205 C 
ATOM      5  C   UNL     1       7.063  -4.199  24.331  0.00  0.00    +0.244 C 
ATOM      6  C   UNL     1       6.883  -3.041  23.317  0.00  0.00    +0.274 C 
ATOM      7  O   UNL     1       6.820  -1.846  23.573  0.00  0.00    -0.270 OA
ATOM      8  N   UNL     1       6.893  -3.563  22.061  0.00  0.00    -0.236 N 
ATOM      9  H   UNL     1       6.875  -3.026  21.210  0.00  0.00    +0.159 HD
ATOM     10  C   UNL     1       7.045  -4.903  22.110  0.00  0.00    +0.308 C 
ATOM     11  O   UNL     1       7.189  -5.642  21.154  0.00  0.00    -0.252 OA
ATOM     12  N   UNL     1       7.032  -5.314  23.415  0.00  0.00    -0.261 N 
ATOM     13  H   UNL     1       7.241  -6.275  23.640  0.00  0.00    +0.154 HD
ATOM     14  O   UNL     1       5.967  -4.282  25.226  0.00  0.00    -0.338 OA
ENDROOT
BRANCH   2  15
ATOM     15  O   UNL     1       7.563  -6.246  27.930  0.00  0.00    -0.386 OA
ATOM     16  H   UNL     1       7.671  -5.905  28.839  0.00  0.00    +0.210 HD
ENDBRANCH   2  15
BRANCH   3  17
ATOM     17  O   UNL     1       9.830  -4.892  26.839  0.00  0.00    -0.386 OA
ATOM     18  H   UNL     1      10.270  -5.755  26.937  0.00  0.00    +0.210 HD
ENDBRANCH   3  17
BRANCH   4  19
ATOM     19  O   UNL     1       9.526  -4.017  24.110  0.00  0.00    -0.384 OA
ATOM     20  H   UNL     1       9.475  -3.226  23.544  0.00  0.00    +0.210 HD
ENDBRANCH   4  19
BRANCH   1  21
ATOM     21  C   UNL     1       4.929  -5.011  27.266  0.00  0.00    +0.190 C 
BRANCH  21  22
ATOM     22  O   UNL     1       5.408  -4.551  28.532  0.00  0.00    -0.392 OA
ATOM     23  H   UNL     1       5.132  -5.209  29.195  0.00  0.00    +0.210 HD
ENDBRANCH  21  22
ENDBRANCH   1  21
TORSDOF 5
ENDMDL
MODEL 5
REMARK VINA RESULT:      -5.6      2.034      2.658
REMARK  Name = 
REMARK  5 active torsions:
REMARK  status: ('A' for Active; 'I' for Inactive)
REMARK    1  A    between atoms: O_1  and  C_2
REMARK    2  A    between atoms: C_2  and  C_3
REMARK    3  A    between atoms: C_13  and  O_15
REMARK    4  A    between atoms: C_16  and  O_18
REMARK    5  A    between atoms: C_19  and  O_21
REMARK                            x       y       z     vdW  Elec       q    Type
REMARK                         _______ _______ _______ _____ _____    ______ ____
ROOT
ATOM      1  C   UNL     1       5.037  -5.514  24.609  0.00  0.00    +0.178 C 
ATOM      2  C   UNL     1       4.849  -5.277  23.104  0.00  0.00    +0.177 C 
ATOM      3  C   UNL     1       5.694  -4.099  22.619  0.00  0.00    +0.179 C 
ATOM      4  C   UNL     1       7.158  -4.273  23.032  0.00  0.00    +0.205 C 
ATOM      5  C   UNL     1       7.224  -4.490  24.561  0.00  0.00    +0.244 C 
ATOM      6  C   UNL     1       8.713  -4.715  24.925  0.00  0.00    +0.274 C 
ATOM      7  O   UNL     1       9.434  -5.624  24.535  0.00  0.00    -0.270 OA
ATOM      8  N   UNL     1       9.131  -3.674  25.695  0.00  0.00    -0.236 N 
ATOM      9  H   UNL     1      10.076  -3.524  26.005  0.00  0.00    +0.159 HD
ATOM     10  C   UNL     1       8.120  -2.801  25.895  0.00  0.00    +0.308 C 
ATOM     11  O   UNL     1       8.203  -1.727  26.458  0.00  0.00    -0.252 OA
ATOM     12  N   UNL     1       6.971  -3.304  25.346  0.00  0.00    -0.261 N 
ATOM     13  H   UNL     1       6.140  -2.733  25.310  0.00  0.00    +0.154 HD
ATOM     14  O   UNL     1       6.409  -5.554  25.024  0.00  0.00    -0.338 OA
ENDROOT
BRANCH   2  15
ATOM     15  O   UNL     1       3.459  -5.024  22.846  0.00  0.00    -0.386 OA
ATOM     16  H   UNL     1       3.358  -4.068  22.675  0.00  0.00    +0.210 HD
ENDBRANCH   2  15
BRANCH   3  17
ATOM     17  O   UNL     1       5.543  -3.978  21.195  0.00  0.00    -0.386 OA
ATOM     18  H   UNL     1       4.862  -4.608  20.900  0.00  0.00    +0.210 HD
ENDBRANCH   3  17
BRANCH   4  19
ATOM     19  O   UNL     1       7.902  -3.119  22.609  0.00  0.00    -0.384 OA
ATOM     20  H   UNL     1       8.716  -3.426  22.171  0.00  0.00    +0.210 HD
ENDBRANCH   4  19
BRANCH   1  21
ATOM     21  C   UNL     1       4.384  -6.846  25.021  0.00  0.00    +0.190 C 
BRANCH  21  22
ATOM     22  O   UNL     1       4.136  -7.653  23.868  0.00  0.00    -0.392 OA
ATOM     23  H   UNL     1       4.501  -7.174  23.103  0.00  0.00    +0.210 HD
ENDBRANCH  21  22
ENDBRANCH   1  21
TORSDOF 5
ENDMDL
MODEL 6
REMARK VINA RESULT:      -5.6      2.099      3.887
REMARK  Name = 
REMARK  5 active torsions:
REMARK  status: ('A' for Active; 'I' for Inactive)
REMARK    1  A    between atoms: O_1  and  C_2
REMARK    2  A    between atoms: C_2  and  C_3
REMARK    3  A    between atoms: C_13  and  O_15
REMARK    4  A    between atoms: C_16  and  O_18
REMARK    5  A    between atoms: C_19  and  O_21
REMARK                            x       y       z     vdW  Elec       q    Type
REMARK                         _______ _______ _______ _____ _____    ______ ____
ROOT
ATOM      1  C   UNL     1       7.615  -3.527  24.022  0.00  0.00    +0.178 C 
ATOM      2  C   UNL     1       8.949  -4.210  24.350  0.00  0.00    +0.177 C 
ATOM      3  C   UNL     1       8.993  -4.666  25.810  0.00  0.00    +0.179 C 
ATOM      4  C   UNL     1       7.769  -5.520  26.149  0.00  0.00    +0.205 C 
ATOM      5  C   UNL     1       6.491  -4.728  25.791  0.00  0.00    +0.244 C 
ATOM      6  C   UNL     1       5.283  -5.648  26.100  0.00  0.00    +0.274 C 
ATOM      7  O   UNL     1       5.034  -6.729  25.583  0.00  0.00    -0.270 OA
ATOM      8  N   UNL     1       4.571  -5.097  27.120  0.00  0.00    -0.236 N 
ATOM      9  H   UNL     1       3.784  -5.525  27.576  0.00  0.00    +0.159 HD
ATOM     10  C   UNL     1       5.139  -3.938  27.517  0.00  0.00    +0.308 C 
ATOM     11  O   UNL     1       4.795  -3.262  28.468  0.00  0.00    -0.252 OA
ATOM     12  N   UNL     1       6.188  -3.640  26.690  0.00  0.00    -0.261 N 
ATOM     13  H   UNL     1       6.792  -2.861  26.907  0.00  0.00    +0.154 HD
ATOM     14  O   UNL     1       6.462  -4.265  24.451  0.00  0.00    -0.338 OA
ENDROOT
BRANCH   2  15
ATOM     15  O   UNL     1      10.017  -3.287  24.092  0.00  0.00    -0.386 OA
ATOM     16  H   UNL     1       9.830  -2.467  24.589  0.00  0.00    +0.210 HD
ENDBRANCH   2  15
BRANCH   3  17
ATOM     17  O   UNL     1      10.226  -5.370  26.036  0.00  0.00    -0.386 OA
ATOM     18  H   UNL     1      10.069  -6.067  26.698  0.00  0.00    +0.210 HD
ENDBRANCH   3  17
BRANCH   4  19
ATOM     19  O   UNL     1       7.821  -5.875  27.541  0.00  0.00    -0.384 OA
ATOM     20  H   UNL     1       7.635  -5.075  28.065  0.00  0.00    +0.210 HD
ENDBRANCH   4  19
BRANCH   1  21
ATOM     21  C   UNL     1       7.491  -3.308  22.503  0.00  0.00    +0.190 C 
BRANCH  21  22
ATOM     22  O   UNL     1       8.283  -2.188  22.099  0.00  0.00    -0.392 OA
ATOM     23  H   UNL     1       9.032  -2.541  21.586  0.00  0.00    +0.210 HD
ENDBRANCH  21  22
ENDBRANCH   1  21
TORSDOF 5
ENDMDL
MODEL 7
REMARK VINA RESULT:      -5.6      2.030      3.662
REMARK  Name = 
REMARK  5 active torsions:
REMARK  status: ('A' for Active; 'I' for Inactive)
REMARK    1  A    between atoms: O_1  and  C_2
REMARK    2  A    between atoms: C_2  and  C_3
REMARK    3  A    between atoms: C_13  and  O_15
REMARK    4  A    between atoms: C_16  and  O_18
REMARK    5  A    between atoms: C_19  and  O_21
REMARK                            x       y       z     vdW  Elec       q    Type
REMARK                         _______ _______ _______ _____ _____    ______ ____
ROOT
ATOM      1  C   UNL     1       7.051  -1.640  25.010  0.00  0.00    +0.178 C 
ATOM      2  C   UNL     1       8.337  -1.612  24.174  0.00  0.00    +0.177 C 
ATOM      3  C   UNL     1       9.200  -2.846  24.443  0.00  0.00    +0.179 C 
ATOM      4  C   UNL     1       8.384  -4.129  24.266  0.00  0.00    +0.205 C 
ATOM      5  C   UNL     1       7.127  -4.050  25.162  0.00  0.00    +0.244 C 
ATOM      6  C   UNL     1       6.307  -5.340  24.910  0.00  0.00    +0.274 C 
ATOM      7  O   UNL     1       5.810  -5.698  23.850  0.00  0.00    -0.270 OA
ATOM      8  N   UNL     1       6.297  -6.075  26.055  0.00  0.00    -0.236 N 
ATOM      9  H   UNL     1       5.906  -6.997  26.149  0.00  0.00    +0.159 HD
ATOM     10  C   UNL     1       6.989  -5.442  27.026  0.00  0.00    +0.308 C 
ATOM     11  O   UNL     1       7.243  -5.886  28.129  0.00  0.00    -0.252 OA
ATOM     12  N   UNL     1       7.385  -4.212  26.573  0.00  0.00    -0.261 N 
ATOM     13  H   UNL     1       8.005  -3.647  27.133  0.00  0.00    +0.154 HD
ATOM     14  O   UNL     1       6.344  -2.887  24.948  0.00  0.00    -0.338 OA
ENDROOT
BRANCH   2  15
ATOM     15  O   UNL     1       9.071  -0.420  24.495  0.00  0.00    -0.386 OA
ATOM     16  H   UNL     1       8.704  -0.059  25.325  0.00  0.00    +0.210 HD
ENDBRANCH   2  15
BRANCH   3  17
ATOM     17  O   UNL     1      10.345  -2.806  23.575  0.00  0.00    -0.386 OA
ATOM     18  H   UNL     1      10.678  -1.892  23.541  0.00  0.00    +0.210 HD
ENDBRANCH   3  17
BRANCH   4  19
ATOM     19  O   UNL     1       9.215  -5.256  24.586  0.00  0.00    -0.384 OA
ATOM     20  H   UNL     1       8.802  -5.737  25.327  0.00  0.00    +0.210 HD
ENDBRANCH   4  19
BRANCH   1  21
ATOM     21  C   UNL     1       6.089  -0.533  24.541  0.00  0.00    +0.190 C 
BRANCH  21  22
ATOM     22  O   UNL     1       6.348  -0.199  23.175  0.00  0.00    -0.392 OA
ATOM     23  H   UNL     1       7.223   0.228  23.149  0.00  0.00    +0.210 HD
ENDBRANCH  21  22
ENDBRANCH   1  21
TORSDOF 5
ENDMDL
MODEL 8
REMARK VINA RESULT:      -5.6      2.500      4.138
REMARK  Name = 
REMARK  5 active torsions:
REMARK  status: ('A' for Active; 'I' for Inactive)
REMARK    1  A    between atoms: O_1  and  C_2
REMARK    2  A    between atoms: C_2  and  C_3
REMARK    3  A    between atoms: C_13  and  O_15
REMARK    4  A    between atoms: C_16  and  O_18
REMARK    5  A    between atoms: C_19  and  O_21
REMARK                            x       y       z     vdW  Elec       q    Type
REMARK                         _______ _______ _______ _____ _____    ______ ____
ROOT
ATOM      1  C   UNL     1       7.921  -1.498  22.285  0.00  0.00    +0.178 C 
ATOM      2  C   UNL     1       7.067  -0.943  23.433  0.00  0.00    +0.177 C 
ATOM      3  C   UNL     1       5.928  -1.900  23.787  0.00  0.00    +0.179 C 
ATOM      4  C   UNL     1       6.463  -3.310  24.050  0.00  0.00    +0.205 C 
ATOM      5  C   UNL     1       7.291  -3.766  22.826  0.00  0.00    +0.244 C 
ATOM      6  C   UNL     1       7.856  -5.170  23.157  0.00  0.00    +0.274 C 
ATOM      7  O   UNL     1       8.620  -5.457  24.069  0.00  0.00    -0.270 OA
ATOM      8  N   UNL     1       7.291  -6.072  22.309  0.00  0.00    -0.236 N 
ATOM      9  H   UNL     1       7.418  -7.069  22.354  0.00  0.00    +0.159 HD
ATOM     10  C   UNL     1       6.441  -5.453  21.462  0.00  0.00    +0.308 C 
ATOM     11  O   UNL     1       5.713  -5.998  20.654  0.00  0.00    -0.252 OA
ATOM     12  N   UNL     1       6.506  -4.101  21.662  0.00  0.00    -0.261 N 
ATOM     13  H   UNL     1       5.857  -3.492  21.186  0.00  0.00    +0.154 HD
ATOM     14  O   UNL     1       8.323  -2.863  22.465  0.00  0.00    -0.338 OA
ENDROOT
BRANCH   2  15
ATOM     15  O   UNL     1       6.534   0.330  23.040  0.00  0.00    -0.386 OA
ATOM     16  H   UNL     1       7.183   1.016  23.293  0.00  0.00    +0.210 HD
ENDBRANCH   2  15
BRANCH   3  17
ATOM     17  O   UNL     1       5.216  -1.371  24.919  0.00  0.00    -0.386 OA
ATOM     18  H   UNL     1       5.379  -1.949  25.686  0.00  0.00    +0.210 HD
ENDBRANCH   3  17
BRANCH   4  19
ATOM     19  O   UNL     1       5.356  -4.186  24.318  0.00  0.00    -0.384 OA
ATOM     20  H   UNL     1       4.577  -3.637  24.523  0.00  0.00    +0.210 HD
ENDBRANCH   4  19
BRANCH   1  21
ATOM     21  C   UNL     1       9.197  -0.652  22.118  0.00  0.00    +0.190 C 
BRANCH  21  22
ATOM     22  O   UNL     1      10.240  -1.439  21.537  0.00  0.00    -0.392 OA
ATOM     23  H   UNL     1      10.178  -1.323  20.572  0.00  0.00    +0.210 HD
ENDBRANCH  21  22
ENDBRANCH   1  21
TORSDOF 5
ENDMDL
MODEL 9
REMARK VINA RESULT:      -5.6      1.987      4.505
REMARK  Name = 
REMARK  5 active torsions:
REMARK  status: ('A' for Active; 'I' for Inactive)
REMARK    1  A    between atoms: O_1  and  C_2
REMARK    2  A    between atoms: C_2  and  C_3
REMARK    3  A    between atoms: C_13  and  O_15
REMARK    4  A    between atoms: C_16  and  O_18
REMARK    5  A    between atoms: C_19  and  O_21
REMARK                            x       y       z     vdW  Elec       q    Type
REMARK                         _______ _______ _______ _____ _____    ______ ____
ROOT
ATOM      1  C   UNL     1       8.691  -4.206  24.476  0.00  0.00    +0.178 C 
ATOM      2  C   UNL     1       8.498  -2.683  24.488  0.00  0.00    +0.177 C 
ATOM      3  C   UNL     1       7.573  -2.233  23.356  0.00  0.00    +0.179 C 
ATOM      4  C   UNL     1       6.258  -3.017  23.385  0.00  0.00    +0.205 C 
ATOM      5  C   UNL     1       6.577  -4.530  23.355  0.00  0.00    +0.244 C 
ATOM      6  C   UNL     1       5.224  -5.281  23.439  0.00  0.00    +0.274 C 
ATOM      7  O   UNL     1       4.417  -5.236  24.357  0.00  0.00    -0.270 OA
ATOM      8  N   UNL     1       5.028  -5.948  22.269  0.00  0.00    -0.236 N 
ATOM      9  H   UNL     1       4.193  -6.452  22.022  0.00  0.00    +0.159 HD
ATOM     10  C   UNL     1       6.068  -5.745  21.432  0.00  0.00    +0.308 C 
ATOM     11  O   UNL     1       6.143  -6.125  20.279  0.00  0.00    -0.252 OA
ATOM     12  N   UNL     1       7.034  -5.020  22.076  0.00  0.00    -0.261 N 
ATOM     13  H   UNL     1       7.837  -4.687  21.563  0.00  0.00    +0.154 HD
ATOM     14  O   UNL     1       7.468  -4.947  24.375  0.00  0.00    -0.338 OA
ENDROOT
BRANCH   2  15
ATOM     15  O   UNL     1       9.780  -2.053  24.354  0.00  0.00    -0.386 OA
ATOM     16  H   UNL     1      10.315  -2.295  25.135  0.00  0.00    +0.210 HD
ENDBRANCH   2  15
BRANCH   3  17
ATOM     17  O   UNL     1       7.361  -0.816  23.469  0.00  0.00    -0.386 OA
ATOM     18  H   UNL     1       7.033  -0.621  24.364  0.00  0.00    +0.210 HD
ENDBRANCH   3  17
BRANCH   4  19
ATOM     19  O   UNL     1       5.447  -2.606  22.272  0.00  0.00    -0.384 OA
ATOM     20  H   UNL     1       6.025  -2.516  21.492  0.00  0.00    +0.210 HD
ENDBRANCH   4  19
BRANCH   1  21
ATOM     21  C   UNL     1       9.410  -4.659  25.760  0.00  0.00    +0.190 C 
BRANCH  21  22
ATOM     22  O   UNL     1      10.465  -5.569  25.441  0.00  0.00    -0.392 OA
ATOM     23  H   UNL     1      11.229  -5.032  25.165  0.00  0.00    +0.210 HD
ENDBRANCH  21  22
ENDBRANCH   1  21
TORSDOF 5
ENDMDL
