MODEL 1
REMARK VINA RESULT:      -5.8      0.000      0.000
REMARK  Name = 
REMARK  14 active torsions:
REMARK  status: ('A' for Active; 'I' for Inactive)
REMARK    1  A    between atoms: C_2  and  O_3
REMARK    2  A    between atoms: C_4  and  C_5
REMARK    3  A    between atoms: C_5  and  O_6
REMARK    4  A    between atoms: C_8  and  N_10
REMARK    5  A    between atoms: N_10  and  C_11
REMARK    6  A    between atoms: C_11  and  C_12
REMARK    7  A    between atoms: C_12  and  C_13
REMARK    8  A    between atoms: C_13  and  C_14
REMARK    9  A    between atoms: C_14  and  C_15
REMARK   10  A    between atoms: C_15  and  C_16
REMARK   11  A    between atoms: C_16  and  C_17
REMARK   12  A    between atoms: C_17  and  C_18
REMARK   13  A    between atoms: C_19  and  O_21
REMARK   14  A    between atoms: C_22  and  O_24
REMARK                            x       y       z     vdW  Elec       q    Type
REMARK                         _______ _______ _______ _____ _____    ______ ____
ROOT
ATOM      1  C   UNL     1       7.414  -4.900  26.891  0.00  0.00    +0.173 C 
ATOM      2  C   UNL     1       8.743  -4.209  26.482  0.00  0.00    +0.177 C 
ATOM      3  C   UNL     1       9.229  -4.406  25.027  0.00  0.00    +0.166 C 
ATOM      4  C   UNL     1       8.149  -4.751  23.959  0.00  0.00    +0.108 C 
ATOM      5  C   UNL     1       6.893  -5.368  24.489  0.00  0.00    -0.002 C 
ATOM      6  C   UNL     1       6.526  -5.387  25.778  0.00  0.00    -0.016 C 
ENDROOT
BRANCH   2   7
ATOM      7  O   UNL     1       8.647  -2.785  26.755  0.00  0.00    -0.386 OA
ATOM      8  H   UNL     1       9.155  -2.604  27.562  0.00  0.00    +0.210 HD
ENDBRANCH   2   7
BRANCH   3   9
ATOM      9  O   UNL     1      10.267  -5.404  24.983  0.00  0.00    -0.387 OA
ATOM     10  H   UNL     1      10.354  -5.745  25.891  0.00  0.00    +0.210 HD
ENDBRANCH   3   9
BRANCH   4  11
ATOM     11  N   UNL     1       7.773  -3.538  23.217  0.00  0.00    -0.308 NA
ATOM     12  H   UNL     1       7.490  -3.768  22.268  0.00  0.00    +0.123 HD
BRANCH  11  13
ATOM     13  C   UNL     1       8.800  -2.494  23.198  0.00  0.00    +0.081 C 
BRANCH  13  14
ATOM     14  C   UNL     1       8.678  -1.663  21.925  0.00  0.00    +0.015 C 
BRANCH  14  15
ATOM     15  C   UNL     1       9.796  -0.633  21.819  0.00  0.00    +0.001 C 
BRANCH  15  16
ATOM     16  C   UNL     1       9.238   0.760  21.569  0.00  0.00    +0.000 C 
BRANCH  16  17
ATOM     17  C   UNL     1      10.173   1.807  22.165  0.00  0.00    -0.000 C 
BRANCH  17  18
ATOM     18  C   UNL     1      10.345   1.588  23.662  0.00  0.00    -0.000 C 
BRANCH  18  19
ATOM     19  C   UNL     1       9.032   1.820  24.401  0.00  0.00    -0.003 C 
ATOM     20  C   UNL     1       8.687   0.632  25.279  0.00  0.00    +0.004 C 
ENDBRANCH  18  19
ENDBRANCH  17  18
ENDBRANCH  16  17
ENDBRANCH  15  16
ENDBRANCH  14  15
ENDBRANCH  13  14
ENDBRANCH  11  13
ENDBRANCH   4  11
BRANCH   1  21
ATOM     21  O   UNL     1       7.710  -6.016  27.736  0.00  0.00    -0.385 OA
ATOM     22  H   UNL     1       8.104  -5.650  28.555  0.00  0.00    +0.210 HD
ENDBRANCH   1  21
BRANCH   6  23
ATOM     23  C   UNL     1       5.141  -5.838  26.158  0.00  0.00    +0.189 C 
BRANCH  23  24
ATOM     24  O   UNL     1       5.224  -7.080  26.833  0.00  0.00    -0.391 OA
ATOM     25  H   UNL     1       5.138  -7.770  26.150  0.00  0.00    +0.210 HD
ENDBRANCH  23  24
ENDBRANCH   6  23
TORSDOF 13
ENDMDL
MODEL 2
REMARK VINA RESULT:      -5.4      2.196      3.259
REMARK  Name = 
REMARK  14 active torsions:
REMARK  status: ('A' for Active; 'I' for Inactive)
REMARK    1  A    between atoms: C_2  and  O_3
REMARK    2  A    between atoms: C_4  and  C_5
REMARK    3  A    between atoms: C_5  and  O_6
REMARK    4  A    between atoms: C_8  and  N_10
REMARK    5  A    between atoms: N_10  and  C_11
REMARK    6  A    between atoms: C_11  and  C_12
REMARK    7  A    between atoms: C_12  and  C_13
REMARK    8  A    between atoms: C_13  and  C_14
REMARK    9  A    between atoms: C_14  and  C_15
REMARK   10  A    between atoms: C_15  and  C_16
REMARK   11  A    between atoms: C_16  and  C_17
REMARK   12  A    between atoms: C_17  and  C_18
REMARK   13  A    between atoms: C_19  and  O_21
REMARK   14  A    between atoms: C_22  and  O_24
REMARK                            x       y       z     vdW  Elec       q    Type
REMARK                         _______ _______ _______ _____ _____    ______ ____
ROOT
ATOM      1  C   UNL     1       5.178  -5.828  23.495  0.00  0.00    +0.173 C 
ATOM      2  C   UNL     1       5.218  -5.246  24.934  0.00  0.00    +0.177 C 
ATOM      3  C   UNL     1       6.608  -4.952  25.544  0.00  0.00    +0.166 C 
ATOM      4  C   UNL     1       7.780  -4.699  24.551  0.00  0.00    +0.108 C 
ATOM      5  C   UNL     1       7.597  -5.270  23.180  0.00  0.00    -0.002 C 
ATOM      6  C   UNL     1       6.437  -5.717  22.677  0.00  0.00    -0.016 C 
ENDROOT
BRANCH   2   7
ATOM      7  O   UNL     1       4.419  -4.034  24.984  0.00  0.00    -0.386 OA
ATOM      8  H   UNL     1       3.535  -4.275  25.304  0.00  0.00    +0.210 HD
ENDBRANCH   2   7
BRANCH   3   9
ATOM      9  O   UNL     1       6.983  -6.006  26.452  0.00  0.00    -0.387 OA
ATOM     10  H   UNL     1       7.832  -5.736  26.845  0.00  0.00    +0.210 HD
ENDBRANCH   3   9
BRANCH   4  11
ATOM     11  N   UNL     1       8.011  -3.253  24.406  0.00  0.00    -0.308 NA
ATOM     12  H   UNL     1       7.665  -2.919  23.510  0.00  0.00    +0.123 HD
BRANCH  11  13
ATOM     13  C   UNL     1       9.402  -2.839  24.595  0.00  0.00    +0.081 C 
BRANCH  13  14
ATOM     14  C   UNL     1       9.945  -2.225  23.309  0.00  0.00    +0.015 C 
BRANCH  14  15
ATOM     15  C   UNL     1       8.837  -1.574  22.488  0.00  0.00    +0.001 C 
BRANCH  15  16
ATOM     16  C   UNL     1       9.410  -0.630  21.443  0.00  0.00    +0.000 C 
BRANCH  16  17
ATOM     17  C   UNL     1       8.898   0.786  21.687  0.00  0.00    -0.000 C 
BRANCH  17  18
ATOM     18  C   UNL     1      10.045   1.719  22.055  0.00  0.00    -0.000 C 
BRANCH  18  19
ATOM     19  C   UNL     1      10.000   2.078  23.536  0.00  0.00    -0.003 C 
ATOM     20  C   UNL     1      10.838   1.113  24.353  0.00  0.00    +0.004 C 
ENDBRANCH  18  19
ENDBRANCH  17  18
ENDBRANCH  16  17
ENDBRANCH  15  16
ENDBRANCH  14  15
ENDBRANCH  13  14
ENDBRANCH  11  13
ENDBRANCH   4  11
BRANCH   1  21
ATOM     21  O   UNL     1       4.819  -7.211  23.562  0.00  0.00    -0.385 OA
ATOM     22  H   UNL     1       3.877  -7.244  23.833  0.00  0.00    +0.210 HD
ENDBRANCH   1  21
BRANCH   6  23
ATOM     23  C   UNL     1       6.332  -6.060  21.216  0.00  0.00    +0.189 C 
BRANCH  23  24
ATOM     24  O   UNL     1       5.895  -4.921  20.499  0.00  0.00    -0.391 OA
ATOM     25  H   UNL     1       6.395  -4.164  20.853  0.00  0.00    +0.210 HD
ENDBRANCH  23  24
ENDBRANCH   6  23
TORSDOF 13
ENDMDL
MODEL 3
REMARK VINA RESULT:      -5.3      1.215      1.478
REMARK  Name = 
REMARK  14 active torsions:
REMARK  status: ('A' for Active; 'I' for Inactive)
REMARK    1  A    between atoms: C_2  and  O_3
REMARK    2  A    between atoms: C_4  and  C_5
REMARK    3  A    between atoms: C_5  and  O_6
REMARK    4  A    between atoms: C_8  and  N_10
REMARK    5  A    between atoms: N_10  and  C_11
REMARK    6  A    between atoms: C_11  and  C_12
REMARK    7  A    between atoms: C_12  and  C_13
REMARK    8  A    between atoms: C_13  and  C_14
REMARK    9  A    between atoms: C_14  and  C_15
REMARK   10  A    between atoms: C_15  and  C_16
REMARK   11  A    between atoms: C_16  and  C_17
REMARK   12  A    between atoms: C_17  and  C_18
REMARK   13  A    between atoms: C_19  and  O_21
REMARK   14  A    between atoms: C_22  and  O_24
REMARK                            x       y       z     vdW  Elec       q    Type
REMARK                         _______ _______ _______ _____ _____    ______ ____
ROOT
ATOM      1  C   UNL     1       6.168  -5.296  25.976  0.00  0.00    +0.173 C 
ATOM      2  C   UNL     1       7.497  -4.654  26.459  0.00  0.00    +0.177 C 
ATOM      3  C   UNL     1       8.673  -4.614  25.456  0.00  0.00    +0.166 C 
ATOM      4  C   UNL     1       8.316  -4.660  23.941  0.00  0.00    +0.108 C 
ATOM      5  C   UNL     1       6.985  -5.258  23.611  0.00  0.00    -0.002 C 
ATOM      6  C   UNL     1       6.001  -5.488  24.492  0.00  0.00    -0.016 C 
ENDROOT
BRANCH   2   7
ATOM      7  O   UNL     1       7.235  -3.304  26.928  0.00  0.00    -0.386 OA
ATOM      8  H   UNL     1       7.792  -2.698  26.415  0.00  0.00    +0.210 HD
ENDBRANCH   2   7
BRANCH   3   9
ATOM      9  O   UNL     1       9.609  -5.669  25.749  0.00  0.00    -0.387 OA
ATOM     10  H   UNL     1      10.249  -5.296  26.381  0.00  0.00    +0.210 HD
ENDBRANCH   3   9
BRANCH   4  11
ATOM     11  N   UNL     1       8.348  -3.301  23.377  0.00  0.00    -0.308 NA
ATOM     12  H   UNL     1       8.424  -3.332  22.364  0.00  0.00    +0.123 HD
BRANCH  11  13
ATOM     13  C   UNL     1       9.389  -2.437  23.935  0.00  0.00    +0.081 C 
BRANCH  13  14
ATOM     14  C   UNL     1      10.223  -1.829  22.811  0.00  0.00    +0.015 C 
BRANCH  14  15
ATOM     15  C   UNL     1       9.352  -1.080  21.810  0.00  0.00    +0.001 C 
BRANCH  15  16
ATOM     16  C   UNL     1       9.779   0.375  21.691  0.00  0.00    +0.000 C 
BRANCH  16  17
ATOM     17  C   UNL     1       8.550   1.277  21.682  0.00  0.00    -0.000 C 
BRANCH  17  18
ATOM     18  C   UNL     1       8.771   2.501  22.561  0.00  0.00    -0.000 C 
BRANCH  18  19
ATOM     19  C   UNL     1       9.535   2.129  23.828  0.00  0.00    -0.003 C 
ATOM     20  C   UNL     1       8.586   1.658  24.914  0.00  0.00    +0.004 C 
ENDBRANCH  18  19
ENDBRANCH  17  18
ENDBRANCH  16  17
ENDBRANCH  15  16
ENDBRANCH  14  15
ENDBRANCH  13  14
ENDBRANCH  11  13
ENDBRANCH   4  11
BRANCH   1  21
ATOM     21  O   UNL     1       6.012  -6.571  26.604  0.00  0.00    -0.385 OA
ATOM     22  H   UNL     1       6.202  -6.440  27.557  0.00  0.00    +0.210 HD
ENDBRANCH   1  21
BRANCH   6  23
ATOM     23  C   UNL     1       4.633  -5.885  24.007  0.00  0.00    +0.189 C 
BRANCH  23  24
ATOM     24  O   UNL     1       4.522  -7.296  24.026  0.00  0.00    -0.391 OA
ATOM     25  H   UNL     1       3.569  -7.496  24.053  0.00  0.00    +0.210 HD
ENDBRANCH  23  24
ENDBRANCH   6  23
TORSDOF 13
ENDMDL
MODEL 4
REMARK VINA RESULT:      -5.2      2.233      3.095
REMARK  Name = 
REMARK  14 active torsions:
REMARK  status: ('A' for Active; 'I' for Inactive)
REMARK    1  A    between atoms: C_2  and  O_3
REMARK    2  A    between atoms: C_4  and  C_5
REMARK    3  A    between atoms: C_5  and  O_6
REMARK    4  A    between atoms: C_8  and  N_10
REMARK    5  A    between atoms: N_10  and  C_11
REMARK    6  A    between atoms: C_11  and  C_12
REMARK    7  A    between atoms: C_12  and  C_13
REMARK    8  A    between atoms: C_13  and  C_14
REMARK    9  A    between atoms: C_14  and  C_15
REMARK   10  A    between atoms: C_15  and  C_16
REMARK   11  A    between atoms: C_16  and  C_17
REMARK   12  A    between atoms: C_17  and  C_18
REMARK   13  A    between atoms: C_19  and  O_21
REMARK   14  A    between atoms: C_22  and  O_24
REMARK                            x       y       z     vdW  Elec       q    Type
REMARK                         _______ _______ _______ _____ _____    ______ ____
ROOT
ATOM      1  C   UNL     1       6.767  -4.858  23.795  0.00  0.00    +0.173 C 
ATOM      2  C   UNL     1       7.640  -5.219  25.027  0.00  0.00    +0.177 C 
ATOM      3  C   UNL     1       9.014  -4.522  25.155  0.00  0.00    +0.166 C 
ATOM      4  C   UNL     1       9.185  -3.153  24.433  0.00  0.00    +0.108 C 
ATOM      5  C   UNL     1       8.250  -2.906  23.291  0.00  0.00    -0.002 C 
ATOM      6  C   UNL     1       7.142  -3.615  23.033  0.00  0.00    -0.016 C 
ENDROOT
BRANCH   2   7
ATOM      7  O   UNL     1       6.879  -4.980  26.241  0.00  0.00    -0.386 OA
ATOM      8  H   UNL     1       6.838  -5.814  26.735  0.00  0.00    +0.210 HD
ENDBRANCH   2   7
BRANCH   3   9
ATOM      9  O   UNL     1      10.062  -5.413  24.726  0.00  0.00    -0.387 OA
ATOM     10  H   UNL     1       9.916  -5.566  23.776  0.00  0.00    +0.210 HD
ENDBRANCH   3   9
BRANCH   4  11
ATOM     11  N   UNL     1       9.017  -2.054  25.395  0.00  0.00    -0.308 NA
ATOM     12  H   UNL     1       8.346  -2.305  26.118  0.00  0.00    +0.123 HD
BRANCH  11  13
ATOM     13  C   UNL     1       8.654  -0.770  24.794  0.00  0.00    +0.081 C 
BRANCH  13  14
ATOM     14  C   UNL     1       9.726   0.272  25.097  0.00  0.00    +0.015 C 
BRANCH  14  15
ATOM     15  C   UNL     1      10.701   0.426  23.936  0.00  0.00    +0.001 C 
BRANCH  15  16
ATOM     16  C   UNL     1       9.970   0.438  22.602  0.00  0.00    +0.000 C 
BRANCH  16  17
ATOM     17  C   UNL     1       9.985   1.846  22.016  0.00  0.00    -0.000 C 
BRANCH  17  18
ATOM     18  C   UNL     1       8.638   2.528  22.216  0.00  0.00    -0.000 C 
BRANCH  18  19
ATOM     19  C   UNL     1       7.494   1.533  22.052  0.00  0.00    -0.003 C 
ATOM     20  C   UNL     1       6.469   1.698  23.158  0.00  0.00    +0.004 C 
ENDBRANCH  18  19
ENDBRANCH  17  18
ENDBRANCH  16  17
ENDBRANCH  15  16
ENDBRANCH  14  15
ENDBRANCH  13  14
ENDBRANCH  11  13
ENDBRANCH   4  11
BRANCH   1  21
ATOM     21  O   UNL     1       6.780  -5.955  22.878  0.00  0.00    -0.385 OA
ATOM     22  H   UNL     1       7.710  -6.070  22.591  0.00  0.00    +0.210 HD
ENDBRANCH   1  21
BRANCH   6  23
ATOM     23  C   UNL     1       6.166  -3.134  21.993  0.00  0.00    +0.189 C 
BRANCH  23  24
ATOM     24  O   UNL     1       4.991  -3.921  22.056  0.00  0.00    -0.391 OA
ATOM     25  H   UNL     1       4.861  -4.293  21.164  0.00  0.00    +0.210 HD
ENDBRANCH  23  24
ENDBRANCH   6  23
TORSDOF 13
ENDMDL
MODEL 5
REMARK VINA RESULT:      -5.1      3.294      7.249
REMARK  Name = 
REMARK  14 active torsions:
REMARK  status: ('A' for Active; 'I' for Inactive)
REMARK    1  A    between atoms: C_2  and  O_3
REMARK    2  A    between atoms: C_4  and  C_5
REMARK    3  A    between atoms: C_5  and  O_6
REMARK    4  A    between atoms: C_8  and  N_10
REMARK    5  A    between atoms: N_10  and  C_11
REMARK    6  A    between atoms: C_11  and  C_12
REMARK    7  A    between atoms: C_12  and  C_13
REMARK    8  A    between atoms: C_13  and  C_14
REMARK    9  A    between atoms: C_14  and  C_15
REMARK   10  A    between atoms: C_15  and  C_16
REMARK   11  A    between atoms: C_16  and  C_17
REMARK   12  A    between atoms: C_17  and  C_18
REMARK   13  A    between atoms: C_19  and  O_21
REMARK   14  A    between atoms: C_22  and  O_24
REMARK                            x       y       z     vdW  Elec       q    Type
REMARK                         _______ _______ _______ _____ _____    ______ ____
ROOT
ATOM      1  C   UNL     1       8.963   1.479  22.483  0.00  0.00    +0.173 C 
ATOM      2  C   UNL     1       8.643  -0.038  22.420  0.00  0.00    +0.177 C 
ATOM      3  C   UNL     1       9.514  -0.986  23.276  0.00  0.00    +0.166 C 
ATOM      4  C   UNL     1      10.215  -0.373  24.524  0.00  0.00    +0.108 C 
ATOM      5  C   UNL     1      10.422   1.109  24.483  0.00  0.00    -0.002 C 
ATOM      6  C   UNL     1       9.827   1.949  23.624  0.00  0.00    -0.016 C 
ENDROOT
BRANCH   2   7
ATOM      7  O   UNL     1       7.246  -0.248  22.763  0.00  0.00    -0.386 OA
ATOM      8  H   UNL     1       6.791  -0.568  21.969  0.00  0.00    +0.210 HD
ENDBRANCH   2   7
BRANCH   3   9
ATOM      9  O   UNL     1      10.505  -1.628  22.450  0.00  0.00    -0.387 OA
ATOM     10  H   UNL     1      10.151  -2.510  22.238  0.00  0.00    +0.210 HD
ENDBRANCH   3   9
BRANCH   4  11
ATOM     11  N   UNL     1       9.442  -0.683  25.736  0.00  0.00    -0.308 NA
ATOM     12  H   UNL     1      10.049  -0.728  26.551  0.00  0.00    +0.123 HD
BRANCH  11  13
ATOM     13  C   UNL     1       8.629  -1.897  25.644  0.00  0.00    +0.081 C 
BRANCH  13  14
ATOM     14  C   UNL     1       7.304  -1.695  26.372  0.00  0.00    +0.015 C 
BRANCH  14  15
ATOM     15  C   UNL     1       6.644  -3.026  26.712  0.00  0.00    +0.001 C 
BRANCH  15  16
ATOM     16  C   UNL     1       7.652  -4.164  26.676  0.00  0.00    +0.000 C 
BRANCH  16  17
ATOM     17  C   UNL     1       6.997  -5.420  26.109  0.00  0.00    -0.000 C 
BRANCH  17  18
ATOM     18  C   UNL     1       6.511  -5.179  24.686  0.00  0.00    -0.000 C 
BRANCH  18  19
ATOM     19  C   UNL     1       7.688  -5.019  23.729  0.00  0.00    -0.003 C 
ATOM     20  C   UNL     1       7.392  -3.964  22.678  0.00  0.00    +0.004 C 
ENDBRANCH  18  19
ENDBRANCH  17  18
ENDBRANCH  16  17
ENDBRANCH  15  16
ENDBRANCH  14  15
ENDBRANCH  13  14
ENDBRANCH  11  13
ENDBRANCH   4  11
BRANCH   1  21
ATOM     21  O   UNL     1       9.597   1.873  21.263  0.00  0.00    -0.385 OA
ATOM     22  H   UNL     1      10.555   1.951  21.457  0.00  0.00    +0.210 HD
ENDBRANCH   1  21
BRANCH   6  23
ATOM     23  C   UNL     1       9.943   3.436  23.823  0.00  0.00    +0.189 C 
BRANCH  23  24
ATOM     24  O   UNL     1      11.001   3.933  23.025  0.00  0.00    -0.391 OA
ATOM     25  H   UNL     1      11.790   3.410  23.257  0.00  0.00    +0.210 HD
ENDBRANCH  23  24
ENDBRANCH   6  23
TORSDOF 13
ENDMDL
MODEL 6
REMARK VINA RESULT:      -5.1      2.574      3.508
REMARK  Name = 
REMARK  14 active torsions:
REMARK  status: ('A' for Active; 'I' for Inactive)
REMARK    1  A    between atoms: C_2  and  O_3
REMARK    2  A    between atoms: C_4  and  C_5
REMARK    3  A    between atoms: C_5  and  O_6
REMARK    4  A    between atoms: C_8  and  N_10
REMARK    5  A    between atoms: N_10  and  C_11
REMARK    6  A    between atoms: C_11  and  C_12
REMARK    7  A    between atoms: C_12  and  C_13
REMARK    8  A    between atoms: C_13  and  C_14
REMARK    9  A    between atoms: C_14  and  C_15
REMARK   10  A    between atoms: C_15  and  C_16
REMARK   11  A    between atoms: C_16  and  C_17
REMARK   12  A    between atoms: C_17  and  C_18
REMARK   13  A    between atoms: C_19  and  O_21
REMARK   14  A    between atoms: C_22  and  O_24
REMARK                            x       y       z     vdW  Elec       q    Type
REMARK                         _______ _______ _______ _____ _____    ______ ____
ROOT
ATOM      1  C   UNL     1       5.070  -5.782  22.723  0.00  0.00    +0.173 C 
ATOM      2  C   UNL     1       5.951  -4.919  21.779  0.00  0.00    +0.177 C 
ATOM      3  C   UNL     1       6.826  -3.821  22.428  0.00  0.00    +0.166 C 
ATOM      4  C   UNL     1       7.217  -4.017  23.923  0.00  0.00    +0.108 C 
ATOM      5  C   UNL     1       6.315  -4.912  24.713  0.00  0.00    -0.002 C 
ATOM      6  C   UNL     1       5.402  -5.744  24.191  0.00  0.00    -0.016 C 
ENDROOT
BRANCH   2   7
ATOM      7  O   UNL     1       6.802  -5.790  20.988  0.00  0.00    -0.386 OA
ATOM      8  H   UNL     1       7.286  -5.237  20.355  0.00  0.00    +0.210 HD
ENDBRANCH   2   7
BRANCH   3   9
ATOM      9  O   UNL     1       6.200  -2.533  22.272  0.00  0.00    -0.387 OA
ATOM     10  H   UNL     1       6.098  -2.171  23.170  0.00  0.00    +0.210 HD
ENDBRANCH   3   9
BRANCH   4  11
ATOM     11  N   UNL     1       8.581  -4.561  24.017  0.00  0.00    -0.308 NA
ATOM     12  H   UNL     1       8.583  -5.448  24.513  0.00  0.00    +0.123 HD
BRANCH  11  13
ATOM     13  C   UNL     1       9.558  -3.648  24.612  0.00  0.00    +0.081 C 
BRANCH  13  14
ATOM     14  C   UNL     1       9.325  -2.228  24.104  0.00  0.00    +0.015 C 
BRANCH  14  15
ATOM     15  C   UNL     1      10.290  -1.870  22.980  0.00  0.00    +0.001 C 
BRANCH  15  16
ATOM     16  C   UNL     1      10.268  -0.377  22.691  0.00  0.00    +0.000 C 
BRANCH  16  17
ATOM     17  C   UNL     1       9.423  -0.101  21.452  0.00  0.00    -0.000 C 
BRANCH  17  18
ATOM     18  C   UNL     1       8.807   1.290  21.517  0.00  0.00    -0.000 C 
BRANCH  18  19
ATOM     19  C   UNL     1       8.216   1.560  22.896  0.00  0.00    -0.003 C 
ATOM     20  C   UNL     1       6.828   0.957  23.018  0.00  0.00    +0.004 C 
ENDBRANCH  18  19
ENDBRANCH  17  18
ENDBRANCH  16  17
ENDBRANCH  15  16
ENDBRANCH  14  15
ENDBRANCH  13  14
ENDBRANCH  11  13
ENDBRANCH   4  11
BRANCH   1  21
ATOM     21  O   UNL     1       3.703  -5.390  22.572  0.00  0.00    -0.385 OA
ATOM     22  H   UNL     1       3.433  -5.657  21.668  0.00  0.00    +0.210 HD
ENDBRANCH   1  21
BRANCH   6  23
ATOM     23  C   UNL     1       4.713  -6.751  25.071  0.00  0.00    +0.189 C 
BRANCH  23  24
ATOM     24  O   UNL     1       4.092  -7.733  24.261  0.00  0.00    -0.391 OA
ATOM     25  H   UNL     1       4.292  -7.493  23.338  0.00  0.00    +0.210 HD
ENDBRANCH  23  24
ENDBRANCH   6  23
TORSDOF 13
ENDMDL
MODEL 7
REMARK VINA RESULT:      -5.1      3.466      7.115
REMARK  Name = 
REMARK  14 active torsions:
REMARK  status: ('A' for Active; 'I' for Inactive)
REMARK    1  A    between atoms: C_2  and  O_3
REMARK    2  A    between atoms: C_4  and  C_5
REMARK    3  A    between atoms: C_5  and  O_6
REMARK    4  A    between atoms: C_8  and  N_10
REMARK    5  A    between atoms: N_10  and  C_11
REMARK    6  A    between atoms: C_11  and  C_12
REMARK    7  A    between atoms: C_12  and  C_13
REMARK    8  A    between atoms: C_13  and  C_14
REMARK    9  A    between atoms: C_14  and  C_15
REMARK   10  A    between atoms: C_15  and  C_16
REMARK   11  A    between atoms: C_16  and  C_17
REMARK   12  A    between atoms: C_17  and  C_18
REMARK   13  A    between atoms: C_19  and  O_21
REMARK   14  A    between atoms: C_22  and  O_24
REMARK                            x       y       z     vdW  Elec       q    Type
REMARK                         _______ _______ _______ _____ _____    ______ ____
ROOT
ATOM      1  C   UNL     1       9.018   0.964  21.784  0.00  0.00    +0.173 C 
ATOM      2  C   UNL     1      10.155   0.019  22.258  0.00  0.00    +0.177 C 
ATOM      3  C   UNL     1      10.206  -0.333  23.763  0.00  0.00    +0.166 C 
ATOM      4  C   UNL     1       8.874  -0.228  24.562  0.00  0.00    +0.108 C 
ATOM      5  C   UNL     1       7.839   0.677  23.973  0.00  0.00    -0.002 C 
ATOM      6  C   UNL     1       7.858   1.163  22.723  0.00  0.00    -0.016 C 
ENDROOT
BRANCH   2   7
ATOM      7  O   UNL     1      10.107  -1.213  21.489  0.00  0.00    -0.386 OA
ATOM      8  H   UNL     1       9.793  -0.994  20.598  0.00  0.00    +0.210 HD
ENDBRANCH   2   7
BRANCH   3   9
ATOM      9  O   UNL     1      11.212   0.460  24.422  0.00  0.00    -0.387 OA
ATOM     10  H   UNL     1      10.744   0.987  25.094  0.00  0.00    +0.210 HD
ENDBRANCH   3   9
BRANCH   4  11
ATOM     11  N   UNL     1       8.271  -1.562  24.707  0.00  0.00    -0.308 NA
ATOM     12  H   UNL     1       7.665  -1.598  25.524  0.00  0.00    +0.123 HD
BRANCH  11  13
ATOM     13  C   UNL     1       9.234  -2.664  24.745  0.00  0.00    +0.081 C 
BRANCH  13  14
ATOM     14  C   UNL     1       8.564  -3.960  24.300  0.00  0.00    +0.015 C 
BRANCH  14  15
ATOM     15  C   UNL     1       8.201  -4.840  25.491  0.00  0.00    +0.001 C 
BRANCH  15  16
ATOM     16  C   UNL     1       6.747  -5.282  25.425  0.00  0.00    +0.000 C 
BRANCH  16  17
ATOM     17  C   UNL     1       6.101  -4.748  24.151  0.00  0.00    -0.000 C 
BRANCH  17  18
ATOM     18  C   UNL     1       5.349  -5.854  23.423  0.00  0.00    -0.000 C 
BRANCH  18  19
ATOM     19  C   UNL     1       5.626  -5.805  21.924  0.00  0.00    -0.003 C 
ATOM     20  C   UNL     1       7.115  -5.884  21.646  0.00  0.00    +0.004 C 
ENDBRANCH  18  19
ENDBRANCH  17  18
ENDBRANCH  16  17
ENDBRANCH  15  16
ENDBRANCH  14  15
ENDBRANCH  13  14
ENDBRANCH  11  13
ENDBRANCH   4  11
BRANCH   1  21
ATOM     21  O   UNL     1       9.571   2.250  21.491  0.00  0.00    -0.385 OA
ATOM     22  H   UNL     1       9.465   2.388  20.526  0.00  0.00    +0.210 HD
ENDBRANCH   1  21
BRANCH   6  23
ATOM     23  C   UNL     1       6.654   1.880  22.176  0.00  0.00    +0.189 C 
BRANCH  23  24
ATOM     24  O   UNL     1       7.012   3.210  21.846  0.00  0.00    -0.391 OA
ATOM     25  H   UNL     1       7.575   3.532  22.573  0.00  0.00    +0.210 HD
ENDBRANCH  23  24
ENDBRANCH   6  23
TORSDOF 13
ENDMDL
MODEL 8
REMARK VINA RESULT:      -5.0      3.408      6.832
REMARK  Name = 
REMARK  14 active torsions:
REMARK  status: ('A' for Active; 'I' for Inactive)
REMARK    1  A    between atoms: C_2  and  O_3
REMARK    2  A    between atoms: C_4  and  C_5
REMARK    3  A    between atoms: C_5  and  O_6
REMARK    4  A    between atoms: C_8  and  N_10
REMARK    5  A    between atoms: N_10  and  C_11
REMARK    6  A    between atoms: C_11  and  C_12
REMARK    7  A    between atoms: C_12  and  C_13
REMARK    8  A    between atoms: C_13  and  C_14
REMARK    9  A    between atoms: C_14  and  C_15
REMARK   10  A    between atoms: C_15  and  C_16
REMARK   11  A    between atoms: C_16  and  C_17
REMARK   12  A    between atoms: C_17  and  C_18
REMARK   13  A    between atoms: C_19  and  O_21
REMARK   14  A    between atoms: C_22  and  O_24
REMARK                            x       y       z     vdW  Elec       q    Type
REMARK                         _______ _______ _______ _____ _____    ______ ____
ROOT
ATOM      1  C   UNL     1       9.299   1.154  21.797  0.00  0.00    +0.173 C 
ATOM      2  C   UNL     1      10.155   0.004  22.393  0.00  0.00    +0.177 C 
ATOM      3  C   UNL     1       9.945  -0.340  23.886  0.00  0.00    +0.166 C 
ATOM      4  C   UNL     1       8.570   0.035  24.513  0.00  0.00    +0.108 C 
ATOM      5  C   UNL     1       7.820   1.126  23.816  0.00  0.00    -0.002 C 
ATOM      6  C   UNL     1       8.094   1.589  22.588  0.00  0.00    -0.016 C 
ENDROOT
BRANCH   2   7
ATOM      7  O   UNL     1       9.959  -1.199  21.602  0.00  0.00    -0.386 OA
ATOM      8  H   UNL     1      10.301  -1.949  22.114  0.00  0.00    +0.210 HD
ENDBRANCH   2   7
BRANCH   3   9
ATOM      9  O   UNL     1      10.997   0.239  24.680  0.00  0.00    -0.387 OA
ATOM     10  H   UNL     1      11.698   0.497  24.055  0.00  0.00    +0.210 HD
ENDBRANCH   3   9
BRANCH   4  11
ATOM     11  N   UNL     1       7.699  -1.150  24.558  0.00  0.00    -0.308 NA
ATOM     12  H   UNL     1       8.234  -1.999  24.394  0.00  0.00    +0.123 HD
BRANCH  11  13
ATOM     13  C   UNL     1       6.551  -1.093  23.651  0.00  0.00    +0.081 C 
BRANCH  13  14
ATOM     14  C   UNL     1       6.660  -2.195  22.601  0.00  0.00    +0.015 C 
BRANCH  14  15
ATOM     15  C   UNL     1       5.532  -3.211  22.738  0.00  0.00    +0.001 C 
BRANCH  15  16
ATOM     16  C   UNL     1       5.955  -4.388  23.604  0.00  0.00    +0.000 C 
BRANCH  16  17
ATOM     17  C   UNL     1       7.291  -4.937  23.115  0.00  0.00    -0.000 C 
BRANCH  17  18
ATOM     18  C   UNL     1       8.325  -4.917  24.233  0.00  0.00    -0.000 C 
BRANCH  18  19
ATOM     19  C   UNL     1       7.682  -5.250  25.575  0.00  0.00    -0.003 C 
ATOM     20  C   UNL     1       8.089  -4.243  26.635  0.00  0.00    +0.004 C 
ENDBRANCH  18  19
ENDBRANCH  17  18
ENDBRANCH  16  17
ENDBRANCH  15  16
ENDBRANCH  14  15
ENDBRANCH  13  14
ENDBRANCH  11  13
ENDBRANCH   4  11
BRANCH   1  21
ATOM     21  O   UNL     1      10.131   2.300  21.600  0.00  0.00    -0.385 OA
ATOM     22  H   UNL     1      10.691   2.381  22.400  0.00  0.00    +0.210 HD
ENDBRANCH   1  21
BRANCH   6  23
ATOM     23  C   UNL     1       7.136   2.529  21.908  0.00  0.00    +0.189 C 
BRANCH  23  24
ATOM     24  O   UNL     1       7.666   3.841  21.940  0.00  0.00    -0.391 OA
ATOM     25  H   UNL     1       8.582   3.775  21.612  0.00  0.00    +0.210 HD
ENDBRANCH  23  24
ENDBRANCH   6  23
TORSDOF 13
ENDMDL
MODEL 9
REMARK VINA RESULT:      -4.9      2.386      3.518
REMARK  Name = 
REMARK  14 active torsions:
REMARK  status: ('A' for Active; 'I' for Inactive)
REMARK    1  A    between atoms: C_2  and  O_3
REMARK    2  A    between atoms: C_4  and  C_5
REMARK    3  A    between atoms: C_5  and  O_6
REMARK    4  A    between atoms: C_8  and  N_10
REMARK    5  A    between atoms: N_10  and  C_11
REMARK    6  A    between atoms: C_11  and  C_12
REMARK    7  A    between atoms: C_12  and  C_13
REMARK    8  A    between atoms: C_13  and  C_14
REMARK    9  A    between atoms: C_14  and  C_15
REMARK   10  A    between atoms: C_15  and  C_16
REMARK   11  A    between atoms: C_16  and  C_17
REMARK   12  A    between atoms: C_17  and  C_18
REMARK   13  A    between atoms: C_19  and  O_21
REMARK   14  A    between atoms: C_22  and  O_24
REMARK                            x       y       z     vdW  Elec       q    Type
REMARK                         _______ _______ _______ _____ _____    ______ ____
ROOT
ATOM      1  C   UNL     1       7.323  -5.147  23.849  0.00  0.00    +0.173 C 
ATOM      2  C   UNL     1       6.512  -4.377  22.772  0.00  0.00    +0.177 C 
ATOM      3  C   UNL     1       6.683  -2.841  22.716  0.00  0.00    +0.166 C 
ATOM      4  C   UNL     1       8.007  -2.253  23.285  0.00  0.00    +0.108 C 
ATOM      5  C   UNL     1       8.720  -3.115  24.279  0.00  0.00    -0.002 C 
ATOM      6  C   UNL     1       8.469  -4.414  24.496  0.00  0.00    -0.016 C 
ENDROOT
BRANCH   2   7
ATOM      7  O   UNL     1       6.809  -4.930  21.462  0.00  0.00    -0.386 OA
ATOM      8  H   UNL     1       6.541  -4.276  20.797  0.00  0.00    +0.210 HD
ENDBRANCH   2   7
BRANCH   3   9
ATOM      9  O   UNL     1       5.568  -2.195  23.360  0.00  0.00    -0.387 OA
ATOM     10  H   UNL     1       4.904  -2.891  23.514  0.00  0.00    +0.210 HD
ENDBRANCH   3   9
BRANCH   4  11
ATOM     11  N   UNL     1       8.944  -1.969  22.186  0.00  0.00    -0.308 NA
ATOM     12  H   UNL     1       9.098  -2.799  21.619  0.00  0.00    +0.123 HD
BRANCH  11  13
ATOM     13  C   UNL     1      10.225  -1.403  22.611  0.00  0.00    +0.081 C 
BRANCH  13  14
ATOM     14  C   UNL     1      10.199   0.116  22.468  0.00  0.00    +0.015 C 
BRANCH  14  15
ATOM     15  C   UNL     1       9.212   0.560  21.395  0.00  0.00    +0.001 C 
BRANCH  15  16
ATOM     16  C   UNL     1       8.602   1.911  21.736  0.00  0.00    +0.000 C 
BRANCH  16  17
ATOM     17  C   UNL     1       9.255   2.472  22.995  0.00  0.00    -0.000 C 
BRANCH  17  18
ATOM     18  C   UNL     1       8.661   3.827  23.353  0.00  0.00    -0.000 C 
BRANCH  18  19
ATOM     19  C   UNL     1       9.665   4.675  24.127  0.00  0.00    -0.003 C 
ATOM     20  C   UNL     1       9.762   6.071  23.539  0.00  0.00    +0.004 C 
ENDBRANCH  18  19
ENDBRANCH  17  18
ENDBRANCH  16  17
ENDBRANCH  15  16
ENDBRANCH  14  15
ENDBRANCH  13  14
ENDBRANCH  11  13
ENDBRANCH   4  11
BRANCH   1  21
ATOM     21  O   UNL     1       6.435  -5.572  24.886  0.00  0.00    -0.385 OA
ATOM     22  H   UNL     1       6.987  -5.736  25.679  0.00  0.00    +0.210 HD
ENDBRANCH   1  21
BRANCH   6  23
ATOM     23  C   UNL     1       9.397  -5.226  25.358  0.00  0.00    +0.189 C 
BRANCH  23  24
ATOM     24  O   UNL     1       8.647  -5.880  26.365  0.00  0.00    -0.391 OA
ATOM     25  H   UNL     1       8.812  -6.834  26.255  0.00  0.00    +0.210 HD
ENDBRANCH  23  24
ENDBRANCH   6  23
TORSDOF 13
ENDMDL
