MODEL 1
REMARK VINA RESULT:      -7.4      0.000      0.000
REMARK  Name = 
REMARK  1 active torsions:
REMARK  status: ('A' for Active; 'I' for Inactive)
REMARK    1  A    between atoms: C_4  and  C_16
REMARK                            x       y       z     vdW  Elec       q    Type
REMARK                         _______ _______ _______ _____ _____    ______ ____
ROOT
ATOM      1  O   UNL     1       9.068  -0.546  21.232  0.00  0.00    -0.287 OA
ATOM      2  C   UNL     1       9.186  -0.040  22.339  0.00  0.00    +0.194 A 
ATOM      3  C   UNL     1       8.877  -0.715  23.623  0.00  0.00    +0.072 A 
ATOM      4  C   UNL     1       8.373  -2.054  23.692  0.00  0.00    -0.004 A 
ATOM      5  C   UNL     1       8.092  -2.591  24.975  0.00  0.00    -0.017 A 
ATOM      6  C   UNL     1       8.311  -1.817  26.125  0.00  0.00    +0.012 A 
ATOM      7  C   UNL     1       8.810  -0.518  26.036  0.00  0.00    +0.047 A 
ATOM      8  C   UNL     1       7.594  -3.901  25.103  0.00  0.00    +0.008 A 
ATOM      9  C   UNL     1       7.366  -4.700  23.987  0.00  0.00    +0.001 A 
ATOM     10  C   UNL     1       7.632  -4.203  22.723  0.00  0.00    +0.001 A 
ATOM     11  C   UNL     1       8.124  -2.903  22.581  0.00  0.00    +0.009 A 
ATOM     12  C   UNL     1       9.095   0.034  24.790  0.00  0.00    +0.140 A 
ATOM     13  O   UNL     1       9.589   1.320  24.802  0.00  0.00    -0.455 OA
ATOM     14  C   UNL     1       9.861   1.938  23.591  0.00  0.00    +0.139 A 
ATOM     15  C   UNL     1       9.666   1.344  22.409  0.00  0.00    +0.098 A 
ENDROOT
BRANCH  14  16
ATOM     16  C   UNL     1      10.335   3.341  23.665  0.00  0.00    +0.017 A 
ATOM     17  C   UNL     1      11.656   3.686  23.321  0.00  0.00    +0.011 A 
ATOM     18  C   UNL     1      12.081   5.017  23.299  0.00  0.00    +0.001 A 
ATOM     19  C   UNL     1      11.197   6.031  23.651  0.00  0.00    +0.000 A 
ATOM     20  C   UNL     1       9.900   5.711  24.043  0.00  0.00    +0.001 A 
ATOM     21  C   UNL     1       9.472   4.377  24.054  0.00  0.00    +0.011 A 
ENDBRANCH  14  16
TORSDOF 1
ENDMDL
MODEL 2
REMARK VINA RESULT:      -7.3      2.166      3.858
REMARK  Name = 
REMARK  1 active torsions:
REMARK  status: ('A' for Active; 'I' for Inactive)
REMARK    1  A    between atoms: C_4  and  C_16
REMARK                            x       y       z     vdW  Elec       q    Type
REMARK                         _______ _______ _______ _____ _____    ______ ____
ROOT
ATOM      1  O   UNL     1       6.293  -3.716  21.819  0.00  0.00    -0.287 OA
ATOM      2  C   UNL     1       6.871  -3.218  22.775  0.00  0.00    +0.194 A 
ATOM      3  C   UNL     1       6.819  -3.733  24.165  0.00  0.00    +0.072 A 
ATOM      4  C   UNL     1       6.049  -4.881  24.538  0.00  0.00    -0.004 A 
ATOM      5  C   UNL     1       6.058  -5.271  25.903  0.00  0.00    -0.017 A 
ATOM      6  C   UNL     1       6.807  -4.540  26.837  0.00  0.00    +0.012 A 
ATOM      7  C   UNL     1       7.557  -3.430  26.453  0.00  0.00    +0.047 A 
ATOM      8  C   UNL     1       5.318  -6.391  26.326  0.00  0.00    +0.008 A 
ATOM      9  C   UNL     1       4.566  -7.142  25.428  0.00  0.00    +0.001 A 
ATOM     10  C   UNL     1       4.539  -6.785  24.091  0.00  0.00    +0.001 A 
ATOM     11  C   UNL     1       5.266  -5.674  23.657  0.00  0.00    +0.009 A 
ATOM     12  C   UNL     1       7.567  -3.025  25.120  0.00  0.00    +0.140 A 
ATOM     13  O   UNL     1       8.340  -1.922  24.833  0.00  0.00    -0.455 OA
ATOM     14  C   UNL     1       8.365  -1.449  23.531  0.00  0.00    +0.139 A 
ATOM     15  C   UNL     1       7.673  -2.014  22.536  0.00  0.00    +0.098 A 
ENDROOT
BRANCH  14  16
ATOM     16  C   UNL     1       9.169  -0.225  23.295  0.00  0.00    +0.017 A 
ATOM     17  C   UNL     1       9.134   0.446  22.057  0.00  0.00    +0.011 A 
ATOM     18  C   UNL     1       9.814   1.650  21.860  0.00  0.00    +0.001 A 
ATOM     19  C   UNL     1      10.570   2.195  22.892  0.00  0.00    +0.000 A 
ATOM     20  C   UNL     1      10.659   1.526  24.110  0.00  0.00    +0.001 A 
ATOM     21  C   UNL     1       9.967   0.324  24.310  0.00  0.00    +0.011 A 
ENDBRANCH  14  16
TORSDOF 1
ENDMDL
MODEL 3
REMARK VINA RESULT:      -7.2      1.608      7.194
REMARK  Name = 
REMARK  1 active torsions:
REMARK  status: ('A' for Active; 'I' for Inactive)
REMARK    1  A    between atoms: C_4  and  C_16
REMARK                            x       y       z     vdW  Elec       q    Type
REMARK                         _______ _______ _______ _____ _____    ______ ____
ROOT
ATOM      1  O   UNL     1      10.908   1.275  24.433  0.00  0.00    -0.287 OA
ATOM      2  C   UNL     1       9.857   0.891  23.938  0.00  0.00    +0.194 A 
ATOM      3  C   UNL     1       8.804   1.774  23.381  0.00  0.00    +0.072 A 
ATOM      4  C   UNL     1       8.906   3.202  23.389  0.00  0.00    -0.004 A 
ATOM      5  C   UNL     1       7.827   3.948  22.847  0.00  0.00    -0.017 A 
ATOM      6  C   UNL     1       6.707   3.284  22.324  0.00  0.00    +0.012 A 
ATOM      7  C   UNL     1       6.630   1.892  22.317  0.00  0.00    +0.047 A 
ATOM      8  C   UNL     1       7.873   5.354  22.831  0.00  0.00    +0.008 A 
ATOM      9  C   UNL     1       8.967   6.048  23.338  0.00  0.00    +0.001 A 
ATOM     10  C   UNL     1      10.034   5.347  23.872  0.00  0.00    +0.001 A 
ATOM     11  C   UNL     1      10.001   3.951  23.898  0.00  0.00    +0.009 A 
ATOM     12  C   UNL     1       7.676   1.135  22.842  0.00  0.00    +0.140 A 
ATOM     13  O   UNL     1       7.513  -0.232  22.788  0.00  0.00    -0.455 OA
ATOM     14  C   UNL     1       8.504  -1.039  23.325  0.00  0.00    +0.139 A 
ATOM     15  C   UNL     1       9.611  -0.555  23.895  0.00  0.00    +0.098 A 
ENDROOT
BRANCH  14  16
ATOM     16  C   UNL     1       8.246  -2.499  23.290  0.00  0.00    +0.017 A 
ATOM     17  C   UNL     1       8.796  -3.363  24.257  0.00  0.00    +0.011 A 
ATOM     18  C   UNL     1       8.482  -4.723  24.284  0.00  0.00    +0.001 A 
ATOM     19  C   UNL     1       7.631  -5.256  23.323  0.00  0.00    +0.000 A 
ATOM     20  C   UNL     1       7.113  -4.432  22.326  0.00  0.00    +0.001 A 
ATOM     21  C   UNL     1       7.421  -3.066  22.307  0.00  0.00    +0.011 A 
ENDBRANCH  14  16
TORSDOF 1
ENDMDL
MODEL 4
REMARK VINA RESULT:      -7.2      1.726      7.394
REMARK  Name = 
REMARK  1 active torsions:
REMARK  status: ('A' for Active; 'I' for Inactive)
REMARK    1  A    between atoms: C_4  and  C_16
REMARK                            x       y       z     vdW  Elec       q    Type
REMARK                         _______ _______ _______ _____ _____    ______ ____
ROOT
ATOM      1  O   UNL     1       6.315   0.458  25.336  0.00  0.00    -0.287 OA
ATOM      2  C   UNL     1       6.989  -0.018  24.433  0.00  0.00    +0.194 A 
ATOM      3  C   UNL     1       8.077   0.690  23.716  0.00  0.00    +0.072 A 
ATOM      4  C   UNL     1       8.439   2.046  24.001  0.00  0.00    -0.004 A 
ATOM      5  C   UNL     1       9.483   2.629  23.237  0.00  0.00    -0.017 A 
ATOM      6  C   UNL     1      10.126   1.880  22.239  0.00  0.00    +0.012 A 
ATOM      7  C   UNL     1       9.764   0.559  21.982  0.00  0.00    +0.047 A 
ATOM      8  C   UNL     1       9.879   3.958  23.473  0.00  0.00    +0.008 A 
ATOM      9  C   UNL     1       9.267   4.731  24.455  0.00  0.00    +0.001 A 
ATOM     10  C   UNL     1       8.247   4.189  25.217  0.00  0.00    +0.001 A 
ATOM     11  C   UNL     1       7.841   2.871  24.991  0.00  0.00    +0.009 A 
ATOM     12  C   UNL     1       8.744  -0.039  22.718  0.00  0.00    +0.140 A 
ATOM     13  O   UNL     1       8.459  -1.348  22.397  0.00  0.00    -0.455 OA
ATOM     14  C   UNL     1       7.431  -1.989  23.071  0.00  0.00    +0.139 A 
ATOM     15  C   UNL     1       6.700  -1.395  24.020  0.00  0.00    +0.098 A 
ENDROOT
BRANCH  14  16
ATOM     16  C   UNL     1       7.134  -3.377  22.642  0.00  0.00    +0.017 A 
ATOM     17  C   UNL     1       6.218  -3.642  21.605  0.00  0.00    +0.011 A 
ATOM     18  C   UNL     1       6.005  -4.939  21.134  0.00  0.00    +0.001 A 
ATOM     19  C   UNL     1       6.684  -6.006  21.712  0.00  0.00    +0.000 A 
ATOM     20  C   UNL     1       7.558  -5.775  22.771  0.00  0.00    +0.001 A 
ATOM     21  C   UNL     1       7.779  -4.472  23.235  0.00  0.00    +0.011 A 
ENDBRANCH  14  16
TORSDOF 1
ENDMDL
MODEL 5
REMARK VINA RESULT:      -7.1      2.287      4.497
REMARK  Name = 
REMARK  1 active torsions:
REMARK  status: ('A' for Active; 'I' for Inactive)
REMARK    1  A    between atoms: C_4  and  C_16
REMARK                            x       y       z     vdW  Elec       q    Type
REMARK                         _______ _______ _______ _____ _____    ______ ____
ROOT
ATOM      1  O   UNL     1       7.574  -3.345  26.735  0.00  0.00    -0.287 OA
ATOM      2  C   UNL     1       7.544  -2.993  25.563  0.00  0.00    +0.194 A 
ATOM      3  C   UNL     1       6.763  -3.659  24.493  0.00  0.00    +0.072 A 
ATOM      4  C   UNL     1       5.965  -4.824  24.726  0.00  0.00    -0.004 A 
ATOM      5  C   UNL     1       5.276  -5.390  23.622  0.00  0.00    -0.017 A 
ATOM      6  C   UNL     1       5.388  -4.805  22.351  0.00  0.00    +0.012 A 
ATOM      7  C   UNL     1       6.163  -3.665  22.146  0.00  0.00    +0.047 A 
ATOM      8  C   UNL     1       4.478  -6.536  23.793  0.00  0.00    +0.008 A 
ATOM      9  C   UNL     1       4.341  -7.142  25.038  0.00  0.00    +0.001 A 
ATOM     10  C   UNL     1       5.001  -6.613  26.134  0.00  0.00    +0.001 A 
ATOM     11  C   UNL     1       5.798  -5.477  25.978  0.00  0.00    +0.009 A 
ATOM     12  C   UNL     1       6.849  -3.089  23.213  0.00  0.00    +0.140 A 
ATOM     13  O   UNL     1       7.585  -1.964  22.915  0.00  0.00    -0.455 OA
ATOM     14  C   UNL     1       8.318  -1.363  23.927  0.00  0.00    +0.139 A 
ATOM     15  C   UNL     1       8.345  -1.825  25.181  0.00  0.00    +0.098 A 
ENDROOT
BRANCH  14  16
ATOM     16  C   UNL     1       9.135  -0.190  23.534  0.00  0.00    +0.017 A 
ATOM     17  C   UNL     1       9.124   0.299  22.213  0.00  0.00    +0.011 A 
ATOM     18  C   UNL     1       9.818   1.459  21.859  0.00  0.00    +0.001 A 
ATOM     19  C   UNL     1      10.563   2.139  22.815  0.00  0.00    +0.000 A 
ATOM     20  C   UNL     1      10.629   1.648  24.117  0.00  0.00    +0.001 A 
ATOM     21  C   UNL     1       9.924   0.491  24.473  0.00  0.00    +0.011 A 
ENDBRANCH  14  16
TORSDOF 1
ENDMDL
MODEL 6
REMARK VINA RESULT:      -7.1      2.524      4.338
REMARK  Name = 
REMARK  1 active torsions:
REMARK  status: ('A' for Active; 'I' for Inactive)
REMARK    1  A    between atoms: C_4  and  C_16
REMARK                            x       y       z     vdW  Elec       q    Type
REMARK                         _______ _______ _______ _____ _____    ______ ____
ROOT
ATOM      1  O   UNL     1       5.227  -3.507  22.125  0.00  0.00    -0.287 OA
ATOM      2  C   UNL     1       6.025  -3.175  22.991  0.00  0.00    +0.194 A 
ATOM      3  C   UNL     1       6.208  -3.865  24.291  0.00  0.00    +0.072 A 
ATOM      4  C   UNL     1       5.432  -5.004  24.680  0.00  0.00    -0.004 A 
ATOM      5  C   UNL     1       5.679  -5.571  25.957  0.00  0.00    -0.017 A 
ATOM      6  C   UNL     1       6.660  -5.016  26.794  0.00  0.00    +0.012 A 
ATOM      7  C   UNL     1       7.411  -3.913  26.393  0.00  0.00    +0.047 A 
ATOM      8  C   UNL     1       4.945  -6.690  26.392  0.00  0.00    +0.008 A 
ATOM      9  C   UNL     1       3.966  -7.269  25.590  0.00  0.00    +0.001 A 
ATOM     10  C   UNL     1       3.704  -6.737  24.339  0.00  0.00    +0.001 A 
ATOM     11  C   UNL     1       4.423  -5.625  23.896  0.00  0.00    +0.009 A 
ATOM     12  C   UNL     1       7.190  -3.337  25.144  0.00  0.00    +0.140 A 
ATOM     13  O   UNL     1       7.982  -2.254  24.833  0.00  0.00    -0.455 OA
ATOM     14  C   UNL     1       7.787  -1.616  23.618  0.00  0.00    +0.139 A 
ATOM     15  C   UNL     1       6.864  -2.001  22.731  0.00  0.00    +0.098 A 
ENDROOT
BRANCH  14  16
ATOM     16  C   UNL     1       8.630  -0.422  23.365  0.00  0.00    +0.017 A 
ATOM     17  C   UNL     1       9.426   0.140  24.382  0.00  0.00    +0.011 A 
ATOM     18  C   UNL     1      10.293   1.206  24.126  0.00  0.00    +0.001 A 
ATOM     19  C   UNL     1      10.358   1.752  22.849  0.00  0.00    +0.000 A 
ATOM     20  C   UNL     1       9.545   1.246  21.838  0.00  0.00    +0.001 A 
ATOM     21  C   UNL     1       8.685   0.170  22.095  0.00  0.00    +0.011 A 
ENDBRANCH  14  16
TORSDOF 1
ENDMDL
MODEL 7
REMARK VINA RESULT:      -7.0      1.328      1.380
REMARK  Name = 
REMARK  1 active torsions:
REMARK  status: ('A' for Active; 'I' for Inactive)
REMARK    1  A    between atoms: C_4  and  C_16
REMARK                            x       y       z     vdW  Elec       q    Type
REMARK                         _______ _______ _______ _____ _____    ______ ____
ROOT
ATOM      1  O   UNL     1      10.274  -1.357  22.218  0.00  0.00    -0.287 OA
ATOM      2  C   UNL     1       9.613  -0.516  22.812  0.00  0.00    +0.194 A 
ATOM      3  C   UNL     1       8.287  -0.755  23.432  0.00  0.00    +0.072 A 
ATOM      4  C   UNL     1       7.621  -2.020  23.372  0.00  0.00    -0.004 A 
ATOM      5  C   UNL     1       6.344  -2.128  23.983  0.00  0.00    -0.017 A 
ATOM      6  C   UNL     1       5.775  -1.015  24.620  0.00  0.00    +0.012 A 
ATOM      7  C   UNL     1       6.443   0.207  24.675  0.00  0.00    +0.047 A 
ATOM      8  C   UNL     1       5.643  -3.347  23.954  0.00  0.00    +0.008 A 
ATOM      9  C   UNL     1       6.176  -4.473  23.334  0.00  0.00    +0.001 A 
ATOM     10  C   UNL     1       7.420  -4.398  22.730  0.00  0.00    +0.001 A 
ATOM     11  C   UNL     1       8.126  -3.193  22.749  0.00  0.00    +0.009 A 
ATOM     12  C   UNL     1       7.698   0.340  24.084  0.00  0.00    +0.140 A 
ATOM     13  O   UNL     1       8.284   1.582  24.193  0.00  0.00    -0.455 OA
ATOM     14  C   UNL     1       9.518   1.788  23.597  0.00  0.00    +0.139 A 
ATOM     15  C   UNL     1      10.169   0.837  22.920  0.00  0.00    +0.098 A 
ENDROOT
BRANCH  14  16
ATOM     16  C   UNL     1      10.071   3.161  23.698  0.00  0.00    +0.017 A 
ATOM     17  C   UNL     1      11.411   3.436  23.360  0.00  0.00    +0.011 A 
ATOM     18  C   UNL     1      11.911   4.740  23.363  0.00  0.00    +0.001 A 
ATOM     19  C   UNL     1      11.086   5.796  23.734  0.00  0.00    +0.000 A 
ATOM     20  C   UNL     1       9.772   5.544  24.119  0.00  0.00    +0.001 A 
ATOM     21  C   UNL     1       9.269   4.237  24.105  0.00  0.00    +0.011 A 
ENDBRANCH  14  16
TORSDOF 1
ENDMDL
MODEL 8
REMARK VINA RESULT:      -7.0      1.925      7.278
REMARK  Name = 
REMARK  1 active torsions:
REMARK  status: ('A' for Active; 'I' for Inactive)
REMARK    1  A    between atoms: C_4  and  C_16
REMARK                            x       y       z     vdW  Elec       q    Type
REMARK                         _______ _______ _______ _____ _____    ______ ____
ROOT
ATOM      1  O   UNL     1      10.528  -0.945  22.571  0.00  0.00    -0.287 OA
ATOM      2  C   UNL     1       9.321  -0.953  22.770  0.00  0.00    +0.194 A 
ATOM      3  C   UNL     1       8.511   0.231  23.148  0.00  0.00    +0.072 A 
ATOM      4  C   UNL     1       9.082   1.528  23.346  0.00  0.00    -0.004 A 
ATOM      5  C   UNL     1       8.213   2.584  23.728  0.00  0.00    -0.017 A 
ATOM      6  C   UNL     1       6.842   2.339  23.896  0.00  0.00    +0.012 A 
ATOM      7  C   UNL     1       6.304   1.070  23.690  0.00  0.00    +0.047 A 
ATOM      8  C   UNL     1       8.720   3.880  23.938  0.00  0.00    +0.008 A 
ATOM      9  C   UNL     1      10.073   4.162  23.777  0.00  0.00    +0.001 A 
ATOM     10  C   UNL     1      10.943   3.153  23.406  0.00  0.00    +0.001 A 
ATOM     11  C   UNL     1      10.455   1.861  23.197  0.00  0.00    +0.009 A 
ATOM     12  C   UNL     1       7.134   0.015  23.315  0.00  0.00    +0.140 A 
ATOM     13  O   UNL     1       6.513  -1.200  23.129  0.00  0.00    -0.455 OA
ATOM     14  C   UNL     1       7.289  -2.296  22.787  0.00  0.00    +0.139 A 
ATOM     15  C   UNL     1       8.615  -2.231  22.629  0.00  0.00    +0.098 A 
ENDROOT
BRANCH  14  16
ATOM     16  C   UNL     1       6.573  -3.589  22.658  0.00  0.00    +0.017 A 
ATOM     17  C   UNL     1       7.214  -4.731  22.139  0.00  0.00    +0.011 A 
ATOM     18  C   UNL     1       6.575  -5.973  22.102  0.00  0.00    +0.001 A 
ATOM     19  C   UNL     1       5.267  -6.091  22.558  0.00  0.00    +0.000 A 
ATOM     20  C   UNL     1       4.595  -4.966  23.029  0.00  0.00    +0.001 A 
ATOM     21  C   UNL     1       5.241  -3.724  23.076  0.00  0.00    +0.011 A 
ENDBRANCH  14  16
TORSDOF 1
ENDMDL
MODEL 9
REMARK VINA RESULT:      -6.9      1.945      7.336
REMARK  Name = 
REMARK  1 active torsions:
REMARK  status: ('A' for Active; 'I' for Inactive)
REMARK    1  A    between atoms: C_4  and  C_16
REMARK                            x       y       z     vdW  Elec       q    Type
REMARK                         _______ _______ _______ _____ _____    ______ ____
ROOT
ATOM      1  O   UNL     1      10.493  -0.857  22.578  0.00  0.00    -0.287 OA
ATOM      2  C   UNL     1       9.294  -0.878  22.816  0.00  0.00    +0.194 A 
ATOM      3  C   UNL     1       8.485   0.297  23.223  0.00  0.00    +0.072 A 
ATOM      4  C   UNL     1       9.049   1.600  23.405  0.00  0.00    -0.004 A 
ATOM      5  C   UNL     1       8.183   2.647  23.816  0.00  0.00    -0.017 A 
ATOM      6  C   UNL     1       6.821   2.388  24.030  0.00  0.00    +0.012 A 
ATOM      7  C   UNL     1       6.289   1.113  23.839  0.00  0.00    +0.047 A 
ATOM      8  C   UNL     1       8.683   3.947  24.012  0.00  0.00    +0.008 A 
ATOM      9  C   UNL     1      10.028   4.243  23.807  0.00  0.00    +0.001 A 
ATOM     10  C   UNL     1      10.895   3.243  23.405  0.00  0.00    +0.001 A 
ATOM     11  C   UNL     1      10.413   1.947  23.210  0.00  0.00    +0.009 A 
ATOM     12  C   UNL     1       7.116   0.068  23.434  0.00  0.00    +0.140 A 
ATOM     13  O   UNL     1       6.502  -1.153  23.267  0.00  0.00    -0.455 OA
ATOM     14  C   UNL     1       7.277  -2.241  22.898  0.00  0.00    +0.139 A 
ATOM     15  C   UNL     1       8.596  -2.163  22.697  0.00  0.00    +0.098 A 
ENDROOT
BRANCH  14  16
ATOM     16  C   UNL     1       6.570  -3.541  22.790  0.00  0.00    +0.017 A 
ATOM     17  C   UNL     1       5.236  -3.685  23.218  0.00  0.00    +0.011 A 
ATOM     18  C   UNL     1       4.535  -4.879  23.033  0.00  0.00    +0.001 A 
ATOM     19  C   UNL     1       5.167  -5.967  22.440  0.00  0.00    +0.000 A 
ATOM     20  C   UNL     1       6.500  -5.865  22.054  0.00  0.00    +0.001 A 
ATOM     21  C   UNL     1       7.198  -4.663  22.230  0.00  0.00    +0.011 A 
ENDBRANCH  14  16
TORSDOF 1
ENDMDL
