MODEL 1
REMARK VINA RESULT:      -7.4      0.000      0.000
REMARK  Name = 
REMARK  11 active torsions:
REMARK  status: ('A' for Active; 'I' for Inactive)
REMARK    1  A    between atoms: C_6  and  O_7
REMARK    2  A    between atoms: C_10  and  N_11
REMARK    3  A    between atoms: N_11  and  C_12
REMARK    4  A    between atoms: N_11  and  C_13
REMARK    5  A    between atoms: C_17  and  O_18
REMARK    6  A    between atoms: C_19  and  O_20
REMARK    7  A    between atoms: C_23  and  C_24
REMARK    8  A    between atoms: C_27  and  O_28
REMARK    9  A    between atoms: C_29  and  N_31
REMARK   10  A    between atoms: N_31  and  C_32
REMARK   11  A    between atoms: N_31  and  C_33
REMARK                            x       y       z     vdW  Elec       q    Type
REMARK                         _______ _______ _______ _____ _____    ______ ____
ROOT
ATOM      1  C   UNL     1       7.361  -2.140  26.167  0.00  0.00    +0.031 C 
ATOM      2  C   UNL     1       5.998  -2.521  26.704  0.00  0.00    +0.018 C 
ATOM      3  C   UNL     1       5.964  -3.847  27.457  0.00  0.00    +0.061 C 
ATOM      4  C   UNL     1       6.617  -4.990  26.627  0.00  0.00    +0.190 C 
ATOM      5  C   UNL     1       5.542  -6.055  26.290  0.00  0.00    +0.211 C 
ATOM      6  C   UNL     1       4.584  -6.421  27.386  0.00  0.00    +0.121 C 
ATOM      7  C   UNL     1       3.838  -5.363  27.743  0.00  0.00    +0.127 C 
ATOM      8  O   UNL     1       5.376  -6.560  25.181  0.00  0.00    -0.288 OA
ATOM      9  C   UNL     1       7.525  -4.507  25.466  0.00  0.00    +0.141 C 
ATOM     10  C   UNL     1       4.438  -3.984  27.823  0.00  0.00    +0.129 C 
ATOM     11  C   UNL     1       7.861  -3.210  25.261  0.00  0.00    +0.044 C 
ATOM     12  C   UNL     1       8.830  -2.755  24.210  0.00  0.00    +0.197 C 
ATOM     13  O   UNL     1       9.479  -3.583  23.567  0.00  0.00    -0.287 OA
ATOM     14  C   UNL     1       9.006  -1.286  23.952  0.00  0.00    +0.068 A 
ATOM     15  C   UNL     1      10.011  -0.848  23.078  0.00  0.00    +0.128 A 
ATOM     16  C   UNL     1      10.151   0.504  22.793  0.00  0.00    +0.048 A 
ATOM     17  C   UNL     1       9.270   1.435  23.350  0.00  0.00    +0.027 A 
ATOM     18  C   UNL     1       8.237   1.064  24.227  0.00  0.00    +0.033 A 
ATOM     19  C   UNL     1       8.154  -0.324  24.546  0.00  0.00    -0.011 A 
ATOM     20  C   UNL     1       7.118  -0.800  25.500  0.00  0.00    +0.046 C 
ENDROOT
BRANCH   6  21
ATOM     21  C   UNL     1       4.992  -7.149  28.621  0.00  0.00    +0.248 C 
ATOM     22  O   UNL     1       6.148  -7.477  28.872  0.00  0.00    -0.270 OA
ATOM     23  N   UNL     1       4.036  -7.416  29.539  0.00  0.00    -0.325 N 
ATOM     24  H   UNL     1       4.334  -7.960  30.340  0.00  0.00    +0.145 HD
ATOM     25  H   UNL     1       3.056  -7.210  29.428  0.00  0.00    +0.145 HD
ENDBRANCH   6  21
BRANCH  10  26
ATOM     26  N   UNL     1       4.198  -3.202  29.061  0.00  0.00    -0.299 NA
ATOM     27  C   UNL     1       3.043  -2.313  28.964  0.00  0.00    +0.105 C 
ATOM     28  C   UNL     1       4.112  -4.000  30.284  0.00  0.00    +0.105 C 
ENDBRANCH  10  26
BRANCH  18  29
ATOM     29  N   UNL     1       7.363   2.047  24.693  0.00  0.00    -0.336 N 
ATOM     30  C   UNL     1       6.220   2.469  23.881  0.00  0.00    +0.129 C 
ATOM     31  C   UNL     1       7.600   2.894  25.862  0.00  0.00    +0.129 C 
ENDBRANCH  18  29
BRANCH   7  32
ATOM     32  O   UNL     1       2.470  -5.361  27.456  0.00  0.00    -0.509 OA
ATOM     33  H   UNL     1       2.139  -6.279  27.458  0.00  0.00    +0.292 HD
ENDBRANCH   7  32
BRANCH   4  34
ATOM     34  O   UNL     1       7.532  -5.718  27.485  0.00  0.00    -0.373 OA
ATOM     35  H   UNL     1       7.988  -6.347  26.888  0.00  0.00    +0.211 HD
ENDBRANCH   4  34
BRANCH   9  36
ATOM     36  O   UNL     1       8.129  -5.534  24.753  0.00  0.00    -0.507 OA
ATOM     37  H   UNL     1       7.933  -5.413  23.796  0.00  0.00    +0.292 HD
ENDBRANCH   9  36
BRANCH  15  38
ATOM     38  O   UNL     1      10.884  -1.688  22.450  0.00  0.00    -0.506 OA
ATOM     39  H   UNL     1      11.645  -1.846  23.042  0.00  0.00    +0.292 HD
ENDBRANCH  15  38
TORSDOF 7
ENDMDL
MODEL 2
REMARK VINA RESULT:      -7.4      2.642      7.522
REMARK  Name = 
REMARK  11 active torsions:
REMARK  status: ('A' for Active; 'I' for Inactive)
REMARK    1  A    between atoms: C_6  and  O_7
REMARK    2  A    between atoms: C_10  and  N_11
REMARK    3  A    between atoms: N_11  and  C_12
REMARK    4  A    between atoms: N_11  and  C_13
REMARK    5  A    between atoms: C_17  and  O_18
REMARK    6  A    between atoms: C_19  and  O_20
REMARK    7  A    between atoms: C_23  and  C_24
REMARK    8  A    between atoms: C_27  and  O_28
REMARK    9  A    between atoms: C_29  and  N_31
REMARK   10  A    between atoms: N_31  and  C_32
REMARK   11  A    between atoms: N_31  and  C_33
REMARK                            x       y       z     vdW  Elec       q    Type
REMARK                         _______ _______ _______ _____ _____    ______ ____
ROOT
ATOM      1  C   UNL     1       4.891  -3.043  24.400  0.00  0.00    +0.031 C 
ATOM      2  C   UNL     1       5.802  -1.972  24.962  0.00  0.00    +0.018 C 
ATOM      3  C   UNL     1       6.882  -1.492  23.998  0.00  0.00    +0.061 C 
ATOM      4  C   UNL     1       7.673  -2.685  23.388  0.00  0.00    +0.190 C 
ATOM      5  C   UNL     1       9.152  -2.604  23.845  0.00  0.00    +0.211 C 
ATOM      6  C   UNL     1       9.789  -1.245  23.842  0.00  0.00    +0.121 C 
ATOM      7  C   UNL     1       9.175  -0.428  24.713  0.00  0.00    +0.127 C 
ATOM      8  O   UNL     1       9.808  -3.553  24.273  0.00  0.00    -0.288 OA
ATOM      9  C   UNL     1       6.965  -4.060  23.514  0.00  0.00    +0.141 C 
ATOM     10  C   UNL     1       7.678  -0.456  24.878  0.00  0.00    +0.129 C 
ATOM     11  C   UNL     1       5.701  -4.218  23.974  0.00  0.00    +0.044 C 
ATOM     12  C   UNL     1       4.976  -5.531  23.987  0.00  0.00    +0.197 C 
ATOM     13  O   UNL     1       5.471  -6.517  23.436  0.00  0.00    -0.287 OA
ATOM     14  C   UNL     1       3.643  -5.633  24.672  0.00  0.00    +0.068 A 
ATOM     15  C   UNL     1       2.893  -6.813  24.565  0.00  0.00    +0.128 A 
ATOM     16  C   UNL     1       1.683  -6.938  25.234  0.00  0.00    +0.048 A 
ATOM     17  C   UNL     1       1.219  -5.899  26.046  0.00  0.00    +0.027 A 
ATOM     18  C   UNL     1       1.922  -4.693  26.204  0.00  0.00    +0.033 A 
ATOM     19  C   UNL     1       3.133  -4.572  25.459  0.00  0.00    -0.011 A 
ATOM     20  C   UNL     1       3.920  -3.313  25.532  0.00  0.00    +0.046 C 
ENDROOT
BRANCH   6  21
ATOM     21  C   UNL     1      10.078  -0.478  22.598  0.00  0.00    +0.248 C 
ATOM     22  O   UNL     1      10.271   0.734  22.570  0.00  0.00    -0.270 OA
ATOM     23  N   UNL     1      10.184  -1.171  21.442  0.00  0.00    -0.325 N 
ATOM     24  H   UNL     1      10.326  -0.615  20.607  0.00  0.00    +0.145 HD
ATOM     25  H   UNL     1      10.027  -2.161  21.347  0.00  0.00    +0.145 HD
ENDBRANCH   6  21
BRANCH  10  26
ATOM     26  N   UNL     1       6.956   0.839  24.815  0.00  0.00    -0.299 NA
ATOM     27  C   UNL     1       6.757   1.450  26.127  0.00  0.00    +0.105 C 
ATOM     28  C   UNL     1       7.530   1.818  23.891  0.00  0.00    +0.105 C 
ENDBRANCH  10  26
BRANCH  18  29
ATOM     29  N   UNL     1       1.421  -3.729  27.079  0.00  0.00    -0.336 N 
ATOM     30  C   UNL     1       1.671  -3.832  28.519  0.00  0.00    +0.129 C 
ATOM     31  C   UNL     1       0.443  -2.701  26.724  0.00  0.00    +0.129 C 
ENDBRANCH  18  29
BRANCH   7  32
ATOM     32  O   UNL     1       9.856  -0.013  25.860  0.00  0.00    -0.509 OA
ATOM     33  H   UNL     1       9.975  -0.774  26.457  0.00  0.00    +0.292 HD
ENDBRANCH   7  32
BRANCH   4  34
ATOM     34  O   UNL     1       7.769  -2.490  21.954  0.00  0.00    -0.373 OA
ATOM     35  H   UNL     1       8.000  -3.372  21.595  0.00  0.00    +0.211 HD
ENDBRANCH   4  34
BRANCH   9  36
ATOM     36  O   UNL     1       7.664  -5.111  22.936  0.00  0.00    -0.507 OA
ATOM     37  H   UNL     1       8.261  -4.751  22.242  0.00  0.00    +0.292 HD
ENDBRANCH   9  36
BRANCH  15  38
ATOM     38  O   UNL     1       3.291  -7.896  23.835  0.00  0.00    -0.506 OA
ATOM     39  H   UNL     1       2.660  -8.625  23.992  0.00  0.00    +0.292 HD
ENDBRANCH  15  38
TORSDOF 7
ENDMDL
MODEL 3
REMARK VINA RESULT:      -7.3      1.983      7.587
REMARK  Name = 
REMARK  11 active torsions:
REMARK  status: ('A' for Active; 'I' for Inactive)
REMARK    1  A    between atoms: C_6  and  O_7
REMARK    2  A    between atoms: C_10  and  N_11
REMARK    3  A    between atoms: N_11  and  C_12
REMARK    4  A    between atoms: N_11  and  C_13
REMARK    5  A    between atoms: C_17  and  O_18
REMARK    6  A    between atoms: C_19  and  O_20
REMARK    7  A    between atoms: C_23  and  C_24
REMARK    8  A    between atoms: C_27  and  O_28
REMARK    9  A    between atoms: C_29  and  N_31
REMARK   10  A    between atoms: N_31  and  C_32
REMARK   11  A    between atoms: N_31  and  C_33
REMARK                            x       y       z     vdW  Elec       q    Type
REMARK                         _______ _______ _______ _____ _____    ______ ____
ROOT
ATOM      1  C   UNL     1       6.017  -2.710  25.164  0.00  0.00    +0.031 C 
ATOM      2  C   UNL     1       7.027  -1.657  25.569  0.00  0.00    +0.018 C 
ATOM      3  C   UNL     1       7.565  -0.822  24.413  0.00  0.00    +0.061 C 
ATOM      4  C   UNL     1       8.077  -1.721  23.250  0.00  0.00    +0.190 C 
ATOM      5  C   UNL     1       9.603  -1.513  23.077  0.00  0.00    +0.211 C 
ATOM      6  C   UNL     1      10.110  -0.103  23.171  0.00  0.00    +0.121 C 
ATOM      7  C   UNL     1       9.888   0.404  24.394  0.00  0.00    +0.127 C 
ATOM      8  O   UNL     1      10.425  -2.419  22.944  0.00  0.00    -0.288 OA
ATOM      9  C   UNL     1       7.559  -3.183  23.289  0.00  0.00    +0.141 C 
ATOM     10  C   UNL     1       8.609   0.112  25.133  0.00  0.00    +0.129 C 
ATOM     11  C   UNL     1       6.622  -3.628  24.161  0.00  0.00    +0.044 C 
ATOM     12  C   UNL     1       6.038  -5.009  24.123  0.00  0.00    +0.197 C 
ATOM     13  O   UNL     1       6.297  -5.766  23.186  0.00  0.00    -0.287 OA
ATOM     14  C   UNL     1       5.133  -5.459  25.235  0.00  0.00    +0.068 A 
ATOM     15  C   UNL     1       4.468  -6.689  25.136  0.00  0.00    +0.128 A 
ATOM     16  C   UNL     1       3.668  -7.139  26.179  0.00  0.00    +0.048 A 
ATOM     17  C   UNL     1       3.545  -6.382  27.347  0.00  0.00    +0.027 A 
ATOM     18  C   UNL     1       4.189  -5.144  27.515  0.00  0.00    +0.033 A 
ATOM     19  C   UNL     1       4.957  -4.682  26.406  0.00  0.00    -0.011 A 
ATOM     20  C   UNL     1       5.637  -3.363  26.480  0.00  0.00    +0.046 C 
ENDROOT
BRANCH   6  21
ATOM     21  C   UNL     1       9.802   0.947  22.160  0.00  0.00    +0.248 C 
ATOM     22  O   UNL     1       9.194   0.734  21.115  0.00  0.00    -0.270 OA
ATOM     23  N   UNL     1      10.171   2.217  22.439  0.00  0.00    -0.325 N 
ATOM     24  H   UNL     1       9.996   2.897  21.708  0.00  0.00    +0.145 HD
ATOM     25  H   UNL     1      10.689   2.501  23.255  0.00  0.00    +0.145 HD
ENDBRANCH   6  21
BRANCH  10  26
ATOM     26  N   UNL     1       7.868   1.263  25.704  0.00  0.00    -0.299 NA
ATOM     27  C   UNL     1       6.908   1.848  24.771  0.00  0.00    +0.105 C 
ATOM     28  C   UNL     1       7.217   0.999  26.988  0.00  0.00    +0.105 C 
ENDBRANCH  10  26
BRANCH  18  29
ATOM     29  N   UNL     1       4.064  -4.479  28.735  0.00  0.00    -0.336 N 
ATOM     30  C   UNL     1       4.892  -4.865  29.880  0.00  0.00    +0.129 C 
ATOM     31  C   UNL     1       2.992  -3.543  29.074  0.00  0.00    +0.129 C 
ENDBRANCH  18  29
BRANCH   7  32
ATOM     32  O   UNL     1      10.973   0.664  25.235  0.00  0.00    -0.509 OA
ATOM     33  H   UNL     1      10.896   1.568  25.592  0.00  0.00    +0.292 HD
ENDBRANCH   7  32
BRANCH   4  34
ATOM     34  O   UNL     1       7.541  -1.211  22.002  0.00  0.00    -0.373 OA
ATOM     35  H   UNL     1       8.016  -0.366  21.852  0.00  0.00    +0.211 HD
ENDBRANCH   4  34
BRANCH   9  36
ATOM     36  O   UNL     1       7.994  -3.966  22.229  0.00  0.00    -0.507 OA
ATOM     37  H   UNL     1       7.592  -4.861  22.311  0.00  0.00    +0.292 HD
ENDBRANCH   9  36
BRANCH  15  38
ATOM     38  O   UNL     1       4.568  -7.517  24.056  0.00  0.00    -0.506 OA
ATOM     39  H   UNL     1       4.062  -7.127  23.317  0.00  0.00    +0.292 HD
ENDBRANCH  15  38
TORSDOF 7
ENDMDL
MODEL 4
REMARK VINA RESULT:      -7.3      2.928      5.192
REMARK  Name = 
REMARK  11 active torsions:
REMARK  status: ('A' for Active; 'I' for Inactive)
REMARK    1  A    between atoms: C_6  and  O_7
REMARK    2  A    between atoms: C_10  and  N_11
REMARK    3  A    between atoms: N_11  and  C_12
REMARK    4  A    between atoms: N_11  and  C_13
REMARK    5  A    between atoms: C_17  and  O_18
REMARK    6  A    between atoms: C_19  and  O_20
REMARK    7  A    between atoms: C_23  and  C_24
REMARK    8  A    between atoms: C_27  and  O_28
REMARK    9  A    between atoms: C_29  and  N_31
REMARK   10  A    between atoms: N_31  and  C_32
REMARK   11  A    between atoms: N_31  and  C_33
REMARK                            x       y       z     vdW  Elec       q    Type
REMARK                         _______ _______ _______ _____ _____    ______ ____
ROOT
ATOM      1  C   UNL     1       6.801   0.830  24.406  0.00  0.00    +0.031 C 
ATOM      2  C   UNL     1       6.384  -0.609  24.187  0.00  0.00    +0.018 C 
ATOM      3  C   UNL     1       7.261  -1.636  24.894  0.00  0.00    +0.061 C 
ATOM      4  C   UNL     1       8.769  -1.403  24.591  0.00  0.00    +0.190 C 
ATOM      5  C   UNL     1       9.330  -2.622  23.815  0.00  0.00    +0.211 C 
ATOM      6  C   UNL     1       8.893  -3.980  24.281  0.00  0.00    +0.121 C 
ATOM      7  C   UNL     1       7.568  -4.133  24.136  0.00  0.00    +0.127 C 
ATOM      8  O   UNL     1      10.038  -2.551  22.812  0.00  0.00    -0.288 OA
ATOM      9  C   UNL     1       9.105   0.007  24.036  0.00  0.00    +0.141 C 
ATOM     10  C   UNL     1       6.621  -2.999  24.429  0.00  0.00    +0.129 C 
ATOM     11  C   UNL     1       8.207   1.019  23.955  0.00  0.00    +0.044 C 
ATOM     12  C   UNL     1       8.559   2.413  23.528  0.00  0.00    +0.197 C 
ATOM     13  O   UNL     1       9.738   2.731  23.363  0.00  0.00    -0.287 OA
ATOM     14  C   UNL     1       7.463   3.418  23.308  0.00  0.00    +0.068 A 
ATOM     15  C   UNL     1       7.788   4.757  23.052  0.00  0.00    +0.128 A 
ATOM     16  C   UNL     1       6.786   5.685  22.797  0.00  0.00    +0.048 A 
ATOM     17  C   UNL     1       5.448   5.282  22.763  0.00  0.00    +0.027 A 
ATOM     18  C   UNL     1       5.053   3.955  23.003  0.00  0.00    +0.033 A 
ATOM     19  C   UNL     1       6.099   3.038  23.318  0.00  0.00    -0.011 A 
ATOM     20  C   UNL     1       5.768   1.622  23.629  0.00  0.00    +0.046 C 
ENDROOT
BRANCH   6  21
ATOM     21  C   UNL     1       9.296  -4.565  25.591  0.00  0.00    +0.248 C 
ATOM     22  O   UNL     1       8.961  -4.104  26.678  0.00  0.00    -0.270 OA
ATOM     23  N   UNL     1      10.031  -5.699  25.575  0.00  0.00    -0.325 N 
ATOM     24  H   UNL     1      10.334  -6.040  26.479  0.00  0.00    +0.145 HD
ATOM     25  H   UNL     1      10.376  -6.151  24.743  0.00  0.00    +0.145 HD
ENDBRANCH   6  21
BRANCH  10  26
ATOM     26  N   UNL     1       5.465  -3.281  25.316  0.00  0.00    -0.299 NA
ATOM     27  C   UNL     1       4.224  -3.519  24.584  0.00  0.00    +0.105 C 
ATOM     28  C   UNL     1       5.685  -4.353  26.287  0.00  0.00    +0.105 C 
ENDBRANCH  10  26
BRANCH  18  29
ATOM     29  N   UNL     1       3.703   3.622  22.891  0.00  0.00    -0.336 N 
ATOM     30  C   UNL     1       3.077   3.494  21.573  0.00  0.00    +0.129 C 
ATOM     31  C   UNL     1       2.749   3.603  24.000  0.00  0.00    +0.129 C 
ENDBRANCH  18  29
BRANCH   7  32
ATOM     32  O   UNL     1       7.081  -5.035  23.186  0.00  0.00    -0.509 OA
ATOM     33  H   UNL     1       6.428  -5.625  23.606  0.00  0.00    +0.292 HD
ENDBRANCH   7  32
BRANCH   4  34
ATOM     34  O   UNL     1       9.504  -1.453  25.840  0.00  0.00    -0.373 OA
ATOM     35  H   UNL     1      10.410  -1.728  25.588  0.00  0.00    +0.211 HD
ENDBRANCH   4  34
BRANCH   9  36
ATOM     36  O   UNL     1      10.457   0.216  23.802  0.00  0.00    -0.507 OA
ATOM     37  H   UNL     1      10.837  -0.596  23.395  0.00  0.00    +0.292 HD
ENDBRANCH   9  36
BRANCH  15  38
ATOM     38  O   UNL     1       9.068   5.230  23.017  0.00  0.00    -0.506 OA
ATOM     39  H   UNL     1       9.039   6.195  22.869  0.00  0.00    +0.292 HD
ENDBRANCH  15  38
TORSDOF 7
ENDMDL
MODEL 5
REMARK VINA RESULT:      -7.1      3.249      5.445
REMARK  Name = 
REMARK  11 active torsions:
REMARK  status: ('A' for Active; 'I' for Inactive)
REMARK    1  A    between atoms: C_6  and  O_7
REMARK    2  A    between atoms: C_10  and  N_11
REMARK    3  A    between atoms: N_11  and  C_12
REMARK    4  A    between atoms: N_11  and  C_13
REMARK    5  A    between atoms: C_17  and  O_18
REMARK    6  A    between atoms: C_19  and  O_20
REMARK    7  A    between atoms: C_23  and  C_24
REMARK    8  A    between atoms: C_27  and  O_28
REMARK    9  A    between atoms: C_29  and  N_31
REMARK   10  A    between atoms: N_31  and  C_32
REMARK   11  A    between atoms: N_31  and  C_33
REMARK                            x       y       z     vdW  Elec       q    Type
REMARK                         _______ _______ _______ _____ _____    ______ ____
ROOT
ATOM      1  C   UNL     1       7.595   1.748  24.569  0.00  0.00    +0.031 C 
ATOM      2  C   UNL     1       6.642   0.618  24.242  0.00  0.00    +0.018 C 
ATOM      3  C   UNL     1       7.212  -0.777  24.477  0.00  0.00    +0.061 C 
ATOM      4  C   UNL     1       8.597  -0.950  23.789  0.00  0.00    +0.190 C 
ATOM      5  C   UNL     1       8.489  -2.036  22.689  0.00  0.00    +0.211 C 
ATOM      6  C   UNL     1       7.697  -3.266  23.027  0.00  0.00    +0.121 C 
ATOM      7  C   UNL     1       6.410  -2.958  23.253  0.00  0.00    +0.127 C 
ATOM      8  O   UNL     1       8.940  -1.929  21.550  0.00  0.00    -0.288 OA
ATOM      9  C   UNL     1       9.298   0.380  23.407  0.00  0.00    +0.141 C 
ATOM     10  C   UNL     1       6.032  -1.704  23.997  0.00  0.00    +0.129 C 
ATOM     11  C   UNL     1       8.839   1.604  23.764  0.00  0.00    +0.044 C 
ATOM     12  C   UNL     1       9.577   2.883  23.495  0.00  0.00    +0.197 C 
ATOM     13  O   UNL     1      10.725   2.852  23.048  0.00  0.00    -0.287 OA
ATOM     14  C   UNL     1       8.906   4.197  23.778  0.00  0.00    +0.068 A 
ATOM     15  C   UNL     1       9.636   5.389  23.668  0.00  0.00    +0.128 A 
ATOM     16  C   UNL     1       9.015   6.613  23.878  0.00  0.00    +0.048 A 
ATOM     17  C   UNL     1       7.649   6.667  24.169  0.00  0.00    +0.027 A 
ATOM     18  C   UNL     1       6.857   5.512  24.287  0.00  0.00    +0.033 A 
ATOM     19  C   UNL     1       7.534   4.268  24.123  0.00  0.00    -0.011 A 
ATOM     20  C   UNL     1       6.783   2.994  24.273  0.00  0.00    +0.046 C 
ENDROOT
BRANCH   6  21
ATOM     21  C   UNL     1       8.129  -4.266  24.043  0.00  0.00    +0.248 C 
ATOM     22  O   UNL     1       9.298  -4.446  24.372  0.00  0.00    -0.270 OA
ATOM     23  N   UNL     1       7.169  -4.979  24.674  0.00  0.00    -0.325 N 
ATOM     24  H   UNL     1       7.499  -5.687  25.318  0.00  0.00    +0.145 HD
ATOM     25  H   UNL     1       6.184  -4.925  24.470  0.00  0.00    +0.145 HD
ENDBRANCH   6  21
BRANCH  10  26
ATOM     26  N   UNL     1       5.075  -1.836  25.123  0.00  0.00    -0.299 NA
ATOM     27  C   UNL     1       4.177  -2.979  24.982  0.00  0.00    +0.105 C 
ATOM     28  C   UNL     1       5.687  -1.843  26.452  0.00  0.00    +0.105 C 
ENDBRANCH  10  26
BRANCH  18  29
ATOM     29  N   UNL     1       5.489   5.654  24.521  0.00  0.00    -0.336 N 
ATOM     30  C   UNL     1       4.565   5.881  23.408  0.00  0.00    +0.129 C 
ATOM     31  C   UNL     1       4.877   5.827  25.839  0.00  0.00    +0.129 C 
ENDBRANCH  18  29
BRANCH   7  32
ATOM     32  O   UNL     1       5.434  -3.386  22.349  0.00  0.00    -0.509 OA
ATOM     33  H   UNL     1       4.557  -3.091  22.658  0.00  0.00    +0.292 HD
ENDBRANCH   7  32
BRANCH   4  34
ATOM     34  O   UNL     1       9.513  -1.548  24.742  0.00  0.00    -0.373 OA
ATOM     35  H   UNL     1       9.334  -1.084  25.587  0.00  0.00    +0.211 HD
ENDBRANCH   4  34
BRANCH   9  36
ATOM     36  O   UNL     1      10.548   0.215  22.826  0.00  0.00    -0.507 OA
ATOM     37  H   UNL     1      10.950  -0.614  23.171  0.00  0.00    +0.292 HD
ENDBRANCH   9  36
BRANCH  15  38
ATOM     38  O   UNL     1      10.960   5.436  23.339  0.00  0.00    -0.506 OA
ATOM     39  H   UNL     1      11.311   6.313  23.585  0.00  0.00    +0.292 HD
ENDBRANCH  15  38
TORSDOF 7
ENDMDL
MODEL 6
REMARK VINA RESULT:      -7.0      2.134      2.717
REMARK  Name = 
REMARK  11 active torsions:
REMARK  status: ('A' for Active; 'I' for Inactive)
REMARK    1  A    between atoms: C_6  and  O_7
REMARK    2  A    between atoms: C_10  and  N_11
REMARK    3  A    between atoms: N_11  and  C_12
REMARK    4  A    between atoms: N_11  and  C_13
REMARK    5  A    between atoms: C_17  and  O_18
REMARK    6  A    between atoms: C_19  and  O_20
REMARK    7  A    between atoms: C_23  and  C_24
REMARK    8  A    between atoms: C_27  and  O_28
REMARK    9  A    between atoms: C_29  and  N_31
REMARK   10  A    between atoms: N_31  and  C_32
REMARK   11  A    between atoms: N_31  and  C_33
REMARK                            x       y       z     vdW  Elec       q    Type
REMARK                         _______ _______ _______ _____ _____    ______ ____
ROOT
ATOM      1  C   UNL     1       6.733  -1.021  24.911  0.00  0.00    +0.031 C 
ATOM      2  C   UNL     1       5.481  -1.773  24.509  0.00  0.00    +0.018 C 
ATOM      3  C   UNL     1       5.367  -3.172  25.102  0.00  0.00    +0.061 C 
ATOM      4  C   UNL     1       6.662  -4.001  24.860  0.00  0.00    +0.190 C 
ATOM      5  C   UNL     1       6.331  -5.213  23.952  0.00  0.00    +0.211 C 
ATOM      6  C   UNL     1       5.052  -5.946  24.239  0.00  0.00    +0.121 C 
ATOM      7  C   UNL     1       3.990  -5.147  24.051  0.00  0.00    +0.127 C 
ATOM      8  O   UNL     1       6.997  -5.565  22.980  0.00  0.00    -0.288 OA
ATOM      9  C   UNL     1       7.909  -3.156  24.490  0.00  0.00    +0.141 C 
ATOM     10  C   UNL     1       4.027  -3.698  24.461  0.00  0.00    +0.129 C 
ATOM     11  C   UNL     1       7.936  -1.802  24.514  0.00  0.00    +0.044 C 
ATOM     12  C   UNL     1       9.173  -0.988  24.269  0.00  0.00    +0.197 C 
ATOM     13  O   UNL     1      10.269  -1.543  24.168  0.00  0.00    -0.287 OA
ATOM     14  C   UNL     1       9.064   0.506  24.151  0.00  0.00    +0.068 A 
ATOM     15  C   UNL     1      10.227   1.284  24.068  0.00  0.00    +0.128 A 
ATOM     16  C   UNL     1      10.139   2.661  23.909  0.00  0.00    +0.048 A 
ATOM     17  C   UNL     1       8.889   3.277  23.798  0.00  0.00    +0.027 A 
ATOM     18  C   UNL     1       7.684   2.556  23.866  0.00  0.00    +0.033 A 
ATOM     19  C   UNL     1       7.806   1.152  24.087  0.00  0.00    -0.011 A 
ATOM     20  C   UNL     1       6.582   0.318  24.216  0.00  0.00    +0.046 C 
ENDROOT
BRANCH   6  21
ATOM     21  C   UNL     1       4.827  -6.746  25.476  0.00  0.00    +0.248 C 
ATOM     22  O   UNL     1       5.602  -6.767  26.428  0.00  0.00    -0.270 OA
ATOM     23  N   UNL     1       3.677  -7.450  25.570  0.00  0.00    -0.325 N 
ATOM     24  H   UNL     1       3.580  -8.026  26.397  0.00  0.00    +0.145 HD
ATOM     25  H   UNL     1       2.982  -7.519  24.843  0.00  0.00    +0.145 HD
ENDBRANCH   6  21
BRANCH  10  26
ATOM     26  N   UNL     1       2.903  -3.189  25.283  0.00  0.00    -0.299 NA
ATOM     27  C   UNL     1       1.609  -3.745  24.896  0.00  0.00    +0.105 C 
ATOM     28  C   UNL     1       3.089  -3.321  26.729  0.00  0.00    +0.105 C 
ENDBRANCH  10  26
BRANCH  18  29
ATOM     29  N   UNL     1       6.480   3.237  23.687  0.00  0.00    -0.336 N 
ATOM     30  C   UNL     1       6.040   3.628  22.346  0.00  0.00    +0.129 C 
ATOM     31  C   UNL     1       5.680   3.823  24.763  0.00  0.00    +0.129 C 
ENDBRANCH  18  29
BRANCH   7  32
ATOM     32  O   UNL     1       3.120  -5.404  22.988  0.00  0.00    -0.509 OA
ATOM     33  H   UNL     1       2.286  -4.918  23.129  0.00  0.00    +0.292 HD
ENDBRANCH   7  32
BRANCH   4  34
ATOM     34  O   UNL     1       7.046  -4.632  26.109  0.00  0.00    -0.373 OA
ATOM     35  H   UNL     1       6.382  -5.340  26.247  0.00  0.00    +0.211 HD
ENDBRANCH   4  34
BRANCH   9  36
ATOM     36  O   UNL     1       9.066  -3.902  24.310  0.00  0.00    -0.507 OA
ATOM     37  H   UNL     1       9.841  -3.296  24.341  0.00  0.00    +0.292 HD
ENDBRANCH   9  36
BRANCH  15  38
ATOM     38  O   UNL     1      11.488   0.764  24.117  0.00  0.00    -0.506 OA
ATOM     39  H   UNL     1      12.116   1.489  24.299  0.00  0.00    +0.292 HD
ENDBRANCH  15  38
TORSDOF 7
ENDMDL
MODEL 7
REMARK VINA RESULT:      -6.9      2.163      3.423
REMARK  Name = 
REMARK  11 active torsions:
REMARK  status: ('A' for Active; 'I' for Inactive)
REMARK    1  A    between atoms: C_6  and  O_7
REMARK    2  A    between atoms: C_10  and  N_11
REMARK    3  A    between atoms: N_11  and  C_12
REMARK    4  A    between atoms: N_11  and  C_13
REMARK    5  A    between atoms: C_17  and  O_18
REMARK    6  A    between atoms: C_19  and  O_20
REMARK    7  A    between atoms: C_23  and  C_24
REMARK    8  A    between atoms: C_27  and  O_28
REMARK    9  A    between atoms: C_29  and  N_31
REMARK   10  A    between atoms: N_31  and  C_32
REMARK   11  A    between atoms: N_31  and  C_33
REMARK                            x       y       z     vdW  Elec       q    Type
REMARK                         _______ _______ _______ _____ _____    ______ ____
ROOT
ATOM      1  C   UNL     1       7.247   0.338  25.272  0.00  0.00    +0.031 C 
ATOM      2  C   UNL     1       6.123  -0.664  25.116  0.00  0.00    +0.018 C 
ATOM      3  C   UNL     1       6.434  -2.053  25.662  0.00  0.00    +0.061 C 
ATOM      4  C   UNL     1       7.789  -2.590  25.116  0.00  0.00    +0.190 C 
ATOM      5  C   UNL     1       7.528  -3.849  24.252  0.00  0.00    +0.211 C 
ATOM      6  C   UNL     1       6.524  -4.835  24.775  0.00  0.00    +0.121 C 
ATOM      7  C   UNL     1       5.304  -4.280  24.850  0.00  0.00    +0.127 C 
ATOM      8  O   UNL     1       8.026  -4.058  23.146  0.00  0.00    -0.288 OA
ATOM      9  C   UNL     1       8.722  -1.502  24.523  0.00  0.00    +0.141 C 
ATOM     10  C   UNL     1       5.127  -2.855  25.302  0.00  0.00    +0.129 C 
ATOM     11  C   UNL     1       8.471  -0.172  24.596  0.00  0.00    +0.044 C 
ATOM     12  C   UNL     1       9.428   0.884  24.125  0.00  0.00    +0.197 C 
ATOM     13  O   UNL     1      10.567   0.574  23.770  0.00  0.00    -0.287 OA
ATOM     14  C   UNL     1       8.987   2.320  24.094  0.00  0.00    +0.068 A 
ATOM     15  C   UNL     1       9.916   3.327  23.796  0.00  0.00    +0.128 A 
ATOM     16  C   UNL     1       9.511   4.653  23.715  0.00  0.00    +0.048 A 
ATOM     17  C   UNL     1       8.166   4.989  23.899  0.00  0.00    +0.027 A 
ATOM     18  C   UNL     1       7.182   4.030  24.194  0.00  0.00    +0.033 A 
ATOM     19  C   UNL     1       7.639   2.685  24.326  0.00  0.00    -0.011 A 
ATOM     20  C   UNL     1       6.673   1.611  24.680  0.00  0.00    +0.046 C 
ENDROOT
BRANCH   6  21
ATOM     21  C   UNL     1       6.745  -5.658  25.998  0.00  0.00    +0.248 C 
ATOM     22  O   UNL     1       7.813  -5.716  26.600  0.00  0.00    -0.270 OA
ATOM     23  N   UNL     1       5.690  -6.338  26.498  0.00  0.00    -0.325 N 
ATOM     24  H   UNL     1       5.886  -6.930  27.296  0.00  0.00    +0.145 HD
ATOM     25  H   UNL     1       4.776  -6.377  26.076  0.00  0.00    +0.145 HD
ENDBRANCH   6  21
BRANCH  10  26
ATOM     26  N   UNL     1       4.127  -2.590  26.365  0.00  0.00    -0.299 NA
ATOM     27  C   UNL     1       2.779  -3.023  26.006  0.00  0.00    +0.105 C 
ATOM     28  C   UNL     1       4.483  -3.111  27.686  0.00  0.00    +0.105 C 
ENDBRANCH  10  26
BRANCH  18  29
ATOM     29  N   UNL     1       5.853   4.439  24.303  0.00  0.00    -0.336 N 
ATOM     30  C   UNL     1       5.011   4.554  23.111  0.00  0.00    +0.129 C 
ATOM     31  C   UNL     1       5.246   5.002  25.509  0.00  0.00    +0.129 C 
ENDBRANCH  18  29
BRANCH   7  32
ATOM     32  O   UNL     1       4.297  -4.722  23.988  0.00  0.00    -0.509 OA
ATOM     33  H   UNL     1       3.431  -4.424  24.324  0.00  0.00    +0.292 HD
ENDBRANCH   7  32
BRANCH   4  34
ATOM     34  O   UNL     1       8.558  -3.117  26.228  0.00  0.00    -0.373 OA
ATOM     35  H   UNL     1       8.501  -4.091  26.132  0.00  0.00    +0.211 HD
ENDBRANCH   4  34
BRANCH   9  36
ATOM     36  O   UNL     1       9.941  -1.986  24.070  0.00  0.00    -0.507 OA
ATOM     37  H   UNL     1      10.258  -2.679  24.694  0.00  0.00    +0.292 HD
ENDBRANCH   9  36
BRANCH  15  38
ATOM     38  O   UNL     1      11.237   3.087  23.553  0.00  0.00    -0.506 OA
ATOM     39  H   UNL     1      11.310   2.510  22.769  0.00  0.00    +0.292 HD
ENDBRANCH  15  38
TORSDOF 7
ENDMDL
MODEL 8
REMARK VINA RESULT:      -6.7      2.166      3.154
REMARK  Name = 
REMARK  11 active torsions:
REMARK  status: ('A' for Active; 'I' for Inactive)
REMARK    1  A    between atoms: C_6  and  O_7
REMARK    2  A    between atoms: C_10  and  N_11
REMARK    3  A    between atoms: N_11  and  C_12
REMARK    4  A    between atoms: N_11  and  C_13
REMARK    5  A    between atoms: C_17  and  O_18
REMARK    6  A    between atoms: C_19  and  O_20
REMARK    7  A    between atoms: C_23  and  C_24
REMARK    8  A    between atoms: C_27  and  O_28
REMARK    9  A    between atoms: C_29  and  N_31
REMARK   10  A    between atoms: N_31  and  C_32
REMARK   11  A    between atoms: N_31  and  C_33
REMARK                            x       y       z     vdW  Elec       q    Type
REMARK                         _______ _______ _______ _____ _____    ______ ____
ROOT
ATOM      1  C   UNL     1       6.422  -0.037  25.083  0.00  0.00    +0.031 C 
ATOM      2  C   UNL     1       5.458  -1.116  25.528  0.00  0.00    +0.018 C 
ATOM      3  C   UNL     1       6.124  -2.345  26.139  0.00  0.00    +0.061 C 
ATOM      4  C   UNL     1       7.252  -2.897  25.220  0.00  0.00    +0.190 C 
ATOM      5  C   UNL     1       6.867  -4.319  24.737  0.00  0.00    +0.211 C 
ATOM      6  C   UNL     1       6.255  -5.238  25.753  0.00  0.00    +0.121 C 
ATOM      7  C   UNL     1       5.080  -4.755  26.189  0.00  0.00    +0.127 C 
ATOM      8  O   UNL     1       6.960  -4.715  23.576  0.00  0.00    -0.288 OA
ATOM      9  C   UNL     1       7.760  -1.897  24.150  0.00  0.00    +0.141 C 
ATOM     10  C   UNL     1       4.891  -3.281  26.432  0.00  0.00    +0.129 C 
ATOM     11  C   UNL     1       7.380  -0.597  24.091  0.00  0.00    +0.044 C 
ATOM     12  C   UNL     1       7.959   0.399  23.129  0.00  0.00    +0.197 C 
ATOM     13  O   UNL     1       8.926   0.093  22.429  0.00  0.00    -0.287 OA
ATOM     14  C   UNL     1       7.352   1.769  23.030  0.00  0.00    +0.068 A 
ATOM     15  C   UNL     1       7.972   2.750  22.244  0.00  0.00    +0.128 A 
ATOM     16  C   UNL     1       7.394   4.005  22.104  0.00  0.00    +0.048 A 
ATOM     17  C   UNL     1       6.173   4.289  22.721  0.00  0.00    +0.027 A 
ATOM     18  C   UNL     1       5.494   3.351  23.517  0.00  0.00    +0.033 A 
ATOM     19  C   UNL     1       6.139   2.091  23.688  0.00  0.00    -0.011 A 
ATOM     20  C   UNL     1       5.513   1.053  24.549  0.00  0.00    +0.046 C 
ENDROOT
BRANCH   6  21
ATOM     21  C   UNL     1       7.004  -5.783  26.921  0.00  0.00    +0.248 C 
ATOM     22  O   UNL     1       6.466  -6.278  27.908  0.00  0.00    -0.270 OA
ATOM     23  N   UNL     1       8.354  -5.774  26.863  0.00  0.00    -0.325 N 
ATOM     24  H   UNL     1       8.832  -6.100  27.694  0.00  0.00    +0.145 HD
ATOM     25  H   UNL     1       8.896  -5.376  26.113  0.00  0.00    +0.145 HD
ENDBRANCH   6  21
BRANCH  10  26
ATOM     26  N   UNL     1       4.311  -2.869  27.734  0.00  0.00    -0.299 NA
ATOM     27  C   UNL     1       2.870  -2.633  27.672  0.00  0.00    +0.105 C 
ATOM     28  C   UNL     1       4.622  -3.758  28.854  0.00  0.00    +0.105 C 
ENDBRANCH  10  26
BRANCH  18  29
ATOM     29  N   UNL     1       4.250   3.692  24.049  0.00  0.00    -0.336 N 
ATOM     30  C   UNL     1       3.034   3.553  23.243  0.00  0.00    +0.129 C 
ATOM     31  C   UNL     1       4.044   4.414  25.305  0.00  0.00    +0.129 C 
ENDBRANCH  18  29
BRANCH   7  32
ATOM     32  O   UNL     1       3.899  -5.422  25.853  0.00  0.00    -0.509 OA
ATOM     33  H   UNL     1       3.832  -6.242  26.376  0.00  0.00    +0.292 HD
ENDBRANCH   7  32
BRANCH   4  34
ATOM     34  O   UNL     1       8.429  -3.142  26.032  0.00  0.00    -0.373 OA
ATOM     35  H   UNL     1       8.387  -2.470  26.744  0.00  0.00    +0.211 HD
ENDBRANCH   4  34
BRANCH   9  36
ATOM     36  O   UNL     1       8.790  -2.387  23.359  0.00  0.00    -0.507 OA
ATOM     37  H   UNL     1       8.477  -3.201  22.901  0.00  0.00    +0.292 HD
ENDBRANCH   9  36
BRANCH  15  38
ATOM     38  O   UNL     1       9.139   2.547  21.566  0.00  0.00    -0.506 OA
ATOM     39  H   UNL     1       9.775   3.240  21.827  0.00  0.00    +0.292 HD
ENDBRANCH  15  38
TORSDOF 7
ENDMDL
MODEL 9
REMARK VINA RESULT:      -6.7      2.808      3.865
REMARK  Name = 
REMARK  11 active torsions:
REMARK  status: ('A' for Active; 'I' for Inactive)
REMARK    1  A    between atoms: C_6  and  O_7
REMARK    2  A    between atoms: C_10  and  N_11
REMARK    3  A    between atoms: N_11  and  C_12
REMARK    4  A    between atoms: N_11  and  C_13
REMARK    5  A    between atoms: C_17  and  O_18
REMARK    6  A    between atoms: C_19  and  O_20
REMARK    7  A    between atoms: C_23  and  C_24
REMARK    8  A    between atoms: C_27  and  O_28
REMARK    9  A    between atoms: C_29  and  N_31
REMARK   10  A    between atoms: N_31  and  C_32
REMARK   11  A    between atoms: N_31  and  C_33
REMARK                            x       y       z     vdW  Elec       q    Type
REMARK                         _______ _______ _______ _____ _____    ______ ____
ROOT
ATOM      1  C   UNL     1       7.205  -0.736  24.600  0.00  0.00    +0.031 C 
ATOM      2  C   UNL     1       5.917  -1.526  24.706  0.00  0.00    +0.018 C 
ATOM      3  C   UNL     1       6.058  -3.010  24.387  0.00  0.00    +0.061 C 
ATOM      4  C   UNL     1       6.783  -3.235  23.029  0.00  0.00    +0.190 C 
ATOM      5  C   UNL     1       5.808  -3.920  22.037  0.00  0.00    +0.211 C 
ATOM      6  C   UNL     1       4.950  -5.023  22.584  0.00  0.00    +0.121 C 
ATOM      7  C   UNL     1       4.117  -4.558  23.529  0.00  0.00    +0.127 C 
ATOM      8  O   UNL     1       5.640  -3.578  20.868  0.00  0.00    -0.288 OA
ATOM      9  C   UNL     1       7.577  -2.008  22.510  0.00  0.00    +0.141 C 
ATOM     10  C   UNL     1       4.575  -3.523  24.523  0.00  0.00    +0.129 C 
ATOM     11  C   UNL     1       7.766  -0.874  23.228  0.00  0.00    +0.044 C 
ATOM     12  C   UNL     1       8.630   0.266  22.774  0.00  0.00    +0.197 C 
ATOM     13  O   UNL     1       9.327   0.150  21.764  0.00  0.00    -0.287 OA
ATOM     14  C   UNL     1       8.640   1.545  23.561  0.00  0.00    +0.068 A 
ATOM     15  C   UNL     1       9.549   2.559  23.230  0.00  0.00    +0.128 A 
ATOM     16  C   UNL     1       9.535   3.766  23.918  0.00  0.00    +0.048 A 
ATOM     17  C   UNL     1       8.591   3.989  24.925  0.00  0.00    +0.027 A 
ATOM     18  C   UNL     1       7.647   3.019  25.303  0.00  0.00    +0.033 A 
ATOM     19  C   UNL     1       7.724   1.770  24.618  0.00  0.00    -0.011 A 
ATOM     20  C   UNL     1       6.792   0.671  24.983  0.00  0.00    +0.046 C 
ENDROOT
BRANCH   6  21
ATOM     21  C   UNL     1       5.492  -6.336  23.037  0.00  0.00    +0.248 C 
ATOM     22  O   UNL     1       4.991  -7.011  23.932  0.00  0.00    -0.270 OA
ATOM     23  N   UNL     1       6.568  -6.831  22.386  0.00  0.00    -0.325 N 
ATOM     24  H   UNL     1       6.945  -7.696  22.753  0.00  0.00    +0.145 HD
ATOM     25  H   UNL     1       7.068  -6.354  21.652  0.00  0.00    +0.145 HD
ENDBRANCH   6  21
BRANCH  10  26
ATOM     26  N   UNL     1       4.318  -3.790  25.960  0.00  0.00    -0.299 NA
ATOM     27  C   UNL     1       3.065  -3.210  26.437  0.00  0.00    +0.105 C 
ATOM     28  C   UNL     1       4.395  -5.199  26.345  0.00  0.00    +0.105 C 
ENDBRANCH  10  26
BRANCH  18  29
ATOM     29  N   UNL     1       6.701   3.342  26.276  0.00  0.00    -0.336 N 
ATOM     30  C   UNL     1       5.490   4.082  25.917  0.00  0.00    +0.129 C 
ATOM     31  C   UNL     1       6.902   3.206  27.719  0.00  0.00    +0.129 C 
ENDBRANCH  18  29
BRANCH   7  32
ATOM     32  O   UNL     1       2.744  -4.518  23.273  0.00  0.00    -0.509 OA
ATOM     33  H   UNL     1       2.283  -5.112  23.893  0.00  0.00    +0.292 HD
ENDBRANCH   7  32
BRANCH   4  34
ATOM     34  O   UNL     1       7.810  -4.242  23.216  0.00  0.00    -0.373 OA
ATOM     35  H   UNL     1       7.321  -5.086  23.308  0.00  0.00    +0.211 HD
ENDBRANCH   4  34
BRANCH   9  36
ATOM     36  O   UNL     1       8.247  -2.230  21.315  0.00  0.00    -0.507 OA
ATOM     37  H   UNL     1       7.907  -1.600  20.639  0.00  0.00    +0.292 HD
ENDBRANCH   9  36
BRANCH  15  38
ATOM     38  O   UNL     1      10.472   2.449  22.231  0.00  0.00    -0.506 OA
ATOM     39  H   UNL     1      11.157   3.132  22.363  0.00  0.00    +0.292 HD
ENDBRANCH  15  38
TORSDOF 7
ENDMDL
