MODEL 1
REMARK VINA RESULT:      -4.4      0.000      0.000
REMARK  Name = 
REMARK  5 active torsions:
REMARK  status: ('A' for Active; 'I' for Inactive)
REMARK    1  A    between atoms: O_1  and  N_2
REMARK    2  A    between atoms: C_3  and  C_5
REMARK    3  A    between atoms: C_5  and  C_6
REMARK    4  A    between atoms: C_6  and  C_7
REMARK    5  A    between atoms: C_7  and  P_8
REMARK                            x       y       z     vdW  Elec       q    Type
REMARK                         _______ _______ _______ _____ _____    ______ ____
ROOT
ATOM      1  C   UNL     1      10.432   1.775  23.976  0.00  0.00    +0.098 C 
ENDROOT
BRANCH   1   4
ATOM      2  N   UNL     1       9.699   1.448  21.715  0.00  0.00    -0.197 N 
ATOM      3  H   UNL     1      10.602   0.977  21.599  0.00  0.00    +0.182 HD
ATOM      4  C   UNL     1       9.288   1.789  22.984  0.00  0.00    +0.235 C 
ATOM      5  O   UNL     1       8.133   2.072  23.298  0.00  0.00    -0.274 OA
BRANCH   2   6
ATOM      6  O   UNL     1       8.709   1.340  20.715  0.00  0.00    -0.295 OA
ATOM      7  H   UNL     1       9.028   0.575  20.209  0.00  0.00    +0.241 HD
ENDBRANCH   2   6
ENDBRANCH   1   4
BRANCH   1   8
ATOM      8  C   UNL     1      10.952   0.352  24.180  0.00  0.00    +0.017 C 
BRANCH   8   9
ATOM      9  C   UNL     1       9.861  -0.628  24.587  0.00  0.00    +0.070 C 
BRANCH   9  10
ATOM     10  P   UNL     1       9.618  -2.015  23.340  0.00  0.00    +0.109 P 
ATOM     11  O   UNL     1      10.549  -1.597  22.204  0.00  0.00    -0.461 OA
ATOM     12  O   UNL     1       8.134  -1.900  23.027  0.00  0.00    -0.358 OA
ATOM     13  O   UNL     1      10.034  -3.242  24.133  0.00  0.00    -0.358 OA
ENDBRANCH   9  10
ENDBRANCH   8   9
ENDBRANCH   1   8
TORSDOF 5
ENDMDL
MODEL 2
REMARK VINA RESULT:      -4.3      1.318      1.516
REMARK  Name = 
REMARK  5 active torsions:
REMARK  status: ('A' for Active; 'I' for Inactive)
REMARK    1  A    between atoms: O_1  and  N_2
REMARK    2  A    between atoms: C_3  and  C_5
REMARK    3  A    between atoms: C_5  and  C_6
REMARK    4  A    between atoms: C_6  and  C_7
REMARK    5  A    between atoms: C_7  and  P_8
REMARK                            x       y       z     vdW  Elec       q    Type
REMARK                         _______ _______ _______ _____ _____    ______ ____
ROOT
ATOM      1  C   UNL     1      10.585   0.517  24.677  0.00  0.00    +0.098 C 
ENDROOT
BRANCH   1   4
ATOM      2  N   UNL     1      10.262   1.268  22.421  0.00  0.00    -0.197 N 
ATOM      3  H   UNL     1      10.265   0.268  22.197  0.00  0.00    +0.182 HD
ATOM      4  C   UNL     1      10.213   1.650  23.743  0.00  0.00    +0.235 C 
ATOM      5  O   UNL     1       9.905   2.772  24.141  0.00  0.00    -0.274 OA
BRANCH   2   6
ATOM      6  O   UNL     1       9.853   2.210  21.454  0.00  0.00    -0.295 OA
ATOM      7  H   UNL     1       9.815   3.025  21.981  0.00  0.00    +0.241 HD
ENDBRANCH   2   6
ENDBRANCH   1   4
BRANCH   1   8
ATOM      8  C   UNL     1       9.351  -0.312  25.036  0.00  0.00    +0.017 C 
BRANCH   8   9
ATOM      9  C   UNL     1       9.418  -1.737  24.507  0.00  0.00    +0.070 C 
BRANCH   9  10
ATOM     10  P   UNL     1       8.744  -1.904  22.759  0.00  0.00    +0.109 P 
ATOM     11  O   UNL     1      10.011  -1.788  21.912  0.00  0.00    -0.461 OA
ATOM     12  O   UNL     1       7.803  -0.712  22.669  0.00  0.00    -0.358 OA
ATOM     13  O   UNL     1       8.082  -3.270  22.794  0.00  0.00    -0.358 OA
ENDBRANCH   9  10
ENDBRANCH   8   9
ENDBRANCH   1   8
TORSDOF 5
ENDMDL
MODEL 3
REMARK VINA RESULT:      -4.3      2.186      2.546
REMARK  Name = 
REMARK  5 active torsions:
REMARK  status: ('A' for Active; 'I' for Inactive)
REMARK    1  A    between atoms: O_1  and  N_2
REMARK    2  A    between atoms: C_3  and  C_5
REMARK    3  A    between atoms: C_5  and  C_6
REMARK    4  A    between atoms: C_6  and  C_7
REMARK    5  A    between atoms: C_7  and  P_8
REMARK                            x       y       z     vdW  Elec       q    Type
REMARK                         _______ _______ _______ _____ _____    ______ ____
ROOT
ATOM      1  C   UNL     1       9.411   0.049  21.359  0.00  0.00    +0.098 C 
ENDROOT
BRANCH   1   4
ATOM      2  N   UNL     1      10.199   2.269  21.812  0.00  0.00    -0.197 N 
ATOM      3  H   UNL     1       9.675   2.517  20.967  0.00  0.00    +0.182 HD
ATOM      4  C   UNL     1      10.036   1.011  22.348  0.00  0.00    +0.235 C 
ATOM      5  O   UNL     1      10.351   0.685  23.491  0.00  0.00    -0.274 OA
BRANCH   2   6
ATOM      6  O   UNL     1      10.692   3.282  22.663  0.00  0.00    -0.295 OA
ATOM      7  H   UNL     1      11.610   2.991  22.798  0.00  0.00    +0.241 HD
ENDBRANCH   2   6
ENDBRANCH   1   4
BRANCH   1   8
ATOM      8  C   UNL     1       9.708  -1.398  21.754  0.00  0.00    +0.017 C 
BRANCH   8   9
ATOM      9  C   UNL     1       8.482  -2.138  22.269  0.00  0.00    +0.070 C 
BRANCH   9  10
ATOM     10  P   UNL     1       8.702  -2.795  24.018  0.00  0.00    +0.109 P 
ATOM     11  O   UNL     1      10.173  -3.209  24.026  0.00  0.00    -0.461 OA
ATOM     12  O   UNL     1       7.713  -3.950  24.046  0.00  0.00    -0.358 OA
ATOM     13  O   UNL     1       8.338  -1.590  24.867  0.00  0.00    -0.358 OA
ENDBRANCH   9  10
ENDBRANCH   8   9
ENDBRANCH   1   8
TORSDOF 5
ENDMDL
MODEL 4
REMARK VINA RESULT:      -4.2      6.222      7.027
REMARK  Name = 
REMARK  5 active torsions:
REMARK  status: ('A' for Active; 'I' for Inactive)
REMARK    1  A    between atoms: O_1  and  N_2
REMARK    2  A    between atoms: C_3  and  C_5
REMARK    3  A    between atoms: C_5  and  C_6
REMARK    4  A    between atoms: C_6  and  C_7
REMARK    5  A    between atoms: C_7  and  P_8
REMARK                            x       y       z     vdW  Elec       q    Type
REMARK                         _______ _______ _______ _____ _____    ______ ____
ROOT
ATOM      1  C   UNL     1       8.195  -4.710  24.498  0.00  0.00    +0.098 C 
ENDROOT
BRANCH   1   4
ATOM      2  N   UNL     1       8.245  -5.631  26.712  0.00  0.00    -0.197 N 
ATOM      3  H   UNL     1       9.152  -5.159  26.778  0.00  0.00    +0.182 HD
ATOM      4  C   UNL     1       7.434  -5.361  25.632  0.00  0.00    +0.235 C 
ATOM      5  O   UNL     1       6.230  -5.609  25.576  0.00  0.00    -0.274 OA
BRANCH   2   6
ATOM      6  O   UNL     1       7.636  -6.161  27.870  0.00  0.00    -0.295 OA
ATOM      7  H   UNL     1       7.294  -7.007  27.539  0.00  0.00    +0.241 HD
ENDBRANCH   2   6
ENDBRANCH   1   4
BRANCH   1   8
ATOM      8  C   UNL     1       7.270  -3.819  23.668  0.00  0.00    +0.017 C 
BRANCH   8   9
ATOM      9  C   UNL     1       7.315  -4.136  22.181  0.00  0.00    +0.070 C 
BRANCH   9  10
ATOM     10  P   UNL     1       6.073  -5.455  21.673  0.00  0.00    +0.109 P 
ATOM     11  O   UNL     1       6.779  -6.743  22.092  0.00  0.00    -0.461 OA
ATOM     12  O   UNL     1       5.980  -5.237  20.170  0.00  0.00    -0.358 OA
ATOM     13  O   UNL     1       4.843  -5.070  22.476  0.00  0.00    -0.358 OA
ENDBRANCH   9  10
ENDBRANCH   8   9
ENDBRANCH   1   8
TORSDOF 5
ENDMDL
MODEL 5
REMARK VINA RESULT:      -4.2      5.209      7.041
REMARK  Name = 
REMARK  5 active torsions:
REMARK  status: ('A' for Active; 'I' for Inactive)
REMARK    1  A    between atoms: O_1  and  N_2
REMARK    2  A    between atoms: C_3  and  C_5
REMARK    3  A    between atoms: C_5  and  C_6
REMARK    4  A    between atoms: C_6  and  C_7
REMARK    5  A    between atoms: C_7  and  P_8
REMARK                            x       y       z     vdW  Elec       q    Type
REMARK                         _______ _______ _______ _____ _____    ______ ____
ROOT
ATOM      1  C   UNL     1       5.799  -4.926  25.121  0.00  0.00    +0.098 C 
ENDROOT
BRANCH   1   4
ATOM      2  N   UNL     1       7.181  -5.576  26.971  0.00  0.00    -0.197 N 
ATOM      3  H   UNL     1       7.575  -4.635  26.875  0.00  0.00    +0.182 HD
ATOM      4  C   UNL     1       6.049  -5.897  26.256  0.00  0.00    +0.235 C 
ATOM      5  O   UNL     1       5.312  -6.852  26.494  0.00  0.00    -0.274 OA
BRANCH   2   6
ATOM      6  O   UNL     1       7.476  -6.356  28.110  0.00  0.00    -0.295 OA
ATOM      7  H   UNL     1       6.680  -6.908  28.178  0.00  0.00    +0.241 HD
ENDBRANCH   2   6
ENDBRANCH   1   4
BRANCH   1   8
ATOM      8  C   UNL     1       6.803  -5.148  23.990  0.00  0.00    +0.017 C 
BRANCH   8   9
ATOM      9  C   UNL     1       7.618  -3.906  23.664  0.00  0.00    +0.070 C 
BRANCH   9  10
ATOM     10  P   UNL     1       9.196  -3.775  24.679  0.00  0.00    +0.109 P 
ATOM     11  O   UNL     1       9.579  -5.241  24.873  0.00  0.00    -0.461 OA
ATOM     12  O   UNL     1       8.705  -3.070  25.934  0.00  0.00    -0.358 OA
ATOM     13  O   UNL     1      10.101  -2.959  23.772  0.00  0.00    -0.358 OA
ENDBRANCH   9  10
ENDBRANCH   8   9
ENDBRANCH   1   8
TORSDOF 5
ENDMDL
MODEL 6
REMARK VINA RESULT:      -4.2      5.634      6.843
REMARK  Name = 
REMARK  5 active torsions:
REMARK  status: ('A' for Active; 'I' for Inactive)
REMARK    1  A    between atoms: O_1  and  N_2
REMARK    2  A    between atoms: C_3  and  C_5
REMARK    3  A    between atoms: C_5  and  C_6
REMARK    4  A    between atoms: C_6  and  C_7
REMARK    5  A    between atoms: C_7  and  P_8
REMARK                            x       y       z     vdW  Elec       q    Type
REMARK                         _______ _______ _______ _____ _____    ______ ____
ROOT
ATOM      1  C   UNL     1       6.563  -4.551  25.309  0.00  0.00    +0.098 C 
ENDROOT
BRANCH   1   4
ATOM      2  N   UNL     1       8.816  -5.245  24.863  0.00  0.00    -0.197 N 
ATOM      3  H   UNL     1       8.767  -4.563  24.100  0.00  0.00    +0.182 HD
ATOM      4  C   UNL     1       7.803  -5.271  25.796  0.00  0.00    +0.235 C 
ATOM      5  O   UNL     1       7.876  -5.806  26.901  0.00  0.00    -0.274 OA
BRANCH   2   6
ATOM      6  O   UNL     1      10.057  -5.808  25.232  0.00  0.00    -0.295 OA
ATOM      7  H   UNL     1      10.649  -5.041  25.151  0.00  0.00    +0.241 HD
ENDBRANCH   2   6
ENDBRANCH   1   4
BRANCH   1   8
ATOM      8  C   UNL     1       5.672  -5.498  24.504  0.00  0.00    +0.017 C 
BRANCH   8   9
ATOM      9  C   UNL     1       5.284  -4.937  23.144  0.00  0.00    +0.070 C 
BRANCH   9  10
ATOM     10  P   UNL     1       6.671  -5.048  21.879  0.00  0.00    +0.109 P 
ATOM     11  O   UNL     1       7.355  -6.359  22.264  0.00  0.00    -0.461 OA
ATOM     12  O   UNL     1       7.476  -3.794  22.184  0.00  0.00    -0.358 OA
ATOM     13  O   UNL     1       5.913  -5.047  20.563  0.00  0.00    -0.358 OA
ENDBRANCH   9  10
ENDBRANCH   8   9
ENDBRANCH   1   8
TORSDOF 5
ENDMDL
MODEL 7
REMARK VINA RESULT:      -4.1      1.963      2.466
REMARK  Name = 
REMARK  5 active torsions:
REMARK  status: ('A' for Active; 'I' for Inactive)
REMARK    1  A    between atoms: O_1  and  N_2
REMARK    2  A    between atoms: C_3  and  C_5
REMARK    3  A    between atoms: C_5  and  C_6
REMARK    4  A    between atoms: C_6  and  C_7
REMARK    5  A    between atoms: C_7  and  P_8
REMARK                            x       y       z     vdW  Elec       q    Type
REMARK                         _______ _______ _______ _____ _____    ______ ____
ROOT
ATOM      1  C   UNL     1       8.423   1.060  21.450  0.00  0.00    +0.098 C 
ENDROOT
BRANCH   1   4
ATOM      2  N   UNL     1      10.320   2.314  22.215  0.00  0.00    -0.197 N 
ATOM      3  H   UNL     1      10.844   1.726  21.559  0.00  0.00    +0.182 HD
ATOM      4  C   UNL     1       8.943   2.278  22.182  0.00  0.00    +0.235 C 
ATOM      5  O   UNL     1       8.205   3.126  22.681  0.00  0.00    -0.274 OA
BRANCH   2   6
ATOM      6  O   UNL     1      10.930   3.446  22.796  0.00  0.00    -0.295 OA
ATOM      7  H   UNL     1      11.010   3.169  23.723  0.00  0.00    +0.241 HD
ENDBRANCH   2   6
ENDBRANCH   1   4
BRANCH   1   8
ATOM      8  C   UNL     1       9.495  -0.029  21.384  0.00  0.00    +0.017 C 
BRANCH   8   9
ATOM      9  C   UNL     1       9.046  -1.344  22.002  0.00  0.00    +0.070 C 
BRANCH   9  10
ATOM     10  P   UNL     1       9.585  -1.537  23.793  0.00  0.00    +0.109 P 
ATOM     11  O   UNL     1       8.259  -1.435  24.544  0.00  0.00    -0.461 OA
ATOM     12  O   UNL     1      10.514  -0.345  23.972  0.00  0.00    -0.358 OA
ATOM     13  O   UNL     1      10.251  -2.902  23.788  0.00  0.00    -0.358 OA
ENDBRANCH   9  10
ENDBRANCH   8   9
ENDBRANCH   1   8
TORSDOF 5
ENDMDL
MODEL 8
REMARK VINA RESULT:      -4.1      3.885      5.778
REMARK  Name = 
REMARK  5 active torsions:
REMARK  status: ('A' for Active; 'I' for Inactive)
REMARK    1  A    between atoms: O_1  and  N_2
REMARK    2  A    between atoms: C_3  and  C_5
REMARK    3  A    between atoms: C_5  and  C_6
REMARK    4  A    between atoms: C_6  and  C_7
REMARK    5  A    between atoms: C_7  and  P_8
REMARK                            x       y       z     vdW  Elec       q    Type
REMARK                         _______ _______ _______ _____ _____    ______ ____
ROOT
ATOM      1  C   UNL     1       6.957  -4.268  24.526  0.00  0.00    +0.098 C 
ENDROOT
BRANCH   1   4
ATOM      2  N   UNL     1       9.067  -5.358  24.863  0.00  0.00    -0.197 N 
ATOM      3  H   UNL     1       9.412  -4.677  24.180  0.00  0.00    +0.182 HD
ATOM      4  C   UNL     1       7.796  -5.201  25.372  0.00  0.00    +0.235 C 
ATOM      5  O   UNL     1       7.374  -5.742  26.392  0.00  0.00    -0.274 OA
BRANCH   2   6
ATOM      6  O   UNL     1       9.976  -6.137  25.610  0.00  0.00    -0.295 OA
ATOM      7  H   UNL     1       9.761  -5.869  26.518  0.00  0.00    +0.241 HD
ENDBRANCH   2   6
ENDBRANCH   1   4
BRANCH   1   8
ATOM      8  C   UNL     1       7.672  -3.936  23.216  0.00  0.00    +0.017 C 
BRANCH   8   9
ATOM      9  C   UNL     1       7.811  -2.440  22.975  0.00  0.00    +0.070 C 
BRANCH   9  10
ATOM     10  P   UNL     1       9.550  -1.801  23.301  0.00  0.00    +0.109 P 
ATOM     11  O   UNL     1       9.299  -0.679  24.307  0.00  0.00    -0.461 OA
ATOM     12  O   UNL     1       9.978  -1.336  21.918  0.00  0.00    -0.358 OA
ATOM     13  O   UNL     1      10.256  -3.036  23.835  0.00  0.00    -0.358 OA
ENDBRANCH   9  10
ENDBRANCH   8   9
ENDBRANCH   1   8
TORSDOF 5
ENDMDL
MODEL 9
REMARK VINA RESULT:      -4.1      2.253      2.863
REMARK  Name = 
REMARK  5 active torsions:
REMARK  status: ('A' for Active; 'I' for Inactive)
REMARK    1  A    between atoms: O_1  and  N_2
REMARK    2  A    between atoms: C_3  and  C_5
REMARK    3  A    between atoms: C_5  and  C_6
REMARK    4  A    between atoms: C_6  and  C_7
REMARK    5  A    between atoms: C_7  and  P_8
REMARK                            x       y       z     vdW  Elec       q    Type
REMARK                         _______ _______ _______ _____ _____    ______ ____
ROOT
ATOM      1  C   UNL     1      10.105  -1.322  22.241  0.00  0.00    +0.098 C 
ENDROOT
BRANCH   1   4
ATOM      2  N   UNL     1       9.486   0.822  21.359  0.00  0.00    -0.197 N 
ATOM      3  H   UNL     1       8.929   0.274  20.697  0.00  0.00    +0.182 HD
ATOM      4  C   UNL     1      10.057   0.179  22.435  0.00  0.00    +0.235 C 
ATOM      5  O   UNL     1      10.482   0.737  23.446  0.00  0.00    -0.274 OA
BRANCH   2   6
ATOM      6  O   UNL     1       9.305   2.218  21.455  0.00  0.00    -0.295 OA
ATOM      7  H   UNL     1      10.148   2.548  21.102  0.00  0.00    +0.241 HD
ENDBRANCH   2   6
ENDBRANCH   1   4
BRANCH   1   8
ATOM      8  C   UNL     1       9.986  -2.044  23.584  0.00  0.00    +0.017 C 
BRANCH   8   9
ATOM      9  C   UNL     1       8.681  -2.810  23.734  0.00  0.00    +0.070 C 
BRANCH   9  10
ATOM     10  P   UNL     1       8.797  -4.224  24.970  0.00  0.00    +0.109 P 
ATOM     11  O   UNL     1       7.662  -5.142  24.519  0.00  0.00    -0.461 OA
ATOM     12  O   UNL     1       8.553  -3.508  26.290  0.00  0.00    -0.358 OA
ATOM     13  O   UNL     1      10.208  -4.738  24.745  0.00  0.00    -0.358 OA
ENDBRANCH   9  10
ENDBRANCH   8   9
ENDBRANCH   1   8
TORSDOF 5
ENDMDL
