MODEL 1
REMARK VINA RESULT:      -4.6      0.000      0.000
REMARK  Name = 
REMARK  9 active torsions:
REMARK  status: ('A' for Active; 'I' for Inactive)
REMARK    1  A    between atoms: C_2  and  O_3
REMARK    2  A    between atoms: C_2  and  C_4
REMARK    3  A    between atoms: C_2  and  C_10
REMARK    4  A    between atoms: C_4  and  C_5
REMARK    5  A    between atoms: C_5  and  C_6
REMARK    6  A    between atoms: C_6  and  C_7
REMARK    7  A    between atoms: C_7  and  C_8
REMARK    8  A    between atoms: C_8  and  C_9
REMARK    9  A    between atoms: C_10  and  O_11
REMARK                            x       y       z     vdW  Elec       q    Type
REMARK                         _______ _______ _______ _____ _____    ______ ____
ROOT
ATOM      1  C   UNL     1      11.840   4.977  23.499  0.00  0.00    +0.222 C 
ENDROOT
BRANCH   1   2
ATOM      2  O   UNL     1      10.863   5.927  23.039  0.00  0.00    -0.381 OA
ATOM      3  H   UNL     1      10.787   6.617  23.726  0.00  0.00    +0.211 HD
ENDBRANCH   1   2
BRANCH   1   4
ATOM      4  C   UNL     1      13.080   5.217  22.631  0.00  0.00    +0.334 C 
ATOM      5  O   UNL     1      13.083   5.530  21.453  0.00  0.00    -0.248 OA
BRANCH   4   6
ATOM      6  O   UNL     1      14.217   5.018  23.351  0.00  0.00    -0.479 OA
ATOM      7  H   UNL     1      14.574   4.127  23.115  0.00  0.00    +0.295 HD
ENDBRANCH   4   6
ENDBRANCH   1   4
BRANCH   1   8
ATOM      8  C   UNL     1      11.340   3.532  23.407  0.00  0.00    +0.043 C 
BRANCH   8   9
ATOM      9  C   UNL     1       9.853   3.346  23.754  0.00  0.00    +0.003 C 
BRANCH   9  10
ATOM     10  C   UNL     1       9.097   2.478  22.751  0.00  0.00    +0.000 C 
BRANCH  10  11
ATOM     11  C   UNL     1      10.010   1.600  21.901  0.00  0.00    -0.000 C 
BRANCH  11  12
ATOM     12  C   UNL     1       9.237   0.367  21.425  0.00  0.00    -0.003 C 
ATOM     13  C   UNL     1       9.848  -0.922  21.945  0.00  0.00    +0.004 C 
ENDBRANCH  11  12
ENDBRANCH  10  11
ENDBRANCH   9  10
ENDBRANCH   8   9
ENDBRANCH   1   8
TORSDOF 8
ENDMDL
MODEL 2
REMARK VINA RESULT:      -4.3      7.124      8.913
REMARK  Name = 
REMARK  9 active torsions:
REMARK  status: ('A' for Active; 'I' for Inactive)
REMARK    1  A    between atoms: C_2  and  O_3
REMARK    2  A    between atoms: C_2  and  C_4
REMARK    3  A    between atoms: C_2  and  C_10
REMARK    4  A    between atoms: C_4  and  C_5
REMARK    5  A    between atoms: C_5  and  C_6
REMARK    6  A    between atoms: C_6  and  C_7
REMARK    7  A    between atoms: C_7  and  C_8
REMARK    8  A    between atoms: C_8  and  C_9
REMARK    9  A    between atoms: C_10  and  O_11
REMARK                            x       y       z     vdW  Elec       q    Type
REMARK                         _______ _______ _______ _____ _____    ______ ____
ROOT
ATOM      1  C   UNL     1       9.193  -4.649  25.968  0.00  0.00    +0.222 C 
ENDROOT
BRANCH   1   2
ATOM      2  O   UNL     1       9.879  -5.474  25.010  0.00  0.00    -0.381 OA
ATOM      3  H   UNL     1      10.812  -5.183  24.996  0.00  0.00    +0.211 HD
ENDBRANCH   1   2
BRANCH   1   4
ATOM      4  C   UNL     1       7.892  -5.393  26.287  0.00  0.00    +0.334 C 
ATOM      5  O   UNL     1       6.942  -5.532  25.537  0.00  0.00    -0.248 OA
BRANCH   4   6
ATOM      6  O   UNL     1       7.918  -5.885  27.555  0.00  0.00    -0.479 OA
ATOM      7  H   UNL     1       7.061  -6.350  27.719  0.00  0.00    +0.295 HD
ENDBRANCH   4   6
ENDBRANCH   1   4
BRANCH   1   8
ATOM      8  C   UNL     1       8.936  -3.234  25.443  0.00  0.00    +0.043 C 
BRANCH   8   9
ATOM      9  C   UNL     1       9.391  -2.996  23.993  0.00  0.00    +0.003 C 
BRANCH   9  10
ATOM     10  C   UNL     1       9.790  -1.550  23.708  0.00  0.00    +0.000 C 
BRANCH  10  11
ATOM     11  C   UNL     1      10.335  -1.338  22.299  0.00  0.00    -0.000 C 
BRANCH  11  12
ATOM     12  C   UNL     1       9.486  -0.291  21.572  0.00  0.00    -0.003 C 
ATOM     13  C   UNL     1       9.883   1.124  21.950  0.00  0.00    +0.004 C 
ENDBRANCH  11  12
ENDBRANCH  10  11
ENDBRANCH   9  10
ENDBRANCH   8   9
ENDBRANCH   1   8
TORSDOF 8
ENDMDL
MODEL 3
REMARK VINA RESULT:      -4.2      4.806      5.816
REMARK  Name = 
REMARK  9 active torsions:
REMARK  status: ('A' for Active; 'I' for Inactive)
REMARK    1  A    between atoms: C_2  and  O_3
REMARK    2  A    between atoms: C_2  and  C_4
REMARK    3  A    between atoms: C_2  and  C_10
REMARK    4  A    between atoms: C_4  and  C_5
REMARK    5  A    between atoms: C_5  and  C_6
REMARK    6  A    between atoms: C_6  and  C_7
REMARK    7  A    between atoms: C_7  and  C_8
REMARK    8  A    between atoms: C_8  and  C_9
REMARK    9  A    between atoms: C_10  and  O_11
REMARK                            x       y       z     vdW  Elec       q    Type
REMARK                         _______ _______ _______ _____ _____    ______ ____
ROOT
ATOM      1  C   UNL     1       9.100  -1.152  24.208  0.00  0.00    +0.222 C 
ENDROOT
BRANCH   1   2
ATOM      2  O   UNL     1       8.212  -2.010  24.945  0.00  0.00    -0.381 OA
ATOM      3  H   UNL     1       7.300  -1.750  24.709  0.00  0.00    +0.211 HD
ENDBRANCH   1   2
BRANCH   1   4
ATOM      4  C   UNL     1      10.016  -2.095  23.421  0.00  0.00    +0.334 C 
ATOM      5  O   UNL     1      10.574  -1.840  22.368  0.00  0.00    -0.248 OA
BRANCH   4   6
ATOM      6  O   UNL     1      10.125  -3.295  24.050  0.00  0.00    -0.479 OA
ATOM      7  H   UNL     1      10.620  -3.908  23.453  0.00  0.00    +0.295 HD
ENDBRANCH   4   6
ENDBRANCH   1   4
BRANCH   1   8
ATOM      8  C   UNL     1       9.888  -0.206  25.119  0.00  0.00    +0.043 C 
BRANCH   8   9
ATOM      9  C   UNL     1      10.750   0.830  24.375  0.00  0.00    +0.003 C 
BRANCH   9  10
ATOM     10  C   UNL     1       9.932   1.852  23.590  0.00  0.00    +0.000 C 
BRANCH  10  11
ATOM     11  C   UNL     1      10.105   1.735  22.079  0.00  0.00    -0.000 C 
BRANCH  11  12
ATOM     12  C   UNL     1       8.790   1.271  21.447  0.00  0.00    -0.003 C 
ATOM     13  C   UNL     1       7.584   1.707  22.259  0.00  0.00    +0.004 C 
ENDBRANCH  11  12
ENDBRANCH  10  11
ENDBRANCH   9  10
ENDBRANCH   8   9
ENDBRANCH   1   8
TORSDOF 8
ENDMDL
MODEL 4
REMARK VINA RESULT:      -4.1      8.980      9.840
REMARK  Name = 
REMARK  9 active torsions:
REMARK  status: ('A' for Active; 'I' for Inactive)
REMARK    1  A    between atoms: C_2  and  O_3
REMARK    2  A    between atoms: C_2  and  C_4
REMARK    3  A    between atoms: C_2  and  C_10
REMARK    4  A    between atoms: C_4  and  C_5
REMARK    5  A    between atoms: C_5  and  C_6
REMARK    6  A    between atoms: C_6  and  C_7
REMARK    7  A    between atoms: C_7  and  C_8
REMARK    8  A    between atoms: C_8  and  C_9
REMARK    9  A    between atoms: C_10  and  O_11
REMARK                            x       y       z     vdW  Elec       q    Type
REMARK                         _______ _______ _______ _____ _____    ______ ____
ROOT
ATOM      1  C   UNL     1       7.886  -5.329  25.743  0.00  0.00    +0.222 C 
ENDROOT
BRANCH   1   2
ATOM      2  O   UNL     1       8.159  -5.848  27.057  0.00  0.00    -0.381 OA
ATOM      3  H   UNL     1       8.770  -6.602  26.948  0.00  0.00    +0.211 HD
ENDBRANCH   1   2
BRANCH   1   4
ATOM      4  C   UNL     1       9.254  -4.947  25.166  0.00  0.00    +0.334 C 
ATOM      5  O   UNL     1       9.460  -4.115  24.301  0.00  0.00    -0.248 OA
BRANCH   4   6
ATOM      6  O   UNL     1      10.241  -5.682  25.744  0.00  0.00    -0.479 OA
ATOM      7  H   UNL     1      10.425  -5.297  26.636  0.00  0.00    +0.295 HD
ENDBRANCH   4   6
ENDBRANCH   1   4
BRANCH   1   8
ATOM      8  C   UNL     1       6.918  -4.143  25.772  0.00  0.00    +0.043 C 
BRANCH   8   9
ATOM      9  C   UNL     1       5.668  -4.316  24.891  0.00  0.00    +0.003 C 
BRANCH   9  10
ATOM     10  C   UNL     1       5.487  -5.735  24.360  0.00  0.00    +0.000 C 
BRANCH  10  11
ATOM     11  C   UNL     1       4.912  -5.786  22.948  0.00  0.00    -0.000 C 
BRANCH  11  12
ATOM     12  C   UNL     1       5.937  -5.228  21.957  0.00  0.00    -0.003 C 
ATOM     13  C   UNL     1       7.235  -6.014  21.980  0.00  0.00    +0.004 C 
ENDBRANCH  11  12
ENDBRANCH  10  11
ENDBRANCH   9  10
ENDBRANCH   8   9
ENDBRANCH   1   8
TORSDOF 8
ENDMDL
MODEL 5
REMARK VINA RESULT:      -4.1      4.872      6.237
REMARK  Name = 
REMARK  9 active torsions:
REMARK  status: ('A' for Active; 'I' for Inactive)
REMARK    1  A    between atoms: C_2  and  O_3
REMARK    2  A    between atoms: C_2  and  C_4
REMARK    3  A    between atoms: C_2  and  C_10
REMARK    4  A    between atoms: C_4  and  C_5
REMARK    5  A    between atoms: C_5  and  C_6
REMARK    6  A    between atoms: C_6  and  C_7
REMARK    7  A    between atoms: C_7  and  C_8
REMARK    8  A    between atoms: C_8  and  C_9
REMARK    9  A    between atoms: C_10  and  O_11
REMARK                            x       y       z     vdW  Elec       q    Type
REMARK                         _______ _______ _______ _____ _____    ______ ____
ROOT
ATOM      1  C   UNL     1       8.597  -1.792  22.366  0.00  0.00    +0.222 C 
ENDROOT
BRANCH   1   2
ATOM      2  O   UNL     1       7.410  -1.086  22.764  0.00  0.00    -0.381 OA
ATOM      3  H   UNL     1       6.652  -1.536  22.342  0.00  0.00    +0.211 HD
ENDBRANCH   1   2
BRANCH   1   4
ATOM      4  C   UNL     1       9.218  -2.310  23.667  0.00  0.00    +0.334 C 
ATOM      5  O   UNL     1      10.260  -2.934  23.767  0.00  0.00    -0.248 OA
BRANCH   4   6
ATOM      6  O   UNL     1       8.434  -1.993  24.733  0.00  0.00    -0.479 OA
ATOM      7  H   UNL     1       7.892  -2.789  24.958  0.00  0.00    +0.295 HD
ENDBRANCH   4   6
ENDBRANCH   1   4
BRANCH   1   8
ATOM      8  C   UNL     1       9.566  -0.908  21.574  0.00  0.00    +0.043 C 
BRANCH   8   9
ATOM      9  C   UNL     1       9.116   0.555  21.419  0.00  0.00    +0.003 C 
BRANCH   9  10
ATOM     10  C   UNL     1      10.057   1.556  22.085  0.00  0.00    +0.000 C 
BRANCH  10  11
ATOM     11  C   UNL     1       9.437   2.263  23.287  0.00  0.00    -0.000 C 
BRANCH  11  12
ATOM     12  C   UNL     1       9.600   1.392  24.535  0.00  0.00    -0.003 C 
ATOM     13  C   UNL     1      10.980   0.763  24.613  0.00  0.00    +0.004 C 
ENDBRANCH  11  12
ENDBRANCH  10  11
ENDBRANCH   9  10
ENDBRANCH   8   9
ENDBRANCH   1   8
TORSDOF 8
ENDMDL
MODEL 6
REMARK VINA RESULT:      -4.0      3.246      4.200
REMARK  Name = 
REMARK  9 active torsions:
REMARK  status: ('A' for Active; 'I' for Inactive)
REMARK    1  A    between atoms: C_2  and  O_3
REMARK    2  A    between atoms: C_2  and  C_4
REMARK    3  A    between atoms: C_2  and  C_10
REMARK    4  A    between atoms: C_4  and  C_5
REMARK    5  A    between atoms: C_5  and  C_6
REMARK    6  A    between atoms: C_6  and  C_7
REMARK    7  A    between atoms: C_7  and  C_8
REMARK    8  A    between atoms: C_8  and  C_9
REMARK    9  A    between atoms: C_10  and  O_11
REMARK                            x       y       z     vdW  Elec       q    Type
REMARK                         _______ _______ _______ _____ _____    ______ ____
ROOT
ATOM      1  C   UNL     1       8.514   2.207  22.572  0.00  0.00    +0.222 C 
ENDROOT
BRANCH   1   2
ATOM      2  O   UNL     1       9.454   2.176  21.484  0.00  0.00    -0.381 OA
ATOM      3  H   UNL     1      10.227   2.707  21.756  0.00  0.00    +0.211 HD
ENDBRANCH   1   2
BRANCH   1   4
ATOM      4  C   UNL     1       7.638   3.438  22.318  0.00  0.00    +0.334 C 
ATOM      5  O   UNL     1       6.467   3.429  21.982  0.00  0.00    -0.248 OA
BRANCH   4   6
ATOM      6  O   UNL     1       8.351   4.581  22.504  0.00  0.00    -0.479 OA
ATOM      7  H   UNL     1       9.001   4.420  23.231  0.00  0.00    +0.295 HD
ENDBRANCH   4   6
ENDBRANCH   1   4
BRANCH   1   8
ATOM      8  C   UNL     1       9.204   2.260  23.939  0.00  0.00    +0.043 C 
BRANCH   8   9
ATOM      9  C   UNL     1      10.573   1.560  23.993  0.00  0.00    +0.003 C 
BRANCH   9  10
ATOM     10  C   UNL     1      10.581   0.301  24.857  0.00  0.00    +0.000 C 
BRANCH  10  11
ATOM     11  C   UNL     1       9.818  -0.865  24.237  0.00  0.00    -0.000 C 
BRANCH  11  12
ATOM     12  C   UNL     1      10.368  -1.150  22.837  0.00  0.00    -0.003 C 
ATOM     13  C   UNL     1       9.259  -1.392  21.829  0.00  0.00    +0.004 C 
ENDBRANCH  11  12
ENDBRANCH  10  11
ENDBRANCH   9  10
ENDBRANCH   8   9
ENDBRANCH   1   8
TORSDOF 8
ENDMDL
MODEL 7
REMARK VINA RESULT:      -4.0      4.542      5.766
REMARK  Name = 
REMARK  9 active torsions:
REMARK  status: ('A' for Active; 'I' for Inactive)
REMARK    1  A    between atoms: C_2  and  O_3
REMARK    2  A    between atoms: C_2  and  C_4
REMARK    3  A    between atoms: C_2  and  C_10
REMARK    4  A    between atoms: C_4  and  C_5
REMARK    5  A    between atoms: C_5  and  C_6
REMARK    6  A    between atoms: C_6  and  C_7
REMARK    7  A    between atoms: C_7  and  C_8
REMARK    8  A    between atoms: C_8  and  C_9
REMARK    9  A    between atoms: C_10  and  O_11
REMARK                            x       y       z     vdW  Elec       q    Type
REMARK                         _______ _______ _______ _____ _____    ______ ____
ROOT
ATOM      1  C   UNL     1       9.434  -0.500  23.479  0.00  0.00    +0.222 C 
ENDROOT
BRANCH   1   2
ATOM      2  O   UNL     1       9.086  -0.709  24.858  0.00  0.00    -0.381 OA
ATOM      3  H   UNL     1       9.364  -1.616  25.091  0.00  0.00    +0.211 HD
ENDBRANCH   1   2
BRANCH   1   4
ATOM      4  C   UNL     1      10.063  -1.819  23.015  0.00  0.00    +0.334 C 
ATOM      5  O   UNL     1      10.239  -2.810  23.700  0.00  0.00    -0.248 OA
BRANCH   4   6
ATOM      6  O   UNL     1      10.427  -1.743  21.706  0.00  0.00    -0.479 OA
ATOM      7  H   UNL     1      11.084  -1.009  21.616  0.00  0.00    +0.295 HD
ENDBRANCH   4   6
ENDBRANCH   1   4
BRANCH   1   8
ATOM      8  C   UNL     1      10.379   0.690  23.288  0.00  0.00    +0.043 C 
BRANCH   8   9
ATOM      9  C   UNL     1       9.931   1.698  22.214  0.00  0.00    +0.003 C 
BRANCH   9  10
ATOM     10  C   UNL     1       8.637   1.301  21.508  0.00  0.00    +0.000 C 
BRANCH  10  11
ATOM     11  C   UNL     1       7.479   2.256  21.784  0.00  0.00    -0.000 C 
BRANCH  11  12
ATOM     12  C   UNL     1       7.973   3.426  22.640  0.00  0.00    -0.003 C 
ATOM     13  C   UNL     1       7.244   4.716  22.313  0.00  0.00    +0.004 C 
ENDBRANCH  11  12
ENDBRANCH  10  11
ENDBRANCH   9  10
ENDBRANCH   8   9
ENDBRANCH   1   8
TORSDOF 8
ENDMDL
MODEL 8
REMARK VINA RESULT:      -4.0      7.059      8.569
REMARK  Name = 
REMARK  9 active torsions:
REMARK  status: ('A' for Active; 'I' for Inactive)
REMARK    1  A    between atoms: C_2  and  O_3
REMARK    2  A    between atoms: C_2  and  C_4
REMARK    3  A    between atoms: C_2  and  C_10
REMARK    4  A    between atoms: C_4  and  C_5
REMARK    5  A    between atoms: C_5  and  C_6
REMARK    6  A    between atoms: C_6  and  C_7
REMARK    7  A    between atoms: C_7  and  C_8
REMARK    8  A    between atoms: C_8  and  C_9
REMARK    9  A    between atoms: C_10  and  O_11
REMARK                            x       y       z     vdW  Elec       q    Type
REMARK                         _______ _______ _______ _____ _____    ______ ____
ROOT
ATOM      1  C   UNL     1       8.215  -4.769  26.121  0.00  0.00    +0.222 C 
ENDROOT
BRANCH   1   2
ATOM      2  O   UNL     1       9.174  -4.758  27.193  0.00  0.00    -0.381 OA
ATOM      3  H   UNL     1      10.006  -4.395  26.830  0.00  0.00    +0.211 HD
ENDBRANCH   1   2
BRANCH   1   4
ATOM      4  C   UNL     1       8.975  -5.299  24.901  0.00  0.00    +0.334 C 
ATOM      5  O   UNL     1       8.541  -5.382  23.765  0.00  0.00    -0.248 OA
BRANCH   4   6
ATOM      6  O   UNL     1      10.229  -5.693  25.250  0.00  0.00    -0.479 OA
ATOM      7  H   UNL     1      10.355  -6.622  24.934  0.00  0.00    +0.295 HD
ENDBRANCH   4   6
ENDBRANCH   1   4
BRANCH   1   8
ATOM      8  C   UNL     1       7.605  -3.387  25.868  0.00  0.00    +0.043 C 
BRANCH   8   9
ATOM      9  C   UNL     1       8.587  -2.214  26.032  0.00  0.00    +0.003 C 
BRANCH   9  10
ATOM     10  C   UNL     1       8.753  -1.376  24.767  0.00  0.00    +0.000 C 
BRANCH  10  11
ATOM     11  C   UNL     1       9.829  -1.908  23.825  0.00  0.00    -0.000 C 
BRANCH  11  12
ATOM     12  C   UNL     1       9.352  -1.778  22.376  0.00  0.00    -0.003 C 
ATOM     13  C   UNL     1       9.700  -0.425  21.782  0.00  0.00    +0.004 C 
ENDBRANCH  11  12
ENDBRANCH  10  11
ENDBRANCH   9  10
ENDBRANCH   8   9
ENDBRANCH   1   8
TORSDOF 8
ENDMDL
MODEL 9
REMARK VINA RESULT:      -4.0      3.474      5.242
REMARK  Name = 
REMARK  9 active torsions:
REMARK  status: ('A' for Active; 'I' for Inactive)
REMARK    1  A    between atoms: C_2  and  O_3
REMARK    2  A    between atoms: C_2  and  C_4
REMARK    3  A    between atoms: C_2  and  C_10
REMARK    4  A    between atoms: C_4  and  C_5
REMARK    5  A    between atoms: C_5  and  C_6
REMARK    6  A    between atoms: C_6  and  C_7
REMARK    7  A    between atoms: C_7  and  C_8
REMARK    8  A    between atoms: C_8  and  C_9
REMARK    9  A    between atoms: C_10  and  O_11
REMARK                            x       y       z     vdW  Elec       q    Type
REMARK                         _______ _______ _______ _____ _____    ______ ____
ROOT
ATOM      1  C   UNL     1       9.019   0.612  21.944  0.00  0.00    +0.222 C 
ENDROOT
BRANCH   1   2
ATOM      2  O   UNL     1       8.583   1.294  20.755  0.00  0.00    -0.381 OA
ATOM      3  H   UNL     1       8.185   2.141  21.039  0.00  0.00    +0.211 HD
ENDBRANCH   1   2
BRANCH   1   4
ATOM      4  C   UNL     1      10.068   1.531  22.578  0.00  0.00    +0.334 C 
ATOM      5  O   UNL     1      10.512   1.441  23.710  0.00  0.00    -0.248 OA
BRANCH   4   6
ATOM      6  O   UNL     1      10.449   2.500  21.704  0.00  0.00    -0.479 OA
ATOM      7  H   UNL     1      11.406   2.362  21.494  0.00  0.00    +0.295 HD
ENDBRANCH   4   6
ENDBRANCH   1   4
BRANCH   1   8
ATOM      8  C   UNL     1       9.575  -0.784  21.647  0.00  0.00    +0.043 C 
BRANCH   8   9
ATOM      9  C   UNL     1       8.980  -1.908  22.513  0.00  0.00    +0.003 C 
BRANCH   9  10
ATOM     10  C   UNL     1       9.773  -2.181  23.788  0.00  0.00    +0.000 C 
BRANCH  10  11
ATOM     11  C   UNL     1       9.431  -3.517  24.440  0.00  0.00    -0.000 C 
BRANCH  11  12
ATOM     12  C   UNL     1       8.159  -4.087  23.806  0.00  0.00    -0.003 C 
ATOM     13  C   UNL     1       7.179  -4.587  24.851  0.00  0.00    +0.004 C 
ENDBRANCH  11  12
ENDBRANCH  10  11
ENDBRANCH   9  10
ENDBRANCH   8   9
ENDBRANCH   1   8
TORSDOF 8
ENDMDL
