MODEL 1
REMARK VINA RESULT:      -6.2      0.000      0.000
REMARK  Name = 
REMARK  16 active torsions:
REMARK  status: ('A' for Active; 'I' for Inactive)
REMARK    1  A    between atoms: C_1  and  N_2
REMARK    2  A    between atoms: C_3  and  C_5
REMARK    3  A    between atoms: C_5  and  N_7
REMARK    4  A    between atoms: C_5  and  C_23
REMARK    5  A    between atoms: C_8  and  C_10
REMARK    6  A    between atoms: C_10  and  C_12
REMARK    7  A    between atoms: C_10  and  C_16
REMARK    8  A    between atoms: C_12  and  C_13
REMARK    9  A    between atoms: C_13  and  C_14
REMARK   10  A    between atoms: C_13  and  C_15
REMARK   11  A    between atoms: C_16  and  O_18
REMARK   12  A    between atoms: C_16  and  C_19
REMARK   13  A    between atoms: N_21  and  O_22
REMARK   14  A    between atoms: C_23  and  C_24
REMARK   15  A    between atoms: C_23  and  C_25
REMARK   16  A    between atoms: C_23  and  C_26
REMARK                            x       y       z     vdW  Elec       q    Type
REMARK                         _______ _______ _______ _____ _____    ______ ____
ROOT
ATOM      1  N   UNL     1       7.952  -1.844  24.262  0.00  0.00    -0.303 N 
ATOM      2  H   UNL     1       7.979  -2.159  25.228  0.00  0.00    +0.149 HD
ATOM      3  C   UNL     1       8.196  -2.768  23.273  0.00  0.00    +0.220 C 
ATOM      4  O   UNL     1       8.350  -2.435  22.103  0.00  0.00    -0.275 OA
ENDROOT
BRANCH   1   5
ATOM      5  C   UNL     1       7.865  -0.394  24.025  0.00  0.00    +0.164 C 
BRANCH   5   9
ATOM      6  C   UNL     1      10.644   2.234  23.793  0.00  0.00    +0.128 C 
ATOM      7  N   UNL     1       9.454   1.458  23.569  0.00  0.00    -0.317 N 
ATOM      8  H   UNL     1       8.639   1.891  23.132  0.00  0.00    +0.148 HD
ATOM      9  C   UNL     1       9.271   0.253  24.220  0.00  0.00    +0.234 C 
ATOM     10  O   UNL     1      10.142  -0.200  24.964  0.00  0.00    -0.274 OA
ENDBRANCH   5   9
BRANCH   5  11
ATOM     11  C   UNL     1       6.726   0.248  24.886  0.00  0.00    -0.011 C 
ATOM     12  C   UNL     1       7.242   0.806  26.229  0.00  0.00    +0.013 C 
ATOM     13  C   UNL     1       5.647  -0.814  25.195  0.00  0.00    +0.013 C 
ATOM     14  C   UNL     1       6.012   1.371  24.105  0.00  0.00    +0.013 C 
ENDBRANCH   5  11
ENDBRANCH   1   5
BRANCH   3  15
ATOM     15  C   UNL     1       8.312  -4.208  23.779  0.00  0.00    +0.113 C 
BRANCH  15  16
ATOM     16  C   UNL     1       9.171  -4.285  25.062  0.00  0.00    +0.214 C 
BRANCH  16  17
ATOM     17  C   UNL     1       8.301  -4.509  26.313  0.00  0.00    +0.265 C 
ATOM     18  N   UNL     1       8.365  -5.787  26.826  0.00  0.00    -0.195 N 
ATOM     19  H   UNL     1       8.513  -6.566  26.187  0.00  0.00    +0.182 HD
ATOM     20  O   UNL     1       7.642  -3.619  26.855  0.00  0.00    -0.271 OA
BRANCH  18  21
ATOM     21  O   UNL     1       7.482  -6.046  27.901  0.00  0.00    -0.295 OA
ATOM     22  H   UNL     1       8.082  -6.358  28.612  0.00  0.00    +0.241 HD
ENDBRANCH  18  21
ENDBRANCH  16  17
BRANCH  16  23
ATOM     23  O   UNL     1      10.234  -5.222  24.942  0.00  0.00    -0.382 OA
ATOM     24  H   UNL     1      10.562  -5.185  24.024  0.00  0.00    +0.210 HD
ENDBRANCH  16  23
ENDBRANCH  15  16
BRANCH  15  25
ATOM     25  C   UNL     1       6.915  -4.837  23.980  0.00  0.00    +0.018 C 
BRANCH  25  26
ATOM     26  C   UNL     1       6.155  -5.128  22.660  0.00  0.00    -0.016 C 
ATOM     27  C   UNL     1       4.821  -5.816  22.958  0.00  0.00    +0.007 C 
ATOM     28  C   UNL     1       6.963  -5.980  21.680  0.00  0.00    +0.007 C 
ENDBRANCH  25  26
ENDBRANCH  15  25
ENDBRANCH   3  15
TORSDOF 10
ENDMDL
MODEL 2
REMARK VINA RESULT:      -6.2      2.308      3.491
REMARK  Name = 
REMARK  16 active torsions:
REMARK  status: ('A' for Active; 'I' for Inactive)
REMARK    1  A    between atoms: C_1  and  N_2
REMARK    2  A    between atoms: C_3  and  C_5
REMARK    3  A    between atoms: C_5  and  N_7
REMARK    4  A    between atoms: C_5  and  C_23
REMARK    5  A    between atoms: C_8  and  C_10
REMARK    6  A    between atoms: C_10  and  C_12
REMARK    7  A    between atoms: C_10  and  C_16
REMARK    8  A    between atoms: C_12  and  C_13
REMARK    9  A    between atoms: C_13  and  C_14
REMARK   10  A    between atoms: C_13  and  C_15
REMARK   11  A    between atoms: C_16  and  O_18
REMARK   12  A    between atoms: C_16  and  C_19
REMARK   13  A    between atoms: N_21  and  O_22
REMARK   14  A    between atoms: C_23  and  C_24
REMARK   15  A    between atoms: C_23  and  C_25
REMARK   16  A    between atoms: C_23  and  C_26
REMARK                            x       y       z     vdW  Elec       q    Type
REMARK                         _______ _______ _______ _____ _____    ______ ____
ROOT
ATOM      1  N   UNL     1       8.126  -2.926  25.113  0.00  0.00    -0.303 N 
ATOM      2  H   UNL     1       7.709  -2.893  24.188  0.00  0.00    +0.149 HD
ATOM      3  C   UNL     1       7.950  -4.066  25.863  0.00  0.00    +0.220 C 
ATOM      4  O   UNL     1       8.273  -4.117  27.045  0.00  0.00    -0.275 OA
ENDROOT
BRANCH   1   5
ATOM      5  C   UNL     1       8.696  -1.677  25.644  0.00  0.00    +0.164 C 
BRANCH   5   9
ATOM      6  C   UNL     1       7.241   0.802  28.179  0.00  0.00    +0.128 C 
ATOM      7  N   UNL     1       8.122  -0.065  27.443  0.00  0.00    -0.317 N 
ATOM      8  H   UNL     1       9.127   0.116  27.437  0.00  0.00    +0.148 HD
ATOM      9  C   UNL     1       7.619  -0.927  26.488  0.00  0.00    +0.234 C 
ATOM     10  O   UNL     1       6.406  -1.005  26.284  0.00  0.00    -0.274 OA
ENDBRANCH   5   9
BRANCH   5  11
ATOM     11  C   UNL     1       9.339  -0.823  24.500  0.00  0.00    -0.011 C 
ATOM     12  C   UNL     1      10.407   0.159  25.024  0.00  0.00    +0.013 C 
ATOM     13  C   UNL     1       8.242   0.001  23.789  0.00  0.00    +0.013 C 
ATOM     14  C   UNL     1       9.963  -1.731  23.420  0.00  0.00    +0.013 C 
ENDBRANCH   5  11
ENDBRANCH   1   5
BRANCH   3  15
ATOM     15  C   UNL     1       7.272  -5.211  25.107  0.00  0.00    +0.113 C 
BRANCH  15  16
ATOM     16  C   UNL     1       5.741  -5.197  25.320  0.00  0.00    +0.214 C 
BRANCH  16  17
ATOM     17  C   UNL     1       5.283  -6.369  26.206  0.00  0.00    +0.265 C 
ATOM     18  N   UNL     1       5.888  -6.415  27.444  0.00  0.00    -0.195 N 
ATOM     19  H   UNL     1       6.844  -6.078  27.536  0.00  0.00    +0.182 HD
ATOM     20  O   UNL     1       4.408  -7.173  25.875  0.00  0.00    -0.271 OA
BRANCH  18  21
ATOM     21  O   UNL     1       5.569  -7.552  28.226  0.00  0.00    -0.295 OA
ATOM     22  H   UNL     1       4.651  -7.761  27.949  0.00  0.00    +0.241 HD
ENDBRANCH  18  21
ENDBRANCH  16  17
BRANCH  16  23
ATOM     23  O   UNL     1       5.275  -3.932  25.776  0.00  0.00    -0.382 OA
ATOM     24  H   UNL     1       6.040  -3.329  25.817  0.00  0.00    +0.210 HD
ENDBRANCH  16  23
ENDBRANCH  15  16
BRANCH  15  25
ATOM     25  C   UNL     1       7.647  -5.181  23.608  0.00  0.00    +0.018 C 
BRANCH  25  26
ATOM     26  C   UNL     1       6.443  -4.967  22.656  0.00  0.00    -0.016 C 
ATOM     27  C   UNL     1       6.469  -6.000  21.528  0.00  0.00    +0.007 C 
ATOM     28  C   UNL     1       6.396  -3.559  22.060  0.00  0.00    +0.007 C 
ENDBRANCH  25  26
ENDBRANCH  15  25
ENDBRANCH   3  15
TORSDOF 10
ENDMDL
MODEL 3
REMARK VINA RESULT:      -6.2      2.378      6.358
REMARK  Name = 
REMARK  16 active torsions:
REMARK  status: ('A' for Active; 'I' for Inactive)
REMARK    1  A    between atoms: C_1  and  N_2
REMARK    2  A    between atoms: C_3  and  C_5
REMARK    3  A    between atoms: C_5  and  N_7
REMARK    4  A    between atoms: C_5  and  C_23
REMARK    5  A    between atoms: C_8  and  C_10
REMARK    6  A    between atoms: C_10  and  C_12
REMARK    7  A    between atoms: C_10  and  C_16
REMARK    8  A    between atoms: C_12  and  C_13
REMARK    9  A    between atoms: C_13  and  C_14
REMARK   10  A    between atoms: C_13  and  C_15
REMARK   11  A    between atoms: C_16  and  O_18
REMARK   12  A    between atoms: C_16  and  C_19
REMARK   13  A    between atoms: N_21  and  O_22
REMARK   14  A    between atoms: C_23  and  C_24
REMARK   15  A    between atoms: C_23  and  C_25
REMARK   16  A    between atoms: C_23  and  C_26
REMARK                            x       y       z     vdW  Elec       q    Type
REMARK                         _______ _______ _______ _____ _____    ______ ____
ROOT
ATOM      1  N   UNL     1       8.104  -2.522  23.329  0.00  0.00    -0.303 N 
ATOM      2  H   UNL     1       7.589  -1.787  22.853  0.00  0.00    +0.149 HD
ATOM      3  C   UNL     1       9.431  -2.302  23.617  0.00  0.00    +0.220 C 
ATOM      4  O   UNL     1      10.158  -3.199  24.032  0.00  0.00    -0.275 OA
ENDROOT
BRANCH   1   5
ATOM      5  C   UNL     1       7.440  -3.827  23.476  0.00  0.00    +0.164 C 
BRANCH   5   9
ATOM      6  C   UNL     1       6.177  -5.942  20.540  0.00  0.00    +0.128 C 
ATOM      7  N   UNL     1       6.932  -5.437  21.655  0.00  0.00    -0.317 N 
ATOM      8  H   UNL     1       7.479  -6.078  22.232  0.00  0.00    +0.148 HD
ATOM      9  C   UNL     1       6.676  -4.177  22.161  0.00  0.00    +0.234 C 
ATOM     10  O   UNL     1       5.833  -3.446  21.638  0.00  0.00    -0.274 OA
ENDBRANCH   5   9
BRANCH   5  11
ATOM     11  C   UNL     1       6.560  -3.867  24.771  0.00  0.00    -0.011 C 
ATOM     12  C   UNL     1       5.475  -4.963  24.716  0.00  0.00    +0.013 C 
ATOM     13  C   UNL     1       5.854  -2.506  24.961  0.00  0.00    +0.013 C 
ATOM     14  C   UNL     1       7.436  -4.075  26.024  0.00  0.00    +0.013 C 
ENDBRANCH   5  11
ENDBRANCH   1   5
BRANCH   3  15
ATOM     15  C   UNL     1       9.907  -0.879  23.315  0.00  0.00    +0.113 C 
BRANCH  15  16
ATOM     16  C   UNL     1       9.104  -0.253  22.152  0.00  0.00    +0.214 C 
BRANCH  16  17
ATOM     17  C   UNL     1       9.316   1.270  22.074  0.00  0.00    +0.265 C 
ATOM     18  N   UNL     1       8.160   2.011  22.197  0.00  0.00    -0.195 N 
ATOM     19  H   UNL     1       7.287   1.621  21.848  0.00  0.00    +0.182 HD
ATOM     20  O   UNL     1      10.425   1.800  21.968  0.00  0.00    -0.271 OA
BRANCH  18  21
ATOM     21  O   UNL     1       8.319   3.405  22.007  0.00  0.00    -0.295 OA
ATOM     22  H   UNL     1       7.394   3.732  21.970  0.00  0.00    +0.241 HD
ENDBRANCH  18  21
ENDBRANCH  16  17
BRANCH  16  23
ATOM     23  O   UNL     1       9.340  -0.917  20.917  0.00  0.00    -0.382 OA
ATOM     24  H   UNL     1      10.304  -1.011  20.808  0.00  0.00    +0.210 HD
ENDBRANCH  16  23
ENDBRANCH  15  16
BRANCH  15  25
ATOM     25  C   UNL     1       9.864  -0.002  24.586  0.00  0.00    +0.018 C 
BRANCH  25  26
ATOM     26  C   UNL     1       8.585  -0.186  25.442  0.00  0.00    -0.016 C 
ATOM     27  C   UNL     1       7.854   1.149  25.596  0.00  0.00    +0.007 C 
ATOM     28  C   UNL     1       8.870  -0.776  26.825  0.00  0.00    +0.007 C 
ENDBRANCH  25  26
ENDBRANCH  15  25
ENDBRANCH   3  15
TORSDOF 10
ENDMDL
MODEL 4
REMARK VINA RESULT:      -6.1      2.609      6.634
REMARK  Name = 
REMARK  16 active torsions:
REMARK  status: ('A' for Active; 'I' for Inactive)
REMARK    1  A    between atoms: C_1  and  N_2
REMARK    2  A    between atoms: C_3  and  C_5
REMARK    3  A    between atoms: C_5  and  N_7
REMARK    4  A    between atoms: C_5  and  C_23
REMARK    5  A    between atoms: C_8  and  C_10
REMARK    6  A    between atoms: C_10  and  C_12
REMARK    7  A    between atoms: C_10  and  C_16
REMARK    8  A    between atoms: C_12  and  C_13
REMARK    9  A    between atoms: C_13  and  C_14
REMARK   10  A    between atoms: C_13  and  C_15
REMARK   11  A    between atoms: C_16  and  O_18
REMARK   12  A    between atoms: C_16  and  C_19
REMARK   13  A    between atoms: N_21  and  O_22
REMARK   14  A    between atoms: C_23  and  C_24
REMARK   15  A    between atoms: C_23  and  C_25
REMARK   16  A    between atoms: C_23  and  C_26
REMARK                            x       y       z     vdW  Elec       q    Type
REMARK                         _______ _______ _______ _____ _____    ______ ____
ROOT
ATOM      1  N   UNL     1       8.309  -1.934  23.627  0.00  0.00    -0.303 N 
ATOM      2  H   UNL     1       7.455  -1.474  23.928  0.00  0.00    +0.149 HD
ATOM      3  C   UNL     1       9.334  -1.149  23.151  0.00  0.00    +0.220 C 
ATOM      4  O   UNL     1      10.323  -1.637  22.613  0.00  0.00    -0.275 OA
ENDROOT
BRANCH   1   5
ATOM      5  C   UNL     1       8.290  -3.402  23.531  0.00  0.00    +0.164 C 
BRANCH   5   9
ATOM      6  C   UNL     1       6.331  -5.706  21.177  0.00  0.00    +0.128 C 
ATOM      7  N   UNL     1       7.354  -5.117  21.998  0.00  0.00    -0.317 N 
ATOM      8  H   UNL     1       8.084  -5.705  22.403  0.00  0.00    +0.148 HD
ATOM      9  C   UNL     1       7.190  -3.847  22.518  0.00  0.00    +0.234 C 
ATOM     10  O   UNL     1       6.190  -3.179  22.249  0.00  0.00    -0.274 OA
ENDBRANCH   5   9
BRANCH   5  11
ATOM     11  C   UNL     1       8.172  -4.056  24.949  0.00  0.00    -0.011 C 
ATOM     12  C   UNL     1       6.771  -4.645  25.215  0.00  0.00    +0.013 C 
ATOM     13  C   UNL     1       8.456  -2.994  26.035  0.00  0.00    +0.013 C 
ATOM     14  C   UNL     1       9.235  -5.158  25.138  0.00  0.00    +0.013 C 
ENDBRANCH   5  11
ENDBRANCH   1   5
BRANCH   3  15
ATOM     15  C   UNL     1       9.091   0.354  23.302  0.00  0.00    +0.113 C 
BRANCH  15  16
ATOM     16  C   UNL     1      10.398   1.103  23.648  0.00  0.00    +0.214 C 
BRANCH  16  17
ATOM     17  C   UNL     1      10.154   2.611  23.835  0.00  0.00    +0.265 C 
ATOM     18  N   UNL     1      10.880   3.413  22.979  0.00  0.00    -0.195 N 
ATOM     19  H   UNL     1      11.800   3.101  22.676  0.00  0.00    +0.182 HD
ATOM     20  O   UNL     1       9.340   3.077  24.636  0.00  0.00    -0.271 OA
BRANCH  18  21
ATOM     21  O   UNL     1      10.760   4.804  23.216  0.00  0.00    -0.295 OA
ATOM     22  H   UNL     1      10.069   5.079  22.576  0.00  0.00    +0.241 HD
ENDBRANCH  18  21
ENDBRANCH  16  17
BRANCH  16  23
ATOM     23  O   UNL     1      11.086   0.506  24.741  0.00  0.00    -0.382 OA
ATOM     24  H   UNL     1      10.621   0.758  25.560  0.00  0.00    +0.210 HD
ENDBRANCH  16  23
ENDBRANCH  15  16
BRANCH  15  25
ATOM     25  C   UNL     1       8.409   0.932  22.042  0.00  0.00    +0.018 C 
BRANCH  25  26
ATOM     26  C   UNL     1       6.983   1.487  22.290  0.00  0.00    -0.016 C 
ATOM     27  C   UNL     1       6.942   2.990  22.006  0.00  0.00    +0.007 C 
ATOM     28  C   UNL     1       6.476   1.220  23.708  0.00  0.00    +0.007 C 
ENDBRANCH  25  26
ENDBRANCH  15  25
ENDBRANCH   3  15
TORSDOF 10
ENDMDL
MODEL 5
REMARK VINA RESULT:      -6.0      1.984      3.241
REMARK  Name = 
REMARK  16 active torsions:
REMARK  status: ('A' for Active; 'I' for Inactive)
REMARK    1  A    between atoms: C_1  and  N_2
REMARK    2  A    between atoms: C_3  and  C_5
REMARK    3  A    between atoms: C_5  and  N_7
REMARK    4  A    between atoms: C_5  and  C_23
REMARK    5  A    between atoms: C_8  and  C_10
REMARK    6  A    between atoms: C_10  and  C_12
REMARK    7  A    between atoms: C_10  and  C_16
REMARK    8  A    between atoms: C_12  and  C_13
REMARK    9  A    between atoms: C_13  and  C_14
REMARK   10  A    between atoms: C_13  and  C_15
REMARK   11  A    between atoms: C_16  and  O_18
REMARK   12  A    between atoms: C_16  and  C_19
REMARK   13  A    between atoms: N_21  and  O_22
REMARK   14  A    between atoms: C_23  and  C_24
REMARK   15  A    between atoms: C_23  and  C_25
REMARK   16  A    between atoms: C_23  and  C_26
REMARK                            x       y       z     vdW  Elec       q    Type
REMARK                         _______ _______ _______ _____ _____    ______ ____
ROOT
ATOM      1  N   UNL     1       8.305  -0.663  23.821  0.00  0.00    -0.303 N 
ATOM      2  H   UNL     1       7.611  -1.036  23.180  0.00  0.00    +0.149 HD
ATOM      3  C   UNL     1       8.722  -1.461  24.861  0.00  0.00    +0.220 C 
ATOM      4  O   UNL     1       9.422  -1.024  25.769  0.00  0.00    -0.275 OA
ENDROOT
BRANCH   1   5
ATOM      5  C   UNL     1       8.639   0.765  23.701  0.00  0.00    +0.164 C 
BRANCH   5   9
ATOM      6  C   UNL     1       5.149   1.600  25.048  0.00  0.00    +0.128 C 
ATOM      7  N   UNL     1       6.261   0.972  24.385  0.00  0.00    -0.317 N 
ATOM      8  H   UNL     1       6.247  -0.033  24.209  0.00  0.00    +0.148 HD
ATOM      9  C   UNL     1       7.474   1.626  24.281  0.00  0.00    +0.234 C 
ATOM     10  O   UNL     1       7.611   2.773  24.708  0.00  0.00    -0.274 OA
ENDBRANCH   5   9
BRANCH   5  11
ATOM     11  C   UNL     1       9.045   1.124  22.232  0.00  0.00    -0.011 C 
ATOM     12  C   UNL     1       7.915   1.840  21.463  0.00  0.00    +0.013 C 
ATOM     13  C   UNL     1       9.402  -0.167  21.462  0.00  0.00    +0.013 C 
ATOM     14  C   UNL     1      10.315   2.002  22.211  0.00  0.00    +0.013 C 
ENDBRANCH   5  11
ENDBRANCH   1   5
BRANCH   3  15
ATOM     15  C   UNL     1       8.186  -2.894  24.802  0.00  0.00    +0.113 C 
BRANCH  15  16
ATOM     16  C   UNL     1       6.809  -3.007  25.495  0.00  0.00    +0.214 C 
BRANCH  16  17
ATOM     17  C   UNL     1       6.842  -4.019  26.655  0.00  0.00    +0.265 C 
ATOM     18  N   UNL     1       7.897  -4.904  26.605  0.00  0.00    -0.195 N 
ATOM     19  H   UNL     1       8.256  -5.191  25.697  0.00  0.00    +0.182 HD
ATOM     20  O   UNL     1       6.034  -4.015  27.587  0.00  0.00    -0.271 OA
BRANCH  18  21
ATOM     21  O   UNL     1       7.877  -5.917  27.595  0.00  0.00    -0.295 OA
ATOM     22  H   UNL     1       6.998  -6.333  27.469  0.00  0.00    +0.241 HD
ENDBRANCH  18  21
ENDBRANCH  16  17
BRANCH  16  23
ATOM     23  O   UNL     1       6.291  -1.737  25.872  0.00  0.00    -0.382 OA
ATOM     24  H   UNL     1       5.338  -1.843  26.047  0.00  0.00    +0.210 HD
ENDBRANCH  16  23
ENDBRANCH  15  16
BRANCH  15  25
ATOM     25  C   UNL     1       8.145  -3.407  23.345  0.00  0.00    +0.018 C 
BRANCH  25  26
ATOM     26  C   UNL     1       6.827  -4.130  22.964  0.00  0.00    -0.016 C 
ATOM     27  C   UNL     1       7.124  -5.549  22.477  0.00  0.00    +0.007 C 
ATOM     28  C   UNL     1       6.021  -3.382  21.900  0.00  0.00    +0.007 C 
ENDBRANCH  25  26
ENDBRANCH  15  25
ENDBRANCH   3  15
TORSDOF 10
ENDMDL
MODEL 6
REMARK VINA RESULT:      -5.9      2.129      3.171
REMARK  Name = 
REMARK  16 active torsions:
REMARK  status: ('A' for Active; 'I' for Inactive)
REMARK    1  A    between atoms: C_1  and  N_2
REMARK    2  A    between atoms: C_3  and  C_5
REMARK    3  A    between atoms: C_5  and  N_7
REMARK    4  A    between atoms: C_5  and  C_23
REMARK    5  A    between atoms: C_8  and  C_10
REMARK    6  A    between atoms: C_10  and  C_12
REMARK    7  A    between atoms: C_10  and  C_16
REMARK    8  A    between atoms: C_12  and  C_13
REMARK    9  A    between atoms: C_13  and  C_14
REMARK   10  A    between atoms: C_13  and  C_15
REMARK   11  A    between atoms: C_16  and  O_18
REMARK   12  A    between atoms: C_16  and  C_19
REMARK   13  A    between atoms: N_21  and  O_22
REMARK   14  A    between atoms: C_23  and  C_24
REMARK   15  A    between atoms: C_23  and  C_25
REMARK   16  A    between atoms: C_23  and  C_26
REMARK                            x       y       z     vdW  Elec       q    Type
REMARK                         _______ _______ _______ _____ _____    ______ ____
ROOT
ATOM      1  N   UNL     1       7.653  -2.893  24.538  0.00  0.00    -0.303 N 
ATOM      2  H   UNL     1       6.724  -2.509  24.399  0.00  0.00    +0.149 HD
ATOM      3  C   UNL     1       7.759  -4.159  25.064  0.00  0.00    +0.220 C 
ATOM      4  O   UNL     1       8.838  -4.622  25.419  0.00  0.00    -0.275 OA
ENDROOT
BRANCH   1   5
ATOM      5  C   UNL     1       8.796  -1.982  24.360  0.00  0.00    +0.164 C 
BRANCH   5   9
ATOM      6  C   UNL     1       7.523   0.014  27.374  0.00  0.00    +0.128 C 
ATOM      7  N   UNL     1       7.609  -0.830  26.212  0.00  0.00    -0.317 N 
ATOM      8  H   UNL     1       6.910  -1.556  26.057  0.00  0.00    +0.148 HD
ATOM      9  C   UNL     1       8.782  -0.900  25.485  0.00  0.00    +0.234 C 
ATOM     10  O   UNL     1       9.756  -0.209  25.788  0.00  0.00    -0.274 OA
ENDBRANCH   5   9
BRANCH   5  11
ATOM     11  C   UNL     1       8.835  -1.408  22.904  0.00  0.00    -0.011 C 
ATOM     12  C   UNL     1       8.159  -0.026  22.794  0.00  0.00    +0.013 C 
ATOM     13  C   UNL     1       8.103  -2.374  21.946  0.00  0.00    +0.013 C 
ATOM     14  C   UNL     1      10.287  -1.311  22.390  0.00  0.00    +0.013 C 
ENDBRANCH   5  11
ENDBRANCH   1   5
BRANCH   3  15
ATOM     15  C   UNL     1       6.420  -4.886  25.216  0.00  0.00    +0.113 C 
BRANCH  15  16
ATOM     16  C   UNL     1       5.835  -4.696  26.634  0.00  0.00    +0.214 C 
BRANCH  16  17
ATOM     17  C   UNL     1       6.209  -5.867  27.561  0.00  0.00    +0.265 C 
ATOM     18  N   UNL     1       5.268  -6.873  27.610  0.00  0.00    -0.195 N 
ATOM     19  H   UNL     1       4.286  -6.633  27.498  0.00  0.00    +0.182 HD
ATOM     20  O   UNL     1       7.279  -5.940  28.170  0.00  0.00    -0.271 OA
BRANCH  18  21
ATOM     21  O   UNL     1       5.538  -7.900  28.548  0.00  0.00    -0.295 OA
ATOM     22  H   UNL     1       6.514  -7.993  28.501  0.00  0.00    +0.241 HD
ENDBRANCH  18  21
ENDBRANCH  16  17
BRANCH  16  23
ATOM     23  O   UNL     1       6.155  -3.422  27.180  0.00  0.00    -0.382 OA
ATOM     24  H   UNL     1       5.851  -3.410  28.107  0.00  0.00    +0.210 HD
ENDBRANCH  16  23
ENDBRANCH  15  16
BRANCH  15  25
ATOM     25  C   UNL     1       5.427  -4.446  24.116  0.00  0.00    +0.018 C 
BRANCH  25  26
ATOM     26  C   UNL     1       4.989  -5.588  23.164  0.00  0.00    -0.016 C 
ATOM     27  C   UNL     1       4.529  -6.804  23.971  0.00  0.00    +0.007 C 
ATOM     28  C   UNL     1       6.089  -6.009  22.188  0.00  0.00    +0.007 C 
ENDBRANCH  25  26
ENDBRANCH  15  25
ENDBRANCH   3  15
TORSDOF 10
ENDMDL
MODEL 7
REMARK VINA RESULT:      -5.8      2.480      4.152
REMARK  Name = 
REMARK  16 active torsions:
REMARK  status: ('A' for Active; 'I' for Inactive)
REMARK    1  A    between atoms: C_1  and  N_2
REMARK    2  A    between atoms: C_3  and  C_5
REMARK    3  A    between atoms: C_5  and  N_7
REMARK    4  A    between atoms: C_5  and  C_23
REMARK    5  A    between atoms: C_8  and  C_10
REMARK    6  A    between atoms: C_10  and  C_12
REMARK    7  A    between atoms: C_10  and  C_16
REMARK    8  A    between atoms: C_12  and  C_13
REMARK    9  A    between atoms: C_13  and  C_14
REMARK   10  A    between atoms: C_13  and  C_15
REMARK   11  A    between atoms: C_16  and  O_18
REMARK   12  A    between atoms: C_16  and  C_19
REMARK   13  A    between atoms: N_21  and  O_22
REMARK   14  A    between atoms: C_23  and  C_24
REMARK   15  A    between atoms: C_23  and  C_25
REMARK   16  A    between atoms: C_23  and  C_26
REMARK                            x       y       z     vdW  Elec       q    Type
REMARK                         _______ _______ _______ _____ _____    ______ ____
ROOT
ATOM      1  N   UNL     1       8.102  -1.323  23.590  0.00  0.00    -0.303 N 
ATOM      2  H   UNL     1       8.139  -1.649  22.629  0.00  0.00    +0.149 HD
ATOM      3  C   UNL     1       7.441  -2.100  24.512  0.00  0.00    +0.220 C 
ATOM      4  O   UNL     1       7.206  -1.696  25.646  0.00  0.00    -0.275 OA
ENDROOT
BRANCH   1   5
ATOM      5  C   UNL     1       8.572   0.046  23.859  0.00  0.00    +0.164 C 
BRANCH   5   9
ATOM      6  C   UNL     1       6.667   3.365  23.652  0.00  0.00    +0.128 C 
ATOM      7  N   UNL     1       7.509   2.279  24.078  0.00  0.00    -0.317 N 
ATOM      8  H   UNL     1       8.293   2.458  24.706  0.00  0.00    +0.148 HD
ATOM      9  C   UNL     1       7.486   1.071  23.407  0.00  0.00    +0.234 C 
ATOM     10  O   UNL     1       6.713   0.886  22.465  0.00  0.00    -0.274 OA
ENDBRANCH   5   9
BRANCH   5  11
ATOM     11  C   UNL     1       9.991   0.283  23.241  0.00  0.00    -0.011 C 
ATOM     12  C   UNL     1      10.996   0.847  24.268  0.00  0.00    +0.013 C 
ATOM     13  C   UNL     1       9.887   1.290  22.074  0.00  0.00    +0.013 C 
ATOM     14  C   UNL     1      10.553  -1.020  22.636  0.00  0.00    +0.013 C 
ENDBRANCH   5  11
ENDBRANCH   1   5
BRANCH   3  15
ATOM     15  C   UNL     1       6.989  -3.460  23.973  0.00  0.00    +0.113 C 
BRANCH  15  16
ATOM     16  C   UNL     1       6.462  -3.342  22.525  0.00  0.00    +0.214 C 
BRANCH  16  17
ATOM     17  C   UNL     1       5.721  -4.619  22.087  0.00  0.00    +0.265 C 
ATOM     18  N   UNL     1       4.743  -5.036  22.964  0.00  0.00    -0.195 N 
ATOM     19  H   UNL     1       4.867  -4.860  23.959  0.00  0.00    +0.182 HD
ATOM     20  O   UNL     1       5.934  -5.199  21.019  0.00  0.00    -0.271 OA
BRANCH  18  21
ATOM     21  O   UNL     1       4.134  -6.272  22.639  0.00  0.00    -0.295 OA
ATOM     22  H   UNL     1       3.187  -6.115  22.843  0.00  0.00    +0.241 HD
ENDBRANCH  18  21
ENDBRANCH  16  17
BRANCH  16  23
ATOM     23  O   UNL     1       5.702  -2.156  22.325  0.00  0.00    -0.382 OA
ATOM     24  H   UNL     1       5.598  -2.026  21.364  0.00  0.00    +0.210 HD
ENDBRANCH  16  23
ENDBRANCH  15  16
BRANCH  15  25
ATOM     25  C   UNL     1       8.121  -4.505  24.093  0.00  0.00    +0.018 C 
BRANCH  25  26
ATOM     26  C   UNL     1       8.127  -5.281  25.435  0.00  0.00    -0.016 C 
ATOM     27  C   UNL     1       6.704  -5.400  25.985  0.00  0.00    +0.007 C 
ATOM     28  C   UNL     1       9.031  -4.643  26.491  0.00  0.00    +0.007 C 
ENDBRANCH  25  26
ENDBRANCH  15  25
ENDBRANCH   3  15
TORSDOF 10
ENDMDL
MODEL 8
REMARK VINA RESULT:      -5.8      2.469      6.702
REMARK  Name = 
REMARK  16 active torsions:
REMARK  status: ('A' for Active; 'I' for Inactive)
REMARK    1  A    between atoms: C_1  and  N_2
REMARK    2  A    between atoms: C_3  and  C_5
REMARK    3  A    between atoms: C_5  and  N_7
REMARK    4  A    between atoms: C_5  and  C_23
REMARK    5  A    between atoms: C_8  and  C_10
REMARK    6  A    between atoms: C_10  and  C_12
REMARK    7  A    between atoms: C_10  and  C_16
REMARK    8  A    between atoms: C_12  and  C_13
REMARK    9  A    between atoms: C_13  and  C_14
REMARK   10  A    between atoms: C_13  and  C_15
REMARK   11  A    between atoms: C_16  and  O_18
REMARK   12  A    between atoms: C_16  and  C_19
REMARK   13  A    between atoms: N_21  and  O_22
REMARK   14  A    between atoms: C_23  and  C_24
REMARK   15  A    between atoms: C_23  and  C_25
REMARK   16  A    between atoms: C_23  and  C_26
REMARK                            x       y       z     vdW  Elec       q    Type
REMARK                         _______ _______ _______ _____ _____    ______ ____
ROOT
ATOM      1  N   UNL     1       8.149  -2.217  24.040  0.00  0.00    -0.303 N 
ATOM      2  H   UNL     1       7.416  -1.894  24.663  0.00  0.00    +0.149 HD
ATOM      3  C   UNL     1       8.743  -1.299  23.206  0.00  0.00    +0.220 C 
ATOM      4  O   UNL     1       9.509  -1.641  22.311  0.00  0.00    -0.275 OA
ENDROOT
BRANCH   1   5
ATOM      5  C   UNL     1       8.359  -3.671  23.939  0.00  0.00    +0.164 C 
BRANCH   5   9
ATOM      6  C   UNL     1       6.613  -6.288  21.750  0.00  0.00    +0.128 C 
ATOM      7  N   UNL     1       7.589  -5.539  22.496  0.00  0.00    -0.317 N 
ATOM      8  H   UNL     1       8.417  -6.008  22.865  0.00  0.00    +0.148 HD
ATOM      9  C   UNL     1       7.276  -4.292  23.003  0.00  0.00    +0.234 C 
ATOM     10  O   UNL     1       6.177  -3.780  22.786  0.00  0.00    -0.274 OA
ENDBRANCH   5   9
BRANCH   5  11
ATOM     11  C   UNL     1       8.447  -4.325  25.359  0.00  0.00    -0.011 C 
ATOM     12  C   UNL     1       7.206  -5.178  25.695  0.00  0.00    +0.013 C 
ATOM     13  C   UNL     1       8.572  -3.221  26.432  0.00  0.00    +0.013 C 
ATOM     14  C   UNL     1       9.716  -5.194  25.486  0.00  0.00    +0.013 C 
ENDBRANCH   5  11
ENDBRANCH   1   5
BRANCH   3  15
ATOM     15  C   UNL     1       8.312   0.147  23.463  0.00  0.00    +0.113 C 
BRANCH  15  16
ATOM     16  C   UNL     1       6.774   0.268  23.550  0.00  0.00    +0.214 C 
BRANCH  16  17
ATOM     17  C   UNL     1       6.298   1.690  23.201  0.00  0.00    +0.265 C 
ATOM     18  N   UNL     1       6.819   2.190  22.026  0.00  0.00    -0.195 N 
ATOM     19  H   UNL     1       7.754   1.904  21.743  0.00  0.00    +0.182 HD
ATOM     20  O   UNL     1       5.477   2.319  23.872  0.00  0.00    -0.271 OA
BRANCH  18  21
ATOM     21  O   UNL     1       6.488   3.538  21.750  0.00  0.00    -0.295 OA
ATOM     22  H   UNL     1       6.169   3.504  20.823  0.00  0.00    +0.241 HD
ENDBRANCH  18  21
ENDBRANCH  16  17
BRANCH  16  23
ATOM     23  O   UNL     1       6.113  -0.745  22.802  0.00  0.00    -0.382 OA
ATOM     24  H   UNL     1       6.760  -1.130  22.183  0.00  0.00    +0.210 HD
ENDBRANCH  16  23
ENDBRANCH  15  16
BRANCH  15  25
ATOM     25  C   UNL     1       9.010   0.715  24.720  0.00  0.00    +0.018 C 
BRANCH  25  26
ATOM     26  C   UNL     1      10.304   1.514  24.421  0.00  0.00    -0.016 C 
ATOM     27  C   UNL     1      10.250   2.100  23.009  0.00  0.00    +0.007 C 
ATOM     28  C   UNL     1      11.574   0.677  24.579  0.00  0.00    +0.007 C 
ENDBRANCH  25  26
ENDBRANCH  15  25
ENDBRANCH   3  15
TORSDOF 10
ENDMDL
MODEL 9
REMARK VINA RESULT:      -5.7      2.451      3.996
REMARK  Name = 
REMARK  16 active torsions:
REMARK  status: ('A' for Active; 'I' for Inactive)
REMARK    1  A    between atoms: C_1  and  N_2
REMARK    2  A    between atoms: C_3  and  C_5
REMARK    3  A    between atoms: C_5  and  N_7
REMARK    4  A    between atoms: C_5  and  C_23
REMARK    5  A    between atoms: C_8  and  C_10
REMARK    6  A    between atoms: C_10  and  C_12
REMARK    7  A    between atoms: C_10  and  C_16
REMARK    8  A    between atoms: C_12  and  C_13
REMARK    9  A    between atoms: C_13  and  C_14
REMARK   10  A    between atoms: C_13  and  C_15
REMARK   11  A    between atoms: C_16  and  O_18
REMARK   12  A    between atoms: C_16  and  C_19
REMARK   13  A    between atoms: N_21  and  O_22
REMARK   14  A    between atoms: C_23  and  C_24
REMARK   15  A    between atoms: C_23  and  C_25
REMARK   16  A    between atoms: C_23  and  C_26
REMARK                            x       y       z     vdW  Elec       q    Type
REMARK                         _______ _______ _______ _____ _____    ______ ____
ROOT
ATOM      1  N   UNL     1       8.222  -0.419  23.976  0.00  0.00    -0.303 N 
ATOM      2  H   UNL     1       7.522  -0.832  23.367  0.00  0.00    +0.149 HD
ATOM      3  C   UNL     1       8.618  -1.131  25.084  0.00  0.00    +0.220 C 
ATOM      4  O   UNL     1       9.326  -0.631  25.953  0.00  0.00    -0.275 OA
ENDROOT
BRANCH   1   5
ATOM      5  C   UNL     1       8.588   0.985  23.732  0.00  0.00    +0.164 C 
BRANCH   5   9
ATOM      6  C   UNL     1       5.053   2.010  24.799  0.00  0.00    +0.128 C 
ATOM      7  N   UNL     1       6.181   1.307  24.250  0.00  0.00    -0.317 N 
ATOM      8  H   UNL     1       6.144   0.293  24.138  0.00  0.00    +0.148 HD
ATOM      9  C   UNL     1       7.419   1.917  24.180  0.00  0.00    +0.234 C 
ATOM     10  O   UNL     1       7.569   3.085  24.541  0.00  0.00    -0.274 OA
ENDBRANCH   5   9
BRANCH   5  11
ATOM     11  C   UNL     1       9.057   1.194  22.252  0.00  0.00    -0.011 C 
ATOM     12  C   UNL     1       7.953   1.803  21.362  0.00  0.00    +0.013 C 
ATOM     13  C   UNL     1       9.465  -0.165  21.641  0.00  0.00    +0.013 C 
ATOM     14  C   UNL     1      10.313   2.087  22.193  0.00  0.00    +0.013 C 
ENDBRANCH   5  11
ENDBRANCH   1   5
BRANCH   3  15
ATOM     15  C   UNL     1       8.051  -2.551  25.149  0.00  0.00    +0.113 C 
BRANCH  15  16
ATOM     16  C   UNL     1       8.789  -3.496  24.175  0.00  0.00    +0.214 C 
BRANCH  16  17
ATOM     17  C   UNL     1       7.906  -3.869  22.969  0.00  0.00    +0.265 C 
ATOM     18  N   UNL     1       7.581  -5.207  22.897  0.00  0.00    -0.195 N 
ATOM     19  H   UNL     1       8.247  -5.894  23.247  0.00  0.00    +0.182 HD
ATOM     20  O   UNL     1       7.471  -3.045  22.162  0.00  0.00    -0.271 OA
BRANCH  18  21
ATOM     21  O   UNL     1       6.872  -5.589  21.733  0.00  0.00    -0.295 OA
ATOM     22  H   UNL     1       7.463  -6.255  21.321  0.00  0.00    +0.241 HD
ENDBRANCH  18  21
ENDBRANCH  16  17
BRANCH  16  23
ATOM     23  O   UNL     1      10.066  -2.992  23.801  0.00  0.00    -0.382 OA
ATOM     24  H   UNL     1      10.149  -3.076  22.833  0.00  0.00    +0.210 HD
ENDBRANCH  16  23
ENDBRANCH  15  16
BRANCH  15  25
ATOM     25  C   UNL     1       8.067  -3.086  26.599  0.00  0.00    +0.018 C 
BRANCH  25  26
ATOM     26  C   UNL     1       6.827  -3.935  26.976  0.00  0.00    -0.016 C 
ATOM     27  C   UNL     1       7.175  -5.425  26.947  0.00  0.00    +0.007 C 
ATOM     28  C   UNL     1       5.624  -3.674  26.066  0.00  0.00    +0.007 C 
ENDBRANCH  25  26
ENDBRANCH  15  25
ENDBRANCH   3  15
TORSDOF 10
ENDMDL
