MODEL 1
REMARK VINA RESULT:      -5.0      0.000      0.000
REMARK  Name = 
REMARK  5 active torsions:
REMARK  status: ('A' for Active; 'I' for Inactive)
REMARK    1  A    between atoms: N_1  and  CA_2
REMARK    2  A    between atoms: CA_2  and  C_4
REMARK    3  A    between atoms: CA_2  and  C_7
REMARK    4  A    between atoms: C_4  and  O_5
REMARK    5  A    between atoms: C_10  and  O_11
REMARK                            x       y       z     vdW  Elec       q    Type
REMARK                         _______ _______ _______ _____ _____    ______ ____
ROOT
ATOM      1  CA  UNL     1       8.905  -4.674  25.333  0.00  0.00    +0.191 C 
ENDROOT
BRANCH   1   2
ATOM      2  C   UNL     1       8.071  -4.461  24.078  0.00  0.00    -0.020 A 
ATOM      3  C   UNL     1       7.675  -5.524  23.251  0.00  0.00    +0.009 A 
ATOM      4  C   UNL     1       6.870  -5.297  22.134  0.00  0.00    +0.046 A 
ATOM      5  C   UNL     1       6.443  -4.008  21.840  0.00  0.00    +0.117 A 
ATOM      6  C   UNL     1       6.816  -2.937  22.641  0.00  0.00    +0.046 A 
ATOM      7  C   UNL     1       7.627  -3.163  23.758  0.00  0.00    +0.009 A 
BRANCH   5   8
ATOM      8  O   UNL     1       5.647  -3.837  20.748  0.00  0.00    -0.507 OA
ATOM      9  H   UNL     1       4.805  -4.298  20.896  0.00  0.00    +0.292 HD
ENDBRANCH   5   8
ENDBRANCH   1   2
BRANCH   1  10
ATOM     10  N   UNL     1       9.873  -5.783  25.182  0.00  0.00    -0.315 NA
ATOM     11  H1  UNL     1       9.598  -6.304  24.343  0.00  0.00    +0.119 HD
ATOM     12  H2  UNL     1      10.782  -5.394  24.935  0.00  0.00    +0.119 HD
ENDBRANCH   1  10
BRANCH   1  13
ATOM     13  C   UNL     1       8.095  -4.875  26.638  0.00  0.00    +0.326 C 
ATOM     14  OXT UNL     1       7.492  -3.952  27.181  0.00  0.00    -0.249 OA
BRANCH  13  15
ATOM     15  O   UNL     1       8.085  -6.117  27.171  0.00  0.00    -0.479 OA
ATOM     16  H   UNL     1       7.524  -6.766  26.703  0.00  0.00    +0.295 HD
ENDBRANCH  13  15
ENDBRANCH   1  13
TORSDOF 5
ENDMDL
MODEL 2
REMARK VINA RESULT:      -5.0      2.310      4.910
REMARK  Name = 
REMARK  5 active torsions:
REMARK  status: ('A' for Active; 'I' for Inactive)
REMARK    1  A    between atoms: N_1  and  CA_2
REMARK    2  A    between atoms: CA_2  and  C_4
REMARK    3  A    between atoms: CA_2  and  C_7
REMARK    4  A    between atoms: C_4  and  O_5
REMARK    5  A    between atoms: C_10  and  O_11
REMARK                            x       y       z     vdW  Elec       q    Type
REMARK                         _______ _______ _______ _____ _____    ______ ____
ROOT
ATOM      1  CA  UNL     1       6.449  -4.439  22.217  0.00  0.00    +0.191 C 
ENDROOT
BRANCH   1   2
ATOM      2  C   UNL     1       6.832  -4.752  23.656  0.00  0.00    -0.020 A 
ATOM      3  C   UNL     1       5.872  -5.000  24.650  0.00  0.00    +0.009 A 
ATOM      4  C   UNL     1       6.261  -5.332  25.949  0.00  0.00    +0.046 A 
ATOM      5  C   UNL     1       7.611  -5.433  26.263  0.00  0.00    +0.117 A 
ATOM      6  C   UNL     1       8.583  -5.197  25.300  0.00  0.00    +0.046 A 
ATOM      7  C   UNL     1       8.194  -4.858  23.999  0.00  0.00    +0.009 A 
BRANCH   5   8
ATOM      8  O   UNL     1       7.941  -5.773  27.540  0.00  0.00    -0.507 OA
ATOM      9  H   UNL     1       7.171  -6.184  27.966  0.00  0.00    +0.292 HD
ENDBRANCH   5   8
ENDBRANCH   1   2
BRANCH   1  10
ATOM     10  N   UNL     1       5.276  -3.540  22.132  0.00  0.00    -0.315 NA
ATOM     11  H1  UNL     1       5.631  -2.581  22.193  0.00  0.00    +0.119 HD
ATOM     12  H2  UNL     1       4.888  -3.594  21.191  0.00  0.00    +0.119 HD
ENDBRANCH   1  10
BRANCH   1  13
ATOM     13  C   UNL     1       6.215  -5.673  21.311  0.00  0.00    +0.326 C 
ATOM     14  OXT UNL     1       5.986  -5.566  20.108  0.00  0.00    -0.249 OA
BRANCH  13  15
ATOM     15  O   UNL     1       6.264  -6.888  21.901  0.00  0.00    -0.479 OA
ATOM     16  H   UNL     1       5.412  -7.217  22.248  0.00  0.00    +0.295 HD
ENDBRANCH  13  15
ENDBRANCH   1  13
TORSDOF 5
ENDMDL
MODEL 3
REMARK VINA RESULT:      -4.9      7.234      8.203
REMARK  Name = 
REMARK  5 active torsions:
REMARK  status: ('A' for Active; 'I' for Inactive)
REMARK    1  A    between atoms: N_1  and  CA_2
REMARK    2  A    between atoms: CA_2  and  C_4
REMARK    3  A    between atoms: CA_2  and  C_7
REMARK    4  A    between atoms: C_4  and  O_5
REMARK    5  A    between atoms: C_10  and  O_11
REMARK                            x       y       z     vdW  Elec       q    Type
REMARK                         _______ _______ _______ _____ _____    ______ ____
ROOT
ATOM      1  CA  UNL     1       9.815   3.639  23.686  0.00  0.00    +0.191 C 
ENDROOT
BRANCH   1   2
ATOM      2  C   UNL     1       9.972   2.199  23.218  0.00  0.00    -0.020 A 
ATOM      3  C   UNL     1      10.541   1.204  24.030  0.00  0.00    +0.009 A 
ATOM      4  C   UNL     1      10.624  -0.117  23.586  0.00  0.00    +0.046 A 
ATOM      5  C   UNL     1      10.128  -0.458  22.334  0.00  0.00    +0.117 A 
ATOM      6  C   UNL     1       9.556   0.503  21.511  0.00  0.00    +0.046 A 
ATOM      7  C   UNL     1       9.478   1.828  21.953  0.00  0.00    +0.009 A 
BRANCH   5   8
ATOM      8  O   UNL     1      10.219  -1.762  21.951  0.00  0.00    -0.507 OA
ATOM      9  H   UNL     1      11.155  -1.994  21.841  0.00  0.00    +0.292 HD
ENDBRANCH   5   8
ENDBRANCH   1   2
BRANCH   1  10
ATOM     10  N   UNL     1       8.580   4.265  23.165  0.00  0.00    -0.315 NA
ATOM     11  H1  UNL     1       8.460   3.933  22.203  0.00  0.00    +0.119 HD
ATOM     12  H2  UNL     1       7.779   3.870  23.657  0.00  0.00    +0.119 HD
ENDBRANCH   1  10
BRANCH   1  13
ATOM     13  C   UNL     1      11.022   4.564  23.391  0.00  0.00    +0.326 C 
ATOM     14  OXT UNL     1      12.181   4.158  23.431  0.00  0.00    -0.249 OA
BRANCH  13  15
ATOM     15  O   UNL     1      10.750   5.855  23.096  0.00  0.00    -0.479 OA
ATOM     16  H   UNL     1      10.105   6.290  23.686  0.00  0.00    +0.295 HD
ENDBRANCH  13  15
ENDBRANCH   1  13
TORSDOF 5
ENDMDL
MODEL 4
REMARK VINA RESULT:      -4.8      3.937      4.774
REMARK  Name = 
REMARK  5 active torsions:
REMARK  status: ('A' for Active; 'I' for Inactive)
REMARK    1  A    between atoms: N_1  and  CA_2
REMARK    2  A    between atoms: CA_2  and  C_4
REMARK    3  A    between atoms: CA_2  and  C_7
REMARK    4  A    between atoms: C_4  and  O_5
REMARK    5  A    between atoms: C_10  and  O_11
REMARK                            x       y       z     vdW  Elec       q    Type
REMARK                         _______ _______ _______ _____ _____    ______ ____
ROOT
ATOM      1  CA  UNL     1       8.995  -2.611  24.206  0.00  0.00    +0.191 C 
ENDROOT
BRANCH   1   2
ATOM      2  C   UNL     1       9.375  -1.332  23.474  0.00  0.00    -0.020 A 
ATOM      3  C   UNL     1       9.117  -1.145  22.107  0.00  0.00    +0.009 A 
ATOM      4  C   UNL     1       9.436   0.060  21.479  0.00  0.00    +0.046 A 
ATOM      5  C   UNL     1      10.003   1.094  22.214  0.00  0.00    +0.117 A 
ATOM      6  C   UNL     1      10.266   0.940  23.569  0.00  0.00    +0.046 A 
ATOM      7  C   UNL     1       9.952  -0.270  24.197  0.00  0.00    +0.009 A 
BRANCH   5   8
ATOM      8  O   UNL     1      10.283   2.256  21.562  0.00  0.00    -0.507 OA
ATOM      9  H   UNL     1       9.567   2.446  20.934  0.00  0.00    +0.292 HD
ENDBRANCH   5   8
ENDBRANCH   1   2
BRANCH   1  10
ATOM     10  N   UNL     1      10.082  -3.615  24.180  0.00  0.00    -0.315 NA
ATOM     11  H1  UNL     1       9.826  -4.348  24.849  0.00  0.00    +0.119 HD
ATOM     12  H2  UNL     1      10.064  -4.095  23.280  0.00  0.00    +0.119 HD
ENDBRANCH   1  10
BRANCH   1  13
ATOM     13  C   UNL     1       7.675  -3.273  23.740  0.00  0.00    +0.326 C 
ATOM     14  OXT UNL     1       7.662  -4.317  23.093  0.00  0.00    -0.249 OA
BRANCH  13  15
ATOM     15  O   UNL     1       6.523  -2.646  24.066  0.00  0.00    -0.479 OA
ATOM     16  H   UNL     1       5.930  -3.146  24.660  0.00  0.00    +0.295 HD
ENDBRANCH  13  15
ENDBRANCH   1  13
TORSDOF 5
ENDMDL
MODEL 5
REMARK VINA RESULT:      -4.7      5.409      6.991
REMARK  Name = 
REMARK  5 active torsions:
REMARK  status: ('A' for Active; 'I' for Inactive)
REMARK    1  A    between atoms: N_1  and  CA_2
REMARK    2  A    between atoms: CA_2  and  C_4
REMARK    3  A    between atoms: CA_2  and  C_7
REMARK    4  A    between atoms: C_4  and  O_5
REMARK    5  A    between atoms: C_10  and  O_11
REMARK                            x       y       z     vdW  Elec       q    Type
REMARK                         _______ _______ _______ _____ _____    ______ ____
ROOT
ATOM      1  CA  UNL     1       9.563   2.046  22.008  0.00  0.00    +0.191 C 
ENDROOT
BRANCH   1   2
ATOM      2  C   UNL     1       9.728   0.641  22.569  0.00  0.00    -0.020 A 
ATOM      3  C   UNL     1       9.853   0.393  23.945  0.00  0.00    +0.009 A 
ATOM      4  C   UNL     1       9.953  -0.913  24.428  0.00  0.00    +0.046 A 
ATOM      5  C   UNL     1       9.918  -1.983  23.541  0.00  0.00    +0.117 A 
ATOM      6  C   UNL     1       9.791  -1.768  22.175  0.00  0.00    +0.046 A 
ATOM      7  C   UNL     1       9.696  -0.459  21.691  0.00  0.00    +0.009 A 
BRANCH   5   8
ATOM      8  O   UNL     1      10.005  -3.239  24.060  0.00  0.00    -0.507 OA
ATOM      9  H   UNL     1       9.421  -3.829  23.557  0.00  0.00    +0.292 HD
ENDBRANCH   5   8
ENDBRANCH   1   2
BRANCH   1  10
ATOM     10  N   UNL     1      10.489   3.013  22.639  0.00  0.00    -0.315 NA
ATOM     11  H1  UNL     1      11.074   2.482  23.291  0.00  0.00    +0.119 HD
ATOM     12  H2  UNL     1      11.150   3.342  21.935  0.00  0.00    +0.119 HD
ENDBRANCH   1  10
BRANCH   1  13
ATOM     13  C   UNL     1       8.122   2.612  22.055  0.00  0.00    +0.326 C 
ATOM     14  OXT UNL     1       7.133   1.885  21.988  0.00  0.00    -0.249 OA
BRANCH  13  15
ATOM     15  O   UNL     1       7.990   3.953  22.162  0.00  0.00    -0.479 OA
ATOM     16  H   UNL     1       7.250   4.255  22.725  0.00  0.00    +0.295 HD
ENDBRANCH  13  15
ENDBRANCH   1  13
TORSDOF 5
ENDMDL
MODEL 6
REMARK VINA RESULT:      -4.7      4.824      5.698
REMARK  Name = 
REMARK  5 active torsions:
REMARK  status: ('A' for Active; 'I' for Inactive)
REMARK    1  A    between atoms: N_1  and  CA_2
REMARK    2  A    between atoms: CA_2  and  C_4
REMARK    3  A    between atoms: CA_2  and  C_7
REMARK    4  A    between atoms: C_4  and  O_5
REMARK    5  A    between atoms: C_10  and  O_11
REMARK                            x       y       z     vdW  Elec       q    Type
REMARK                         _______ _______ _______ _____ _____    ______ ____
ROOT
ATOM      1  CA  UNL     1       9.125  -2.013  22.753  0.00  0.00    +0.191 C 
ENDROOT
BRANCH   1   2
ATOM      2  C   UNL     1       9.544  -0.555  22.866  0.00  0.00    -0.020 A 
ATOM      3  C   UNL     1      10.197  -0.047  24.001  0.00  0.00    +0.009 A 
ATOM      4  C   UNL     1      10.610   1.285  24.049  0.00  0.00    +0.046 A 
ATOM      5  C   UNL     1      10.387   2.119  22.961  0.00  0.00    +0.117 A 
ATOM      6  C   UNL     1       9.747   1.644  21.823  0.00  0.00    +0.046 A 
ATOM      7  C   UNL     1       9.327   0.311  21.776  0.00  0.00    +0.009 A 
BRANCH   5   8
ATOM      8  O   UNL     1      10.821   3.407  23.049  0.00  0.00    -0.507 OA
ATOM      9  H   UNL     1      10.060   4.003  22.951  0.00  0.00    +0.292 HD
ENDBRANCH   5   8
ENDBRANCH   1   2
BRANCH   1  10
ATOM     10  N   UNL     1       7.767  -2.163  22.182  0.00  0.00    -0.315 NA
ATOM     11  H1  UNL     1       7.442  -1.222  21.939  0.00  0.00    +0.119 HD
ATOM     12  H2  UNL     1       7.840  -2.633  21.280  0.00  0.00    +0.119 HD
ENDBRANCH   1  10
BRANCH   1  13
ATOM     13  C   UNL     1       9.222  -2.833  24.064  0.00  0.00    +0.326 C 
ATOM     14  OXT UNL     1      10.144  -3.617  24.275  0.00  0.00    -0.249 OA
BRANCH  13  15
ATOM     15  O   UNL     1       8.238  -2.658  24.974  0.00  0.00    -0.479 OA
ATOM     16  H   UNL     1       8.535  -2.363  25.857  0.00  0.00    +0.295 HD
ENDBRANCH  13  15
ENDBRANCH   1  13
TORSDOF 5
ENDMDL
MODEL 7
REMARK VINA RESULT:      -4.7      1.808      4.702
REMARK  Name = 
REMARK  5 active torsions:
REMARK  status: ('A' for Active; 'I' for Inactive)
REMARK    1  A    between atoms: N_1  and  CA_2
REMARK    2  A    between atoms: CA_2  and  C_4
REMARK    3  A    between atoms: CA_2  and  C_7
REMARK    4  A    between atoms: C_4  and  O_5
REMARK    5  A    between atoms: C_10  and  O_11
REMARK                            x       y       z     vdW  Elec       q    Type
REMARK                         _______ _______ _______ _____ _____    ______ ____
ROOT
ATOM      1  CA  UNL     1       7.621  -3.492  22.613  0.00  0.00    +0.191 C 
ENDROOT
BRANCH   1   2
ATOM      2  C   UNL     1       7.688  -4.189  23.965  0.00  0.00    -0.020 A 
ATOM      3  C   UNL     1       8.850  -4.187  24.753  0.00  0.00    +0.009 A 
ATOM      4  C   UNL     1       8.861  -4.795  26.009  0.00  0.00    +0.046 A 
ATOM      5  C   UNL     1       7.708  -5.400  26.495  0.00  0.00    +0.117 A 
ATOM      6  C   UNL     1       6.542  -5.415  25.739  0.00  0.00    +0.046 A 
ATOM      7  C   UNL     1       6.533  -4.810  24.478  0.00  0.00    +0.009 A 
BRANCH   5   8
ATOM      8  O   UNL     1       7.762  -5.968  27.731  0.00  0.00    -0.507 OA
ATOM      9  H   UNL     1       6.997  -5.669  28.249  0.00  0.00    +0.292 HD
ENDBRANCH   5   8
ENDBRANCH   1   2
BRANCH   1  10
ATOM     10  N   UNL     1       8.652  -2.440  22.474  0.00  0.00    -0.315 NA
ATOM     11  H1  UNL     1       9.151  -2.627  21.599  0.00  0.00    +0.119 HD
ATOM     12  H2  UNL     1       8.189  -1.548  22.300  0.00  0.00    +0.119 HD
ENDBRANCH   1  10
BRANCH   1  13
ATOM     13  C   UNL     1       6.237  -2.906  22.240  0.00  0.00    +0.326 C 
ATOM     14  OXT UNL     1       5.493  -3.454  21.430  0.00  0.00    -0.249 OA
BRANCH  13  15
ATOM     15  O   UNL     1       5.876  -1.749  22.839  0.00  0.00    -0.479 OA
ATOM     16  H   UNL     1       5.556  -1.050  22.236  0.00  0.00    +0.295 HD
ENDBRANCH  13  15
ENDBRANCH   1  13
TORSDOF 5
ENDMDL
MODEL 8
REMARK VINA RESULT:      -4.7      2.794      4.895
REMARK  Name = 
REMARK  5 active torsions:
REMARK  status: ('A' for Active; 'I' for Inactive)
REMARK    1  A    between atoms: N_1  and  CA_2
REMARK    2  A    between atoms: CA_2  and  C_4
REMARK    3  A    between atoms: CA_2  and  C_7
REMARK    4  A    between atoms: C_4  and  O_5
REMARK    5  A    between atoms: C_10  and  O_11
REMARK                            x       y       z     vdW  Elec       q    Type
REMARK                         _______ _______ _______ _____ _____    ______ ____
ROOT
ATOM      1  CA  UNL     1       9.543  -1.741  23.930  0.00  0.00    +0.191 C 
ENDROOT
BRANCH   1   2
ATOM      2  C   UNL     1       9.073  -2.871  24.835  0.00  0.00    -0.020 A 
ATOM      3  C   UNL     1       9.616  -4.164  24.765  0.00  0.00    +0.009 A 
ATOM      4  C   UNL     1       9.195  -5.162  25.645  0.00  0.00    +0.046 A 
ATOM      5  C   UNL     1       8.238  -4.875  26.610  0.00  0.00    +0.117 A 
ATOM      6  C   UNL     1       7.686  -3.605  26.706  0.00  0.00    +0.046 A 
ATOM      7  C   UNL     1       8.103  -2.605  25.821  0.00  0.00    +0.009 A 
BRANCH   5   8
ATOM      8  O   UNL     1       7.869  -5.878  27.455  0.00  0.00    -0.507 OA
ATOM      9  H   UNL     1       7.113  -6.351  27.072  0.00  0.00    +0.292 HD
ENDBRANCH   5   8
ENDBRANCH   1   2
BRANCH   1  10
ATOM     10  N   UNL     1       9.077  -0.417  24.399  0.00  0.00    -0.315 NA
ATOM     11  H1  UNL     1       9.408   0.273  23.717  0.00  0.00    +0.119 HD
ATOM     12  H2  UNL     1       8.062  -0.375  24.309  0.00  0.00    +0.119 HD
ENDBRANCH   1  10
BRANCH   1  13
ATOM     13  C   UNL     1       9.191  -1.906  22.430  0.00  0.00    +0.326 C 
ATOM     14  OXT UNL     1       8.088  -2.297  22.058  0.00  0.00    -0.249 OA
BRANCH  13  15
ATOM     15  O   UNL     1      10.159  -1.610  21.535  0.00  0.00    -0.479 OA
ATOM     16  H   UNL     1      10.711  -2.365  21.253  0.00  0.00    +0.295 HD
ENDBRANCH  13  15
ENDBRANCH   1  13
TORSDOF 5
ENDMDL
MODEL 9
REMARK VINA RESULT:      -4.6      2.508      2.968
REMARK  Name = 
REMARK  5 active torsions:
REMARK  status: ('A' for Active; 'I' for Inactive)
REMARK    1  A    between atoms: N_1  and  CA_2
REMARK    2  A    between atoms: CA_2  and  C_4
REMARK    3  A    between atoms: CA_2  and  C_7
REMARK    4  A    between atoms: C_4  and  O_5
REMARK    5  A    between atoms: C_10  and  O_11
REMARK                            x       y       z     vdW  Elec       q    Type
REMARK                         _______ _______ _______ _____ _____    ______ ____
ROOT
ATOM      1  CA  UNL     1       7.877  -4.732  24.738  0.00  0.00    +0.191 C 
ENDROOT
BRANCH   1   2
ATOM      2  C   UNL     1       8.417  -3.600  23.877  0.00  0.00    -0.020 A 
ATOM      3  C   UNL     1       9.654  -2.987  24.133  0.00  0.00    +0.009 A 
ATOM      4  C   UNL     1      10.140  -1.984  23.293  0.00  0.00    +0.046 A 
ATOM      5  C   UNL     1       9.401  -1.593  22.183  0.00  0.00    +0.117 A 
ATOM      6  C   UNL     1       8.176  -2.184  21.902  0.00  0.00    +0.046 A 
ATOM      7  C   UNL     1       7.686  -3.185  22.747  0.00  0.00    +0.009 A 
BRANCH   5   8
ATOM      8  O   UNL     1       9.922  -0.620  21.384  0.00  0.00    -0.507 OA
ATOM      9  H   UNL     1      10.698  -0.235  21.823  0.00  0.00    +0.292 HD
ENDBRANCH   5   8
ENDBRANCH   1   2
BRANCH   1  10
ATOM     10  N   UNL     1       6.527  -4.438  25.270  0.00  0.00    -0.315 NA
ATOM     11  H1  UNL     1       6.016  -3.949  24.528  0.00  0.00    +0.119 HD
ATOM     12  H2  UNL     1       6.017  -5.314  25.375  0.00  0.00    +0.119 HD
ENDBRANCH   1  10
BRANCH   1  13
ATOM     13  C   UNL     1       8.799  -5.176  25.901  0.00  0.00    +0.326 C 
ATOM     14  OXT UNL     1       8.654  -4.755  27.046  0.00  0.00    -0.249 OA
BRANCH  13  15
ATOM     15  O   UNL     1       9.789  -6.048  25.604  0.00  0.00    -0.479 OA
ATOM     16  H   UNL     1       9.507  -6.851  25.124  0.00  0.00    +0.295 HD
ENDBRANCH  13  15
ENDBRANCH   1  13
TORSDOF 5
ENDMDL
