MODEL 1
REMARK VINA RESULT:      -8.3      0.000      0.000
REMARK  Name = 
REMARK  11 active torsions:
REMARK  status: ('A' for Active; 'I' for Inactive)
REMARK    1  A    between atoms: C_9  and  C_11
REMARK    2  A    between atoms: C_13  and  O_14
REMARK    3  A    between atoms: O_14  and  C_15
REMARK    4  A    between atoms: C_16  and  O_17
REMARK    5  A    between atoms: C_18  and  O_19
REMARK    6  A    between atoms: O_19  and  C_20
REMARK    7  A    between atoms: C_31  and  O_33
REMARK    8  A    between atoms: O_33  and  C_34
REMARK    9  A    between atoms: C_41  and  C_51
REMARK   10  A    between atoms: C_45  and  O_47
REMARK   11  A    between atoms: C_48  and  O_50
REMARK                            x       y       z     vdW  Elec       q    Type
REMARK                         _______ _______ _______ _____ _____    ______ ____
ROOT
ATOM      1  C   UNL     1       8.390  -2.107  24.423  0.00  0.00    +0.075 C 
ATOM      2  C   UNL     1       8.154  -0.629  24.650  0.00  0.00    +0.159 C 
ATOM      3  C   UNL     1       6.864  -0.425  25.428  0.00  0.00    -0.011 A 
ATOM      4  C   UNL     1       6.298  -1.460  26.230  0.00  0.00    -0.030 A 
ATOM      5  C   UNL     1       5.084  -1.213  26.904  0.00  0.00    +0.054 A 
ATOM      6  C   UNL     1       4.455  -0.000  26.710  0.00  0.00    +0.167 A 
ATOM      7  O   UNL     1       3.257   0.368  27.242  0.00  0.00    -0.453 OA
ATOM      8  C   UNL     1       3.052   1.639  26.592  0.00  0.00    +0.466 C 
ATOM      9  O   UNL     1       4.186   2.070  25.811  0.00  0.00    -0.453 OA
ATOM     10  C   UNL     1       4.986   0.977  25.905  0.00  0.00    +0.167 A 
ATOM     11  C   UNL     1       6.933  -2.862  26.347  0.00  0.00    +0.064 C 
ATOM     12  C   UNL     1       6.193   0.801  25.268  0.00  0.00    +0.056 A 
ATOM     13  C   UNL     1       8.337  -2.895  25.713  0.00  0.00    +0.118 C 
ATOM     14  C   UNL     1       8.978  -4.184  25.270  0.00  0.00    +0.312 C 
ATOM     15  O   UNL     1       8.964  -5.248  25.864  0.00  0.00    -0.250 OA
ATOM     16  O   UNL     1       9.735  -3.951  24.145  0.00  0.00    -0.464 OA
ATOM     17  C   UNL     1       9.671  -2.562  23.791  0.00  0.00    +0.239 C 
ENDROOT
BRANCH  11  18
ATOM     18  C   UNL     1       6.059  -3.990  25.820  0.00  0.00    -0.032 A 
ATOM     19  C   UNL     1       5.662  -4.059  24.483  0.00  0.00    +0.054 A 
ATOM     20  C   UNL     1       5.166  -5.251  23.948  0.00  0.00    +0.165 A 
ATOM     21  C   UNL     1       5.003  -6.376  24.785  0.00  0.00    +0.201 A 
ATOM     22  C   UNL     1       5.265  -6.285  26.156  0.00  0.00    +0.165 A 
ATOM     23  C   UNL     1       5.786  -5.084  26.653  0.00  0.00    +0.054 A 
BRANCH  20  24
ATOM     24  O   UNL     1       4.834  -5.410  22.623  0.00  0.00    -0.491 OA
ATOM     25  C   UNL     1       5.909  -5.500  21.693  0.00  0.00    +0.277 C 
ENDBRANCH  20  24
BRANCH  21  26
ATOM     26  O   UNL     1       4.603  -7.539  24.179  0.00  0.00    -0.501 OA
ATOM     27  H   UNL     1       4.027  -8.001  24.801  0.00  0.00    +0.292 HD
ENDBRANCH  21  26
BRANCH  22  28
ATOM     28  O   UNL     1       5.122  -7.214  27.147  0.00  0.00    -0.491 OA
ATOM     29  C   UNL     1       4.453  -6.894  28.352  0.00  0.00    +0.277 C 
ENDBRANCH  22  28
ENDBRANCH  11  18
BRANCH   2  30
ATOM     30  O   UNL     1       9.239   0.168  25.084  0.00  0.00    -0.340 OA
BRANCH  30  31
ATOM     31  C   UNL     1       9.571   1.457  24.557  0.00  0.00    +0.282 C 
ATOM     32  C   UNL     1       9.192   1.344  23.049  0.00  0.00    +0.201 C 
ATOM     33  C   UNL     1       8.887   2.672  22.350  0.00  0.00    +0.179 C 
ATOM     34  C   UNL     1       8.141   3.634  23.262  0.00  0.00    +0.184 C 
ATOM     35  C   UNL     1       8.939   3.765  24.549  0.00  0.00    +0.178 C 
ATOM     36  C   UNL     1       8.325   4.896  25.370  0.00  0.00    +0.197 C 
ATOM     37  O   UNL     1       8.167   6.087  24.603  0.00  0.00    -0.344 OA
ATOM     38  C   UNL     1       7.461   5.916  23.373  0.00  0.00    +0.289 C 
ATOM     39  O   UNL     1       8.016   4.874  22.566  0.00  0.00    -0.338 OA
ATOM     40  O   UNL     1       8.911   2.517  25.252  0.00  0.00    -0.340 OA
BRANCH  38  41
ATOM     41  C   UNL     1       5.973   5.722  23.554  0.00  0.00    +0.045 A 
ATOM     42  S   UNL     1       5.072   6.716  24.631  0.00  0.00    -0.097 S 
ATOM     43  C   UNL     1       3.604   5.930  24.250  0.00  0.00    +0.045 A 
ATOM     44  C   UNL     1       3.771   4.960  23.289  0.00  0.00    +0.008 A 
ATOM     45  C   UNL     1       5.129   4.856  22.874  0.00  0.00    +0.016 A 
ENDBRANCH  38  41
BRANCH  32  46
ATOM     46  O   UNL     1      10.257   0.656  22.349  0.00  0.00    -0.384 OA
ATOM     47  H   UNL     1       9.964   0.468  21.441  0.00  0.00    +0.210 HD
ENDBRANCH  32  46
BRANCH  33  48
ATOM     48  O   UNL     1       8.098   2.431  21.173  0.00  0.00    -0.386 OA
ATOM     49  H   UNL     1       8.729   2.306  20.440  0.00  0.00    +0.210 HD
ENDBRANCH  33  48
ENDBRANCH  30  31
ENDBRANCH   2  30
TORSDOF 9
ENDMDL
MODEL 2
REMARK VINA RESULT:      -8.2      1.229      2.390
REMARK  Name = 
REMARK  11 active torsions:
REMARK  status: ('A' for Active; 'I' for Inactive)
REMARK    1  A    between atoms: C_9  and  C_11
REMARK    2  A    between atoms: C_13  and  O_14
REMARK    3  A    between atoms: O_14  and  C_15
REMARK    4  A    between atoms: C_16  and  O_17
REMARK    5  A    between atoms: C_18  and  O_19
REMARK    6  A    between atoms: O_19  and  C_20
REMARK    7  A    between atoms: C_31  and  O_33
REMARK    8  A    between atoms: O_33  and  C_34
REMARK    9  A    between atoms: C_41  and  C_51
REMARK   10  A    between atoms: C_45  and  O_47
REMARK   11  A    between atoms: C_48  and  O_50
REMARK                            x       y       z     vdW  Elec       q    Type
REMARK                         _______ _______ _______ _____ _____    ______ ____
ROOT
ATOM      1  C   UNL     1       8.710  -1.122  23.654  0.00  0.00    +0.075 C 
ATOM      2  C   UNL     1       8.245   0.251  24.092  0.00  0.00    +0.159 C 
ATOM      3  C   UNL     1       7.118   0.116  25.104  0.00  0.00    -0.011 A 
ATOM      4  C   UNL     1       6.929  -1.076  25.863  0.00  0.00    -0.030 A 
ATOM      5  C   UNL     1       5.846  -1.145  26.764  0.00  0.00    +0.054 A 
ATOM      6  C   UNL     1       4.971  -0.080  26.830  0.00  0.00    +0.167 A 
ATOM      7  O   UNL     1       3.853  -0.015  27.603  0.00  0.00    -0.453 OA
ATOM      8  C   UNL     1       3.286   1.232  27.155  0.00  0.00    +0.466 C 
ATOM      9  O   UNL     1       4.141   1.953  26.245  0.00  0.00    -0.453 OA
ATOM     10  C   UNL     1       5.138   1.049  26.066  0.00  0.00    +0.167 A 
ATOM     11  C   UNL     1       7.830  -2.319  25.700  0.00  0.00    +0.064 C 
ATOM     12  C   UNL     1       6.207   1.183  25.211  0.00  0.00    +0.056 A 
ATOM     13  C   UNL     1       9.063  -2.005  24.829  0.00  0.00    +0.118 C 
ATOM     14  C   UNL     1       9.838  -3.090  24.130  0.00  0.00    +0.312 C 
ATOM     15  O   UNL     1      10.145  -4.178  24.587  0.00  0.00    -0.250 OA
ATOM     16  O   UNL     1      10.301  -2.614  22.926  0.00  0.00    -0.464 OA
ATOM     17  C   UNL     1       9.906  -1.245  22.757  0.00  0.00    +0.239 C 
ENDROOT
BRANCH  11  18
ATOM     18  C   UNL     1       7.102  -3.559  25.203  0.00  0.00    -0.032 A 
ATOM     19  C   UNL     1       6.890  -4.673  26.018  0.00  0.00    +0.054 A 
ATOM     20  C   UNL     1       5.941  -5.638  25.673  0.00  0.00    +0.165 A 
ATOM     21  C   UNL     1       5.238  -5.519  24.454  0.00  0.00    +0.201 A 
ATOM     22  C   UNL     1       5.535  -4.485  23.560  0.00  0.00    +0.165 A 
ATOM     23  C   UNL     1       6.472  -3.521  23.951  0.00  0.00    +0.054 A 
BRANCH  20  24
ATOM     24  O   UNL     1       5.626  -6.714  26.468  0.00  0.00    -0.491 OA
ATOM     25  C   UNL     1       4.985  -6.435  27.710  0.00  0.00    +0.277 C 
ENDBRANCH  20  24
BRANCH  21  26
ATOM     26  O   UNL     1       4.255  -6.446  24.220  0.00  0.00    -0.501 OA
ATOM     27  H   UNL     1       3.435  -5.959  24.066  0.00  0.00    +0.292 HD
ENDBRANCH  21  26
BRANCH  22  28
ATOM     28  O   UNL     1       5.032  -4.216  22.320  0.00  0.00    -0.491 OA
ATOM     29  C   UNL     1       5.719  -3.362  21.425  0.00  0.00    +0.277 C 
ENDBRANCH  22  28
ENDBRANCH  11  18
BRANCH   2  30
ATOM     30  O   UNL     1       9.222   1.220  24.421  0.00  0.00    -0.340 OA
BRANCH  30  31
ATOM     31  C   UNL     1       9.159   2.603  24.055  0.00  0.00    +0.282 C 
ATOM     32  C   UNL     1       8.278   2.601  22.769  0.00  0.00    +0.201 C 
ATOM     33  C   UNL     1       7.561   3.920  22.466  0.00  0.00    +0.179 C 
ATOM     34  C   UNL     1       7.071   4.603  23.734  0.00  0.00    +0.184 C 
ATOM     35  C   UNL     1       8.256   4.729  24.678  0.00  0.00    +0.178 C 
ATOM     36  C   UNL     1       7.832   5.613  25.849  0.00  0.00    +0.197 C 
ATOM     37  O   UNL     1       7.243   6.835  25.409  0.00  0.00    -0.344 OA
ATOM     38  C   UNL     1       6.170   6.680  24.478  0.00  0.00    +0.289 C 
ATOM     39  O   UNL     1       6.533   5.870  23.357  0.00  0.00    -0.338 OA
ATOM     40  O   UNL     1       8.656   3.424  25.112  0.00  0.00    -0.340 OA
BRANCH  38  41
ATOM     41  C   UNL     1       4.892   6.182  25.112  0.00  0.00    +0.045 A 
ATOM     42  S   UNL     1       4.406   6.718  26.673  0.00  0.00    -0.097 S 
ATOM     43  C   UNL     1       2.972   5.788  26.629  0.00  0.00    +0.045 A 
ATOM     44  C   UNL     1       2.829   5.116  25.438  0.00  0.00    +0.008 A 
ATOM     45  C   UNL     1       3.920   5.360  24.559  0.00  0.00    +0.016 A 
ENDBRANCH  38  41
BRANCH  32  46
ATOM     46  O   UNL     1       9.101   2.222  21.639  0.00  0.00    -0.384 OA
ATOM     47  H   UNL     1       8.660   2.509  20.821  0.00  0.00    +0.210 HD
ENDBRANCH  32  46
BRANCH  33  48
ATOM     48  O   UNL     1       6.440   3.675  21.601  0.00  0.00    -0.386 OA
ATOM     49  H   UNL     1       6.727   3.923  20.702  0.00  0.00    +0.210 HD
ENDBRANCH  33  48
ENDBRANCH  30  31
ENDBRANCH   2  30
TORSDOF 9
ENDMDL
MODEL 3
REMARK VINA RESULT:      -7.5      2.685      9.289
REMARK  Name = 
REMARK  11 active torsions:
REMARK  status: ('A' for Active; 'I' for Inactive)
REMARK    1  A    between atoms: C_9  and  C_11
REMARK    2  A    between atoms: C_13  and  O_14
REMARK    3  A    between atoms: O_14  and  C_15
REMARK    4  A    between atoms: C_16  and  O_17
REMARK    5  A    between atoms: C_18  and  O_19
REMARK    6  A    between atoms: O_19  and  C_20
REMARK    7  A    between atoms: C_31  and  O_33
REMARK    8  A    between atoms: O_33  and  C_34
REMARK    9  A    between atoms: C_41  and  C_51
REMARK   10  A    between atoms: C_45  and  O_47
REMARK   11  A    between atoms: C_48  and  O_50
REMARK                            x       y       z     vdW  Elec       q    Type
REMARK                         _______ _______ _______ _____ _____    ______ ____
ROOT
ATOM      1  C   UNL     1       5.263   1.781  26.469  0.00  0.00    +0.075 C 
ATOM      2  C   UNL     1       5.696   0.330  26.452  0.00  0.00    +0.159 C 
ATOM      3  C   UNL     1       7.010   0.191  25.699  0.00  0.00    -0.011 A 
ATOM      4  C   UNL     1       7.895   1.296  25.524  0.00  0.00    -0.030 A 
ATOM      5  C   UNL     1       9.085   1.105  24.790  0.00  0.00    +0.054 A 
ATOM      6  C   UNL     1       9.317  -0.127  24.214  0.00  0.00    +0.167 A 
ATOM      7  O   UNL     1      10.384  -0.453  23.435  0.00  0.00    -0.453 OA
ATOM      8  C   UNL     1      10.019  -1.784  23.018  0.00  0.00    +0.466 C 
ATOM      9  O   UNL     1       8.831  -2.279  23.669  0.00  0.00    -0.453 OA
ATOM     10  C   UNL     1       8.440  -1.174  24.355  0.00  0.00    +0.167 A 
ATOM     11  C   UNL     1       7.579   2.709  26.058  0.00  0.00    +0.064 C 
ATOM     12  C   UNL     1       7.292  -1.051  25.103  0.00  0.00    +0.056 A 
ATOM     13  C   UNL     1       6.351   2.693  26.990  0.00  0.00    +0.118 C 
ATOM     14  C   UNL     1       5.550   3.937  27.269  0.00  0.00    +0.312 C 
ATOM     15  O   UNL     1       5.988   5.055  27.479  0.00  0.00    -0.250 OA
ATOM     16  O   UNL     1       4.224   3.601  27.414  0.00  0.00    -0.464 OA
ATOM     17  C   UNL     1       4.061   2.183  27.269  0.00  0.00    +0.239 C 
ENDROOT
BRANCH  11  18
ATOM     18  C   UNL     1       7.441   3.770  24.976  0.00  0.00    -0.032 A 
ATOM     19  C   UNL     1       8.409   4.755  24.773  0.00  0.00    +0.054 A 
ATOM     20  C   UNL     1       8.441   5.489  23.585  0.00  0.00    +0.165 A 
ATOM     21  C   UNL     1       7.442   5.279  22.610  0.00  0.00    +0.201 A 
ATOM     22  C   UNL     1       6.385   4.395  22.854  0.00  0.00    +0.165 A 
ATOM     23  C   UNL     1       6.400   3.657  24.044  0.00  0.00    +0.054 A 
BRANCH  20  24
ATOM     24  O   UNL     1       9.413   6.413  23.287  0.00  0.00    -0.491 OA
ATOM     25  C   UNL     1      10.746   6.101  23.682  0.00  0.00    +0.277 C 
ENDBRANCH  20  24
BRANCH  21  26
ATOM     26  O   UNL     1       7.584   5.960  21.429  0.00  0.00    -0.501 OA
ATOM     27  H   UNL     1       8.479   5.790  21.106  0.00  0.00    +0.292 HD
ENDBRANCH  21  26
BRANCH  22  28
ATOM     28  O   UNL     1       5.296   4.087  22.091  0.00  0.00    -0.491 OA
ATOM     29  C   UNL     1       4.179   3.423  22.651  0.00  0.00    +0.277 C 
ENDBRANCH  22  28
ENDBRANCH  11  18
BRANCH   2  30
ATOM     30  O   UNL     1       5.624  -0.409  27.657  0.00  0.00    -0.340 OA
BRANCH  30  31
ATOM     31  C   UNL     1       5.116  -1.742  27.771  0.00  0.00    +0.282 C 
ATOM     32  C   UNL     1       3.818  -1.713  26.907  0.00  0.00    +0.201 C 
ATOM     33  C   UNL     1       3.365  -3.071  26.363  0.00  0.00    +0.179 C 
ATOM     34  C   UNL     1       4.545  -3.940  25.953  0.00  0.00    +0.184 C 
ATOM     35  C   UNL     1       5.495  -4.018  27.136  0.00  0.00    +0.178 C 
ATOM     36  C   UNL     1       6.558  -5.066  26.817  0.00  0.00    +0.197 C 
ATOM     37  O   UNL     1       5.981  -6.298  26.390  0.00  0.00    -0.344 OA
ATOM     38  C   UNL     1       5.050  -6.180  25.314  0.00  0.00    +0.289 C 
ATOM     39  O   UNL     1       4.026  -5.217  25.581  0.00  0.00    -0.338 OA
ATOM     40  O   UNL     1       6.070  -2.726  27.366  0.00  0.00    -0.340 OA
BRANCH  38  41
ATOM     41  C   UNL     1       5.704  -5.914  23.978  0.00  0.00    +0.045 A 
ATOM     42  S   UNL     1       4.778  -5.867  22.528  0.00  0.00    -0.097 S 
ATOM     43  C   UNL     1       6.151  -5.511  21.574  0.00  0.00    +0.045 A 
ATOM     44  C   UNL     1       7.290  -5.381  22.334  0.00  0.00    +0.008 A 
ATOM     45  C   UNL     1       7.028  -5.591  23.717  0.00  0.00    +0.016 A 
ENDBRANCH  38  41
BRANCH  32  46
ATOM     46  O   UNL     1       2.752  -1.117  27.685  0.00  0.00    -0.384 OA
ATOM     47  H   UNL     1       2.303  -1.819  28.189  0.00  0.00    +0.210 HD
ENDBRANCH  32  46
BRANCH  33  48
ATOM     48  O   UNL     1       2.506  -2.877  25.227  0.00  0.00    -0.386 OA
ATOM     49  H   UNL     1       1.986  -3.697  25.133  0.00  0.00    +0.210 HD
ENDBRANCH  33  48
ENDBRANCH  30  31
ENDBRANCH   2  30
TORSDOF 9
ENDMDL
MODEL 4
REMARK VINA RESULT:      -7.4      2.151      4.746
REMARK  Name = 
REMARK  11 active torsions:
REMARK  status: ('A' for Active; 'I' for Inactive)
REMARK    1  A    between atoms: C_9  and  C_11
REMARK    2  A    between atoms: C_13  and  O_14
REMARK    3  A    between atoms: O_14  and  C_15
REMARK    4  A    between atoms: C_16  and  O_17
REMARK    5  A    between atoms: C_18  and  O_19
REMARK    6  A    between atoms: O_19  and  C_20
REMARK    7  A    between atoms: C_31  and  O_33
REMARK    8  A    between atoms: O_33  and  C_34
REMARK    9  A    between atoms: C_41  and  C_51
REMARK   10  A    between atoms: C_45  and  O_47
REMARK   11  A    between atoms: C_48  and  O_50
REMARK                            x       y       z     vdW  Elec       q    Type
REMARK                         _______ _______ _______ _____ _____    ______ ____
ROOT
ATOM      1  C   UNL     1       5.824  -1.115  27.323  0.00  0.00    +0.075 C 
ATOM      2  C   UNL     1       7.065  -0.320  26.977  0.00  0.00    +0.159 C 
ATOM      3  C   UNL     1       7.566  -0.718  25.597  0.00  0.00    -0.011 A 
ATOM      4  C   UNL     1       6.708  -1.329  24.635  0.00  0.00    -0.030 A 
ATOM      5  C   UNL     1       7.245  -1.699  23.383  0.00  0.00    +0.054 A 
ATOM      6  C   UNL     1       8.594  -1.515  23.161  0.00  0.00    +0.167 A 
ATOM      7  O   UNL     1       9.270  -1.870  22.035  0.00  0.00    -0.453 OA
ATOM      8  C   UNL     1      10.626  -1.576  22.428  0.00  0.00    +0.466 C 
ATOM      9  O   UNL     1      10.717  -0.919  23.709  0.00  0.00    -0.453 OA
ATOM     10  C   UNL     1       9.420  -0.963  24.109  0.00  0.00    +0.167 A 
ATOM     11  C   UNL     1       5.227  -1.652  24.926  0.00  0.00    +0.064 C 
ATOM     12  C   UNL     1       8.934  -0.540  25.324  0.00  0.00    +0.056 A 
ATOM     13  C   UNL     1       4.765  -1.012  26.249  0.00  0.00    +0.118 C 
ATOM     14  C   UNL     1       3.565  -1.524  27.001  0.00  0.00    +0.312 C 
ATOM     15  O   UNL     1       2.499  -1.873  26.525  0.00  0.00    -0.250 OA
ATOM     16  O   UNL     1       3.787  -1.394  28.353  0.00  0.00    -0.464 OA
ATOM     17  C   UNL     1       5.072  -0.800  28.582  0.00  0.00    +0.239 C 
ENDROOT
BRANCH  11  18
ATOM     18  C   UNL     1       4.891  -3.135  24.879  0.00  0.00    -0.032 A 
ATOM     19  C   UNL     1       3.972  -3.661  23.968  0.00  0.00    +0.054 A 
ATOM     20  C   UNL     1       3.933  -5.033  23.707  0.00  0.00    +0.165 A 
ATOM     21  C   UNL     1       4.785  -5.902  24.421  0.00  0.00    +0.201 A 
ATOM     22  C   UNL     1       5.614  -5.411  25.436  0.00  0.00    +0.165 A 
ATOM     23  C   UNL     1       5.647  -4.028  25.652  0.00  0.00    +0.054 A 
BRANCH  20  24
ATOM     24  O   UNL     1       3.112  -5.604  22.765  0.00  0.00    -0.491 OA
ATOM     25  C   UNL     1       1.720  -5.654  23.064  0.00  0.00    +0.277 C 
ENDBRANCH  20  24
BRANCH  21  26
ATOM     26  O   UNL     1       4.765  -7.222  24.051  0.00  0.00    -0.501 OA
ATOM     27  H   UNL     1       3.839  -7.469  23.924  0.00  0.00    +0.292 HD
ENDBRANCH  21  26
BRANCH  22  28
ATOM     28  O   UNL     1       6.461  -6.067  26.281  0.00  0.00    -0.491 OA
ATOM     29  C   UNL     1       7.475  -5.371  26.979  0.00  0.00    +0.277 C 
ENDBRANCH  22  28
ENDBRANCH  11  18
BRANCH   2  30
ATOM     30  O   UNL     1       7.065   1.073  27.227  0.00  0.00    -0.340 OA
BRANCH  30  31
ATOM     31  C   UNL     1       6.634   2.071  26.295  0.00  0.00    +0.282 C 
ATOM     32  C   UNL     1       6.339   3.309  27.197  0.00  0.00    +0.201 C 
ATOM     33  C   UNL     1       6.417   4.665  26.491  0.00  0.00    +0.179 C 
ATOM     34  C   UNL     1       7.542   4.708  25.467  0.00  0.00    +0.184 C 
ATOM     35  C   UNL     1       7.366   3.520  24.537  0.00  0.00    +0.178 C 
ATOM     36  C   UNL     1       8.345   3.682  23.377  0.00  0.00    +0.197 C 
ATOM     37  O   UNL     1       8.252   4.972  22.776  0.00  0.00    -0.344 OA
ATOM     38  C   UNL     1       8.364   6.065  23.689  0.00  0.00    +0.289 C 
ATOM     39  O   UNL     1       7.450   5.958  24.784  0.00  0.00    -0.338 OA
ATOM     40  O   UNL     1       7.598   2.309  25.267  0.00  0.00    -0.340 OA
BRANCH  38  41
ATOM     41  C   UNL     1       9.774   6.293  24.184  0.00  0.00    +0.045 A 
ATOM     42  S   UNL     1      10.073   7.107  25.670  0.00  0.00    -0.097 S 
ATOM     43  C   UNL     1      11.766   6.929  25.513  0.00  0.00    +0.045 A 
ATOM     44  C   UNL     1      12.110   6.225  24.383  0.00  0.00    +0.008 A 
ATOM     45  C   UNL     1      10.964   5.842  23.631  0.00  0.00    +0.016 A 
ENDBRANCH  38  41
BRANCH  32  46
ATOM     46  O   UNL     1       5.033   3.146  27.801  0.00  0.00    -0.384 OA
ATOM     47  H   UNL     1       4.403   3.732  27.347  0.00  0.00    +0.210 HD
ENDBRANCH  32  46
BRANCH  33  48
ATOM     48  O   UNL     1       6.623   5.706  27.460  0.00  0.00    -0.386 OA
ATOM     49  H   UNL     1       6.136   6.486  27.133  0.00  0.00    +0.210 HD
ENDBRANCH  33  48
ENDBRANCH  30  31
ENDBRANCH   2  30
TORSDOF 9
ENDMDL
MODEL 5
REMARK VINA RESULT:      -7.4      2.179      5.078
REMARK  Name = 
REMARK  11 active torsions:
REMARK  status: ('A' for Active; 'I' for Inactive)
REMARK    1  A    between atoms: C_9  and  C_11
REMARK    2  A    between atoms: C_13  and  O_14
REMARK    3  A    between atoms: O_14  and  C_15
REMARK    4  A    between atoms: C_16  and  O_17
REMARK    5  A    between atoms: C_18  and  O_19
REMARK    6  A    between atoms: O_19  and  C_20
REMARK    7  A    between atoms: C_31  and  O_33
REMARK    8  A    between atoms: O_33  and  C_34
REMARK    9  A    between atoms: C_41  and  C_51
REMARK   10  A    between atoms: C_45  and  O_47
REMARK   11  A    between atoms: C_48  and  O_50
REMARK                            x       y       z     vdW  Elec       q    Type
REMARK                         _______ _______ _______ _____ _____    ______ ____
ROOT
ATOM      1  C   UNL     1       4.239  -1.280  26.864  0.00  0.00    +0.075 C 
ATOM      2  C   UNL     1       4.931  -0.204  26.053  0.00  0.00    +0.159 C 
ATOM      3  C   UNL     1       5.775  -0.843  24.961  0.00  0.00    -0.011 A 
ATOM      4  C   UNL     1       5.519  -2.164  24.490  0.00  0.00    -0.030 A 
ATOM      5  C   UNL     1       6.358  -2.706  23.494  0.00  0.00    +0.054 A 
ATOM      6  C   UNL     1       7.436  -1.963  23.061  0.00  0.00    +0.167 A 
ATOM      7  O   UNL     1       8.366  -2.365  22.152  0.00  0.00    -0.453 OA
ATOM      8  C   UNL     1       9.295  -1.264  22.210  0.00  0.00    +0.466 C 
ATOM      9  O   UNL     1       8.832  -0.170  23.028  0.00  0.00    -0.453 OA
ATOM     10  C   UNL     1       7.699  -0.706  23.549  0.00  0.00    +0.167 A 
ATOM     11  C   UNL     1       4.391  -3.048  25.064  0.00  0.00    +0.064 C 
ATOM     12  C   UNL     1       6.880  -0.115  24.482  0.00  0.00    +0.056 A 
ATOM     13  C   UNL     1       3.463  -2.239  25.990  0.00  0.00    +0.118 C 
ATOM     14  C   UNL     1       2.596  -2.907  27.026  0.00  0.00    +0.312 C 
ATOM     15  O   UNL     1       1.952  -3.933  26.887  0.00  0.00    -0.250 OA
ATOM     16  O   UNL     1       2.503  -2.096  28.133  0.00  0.00    -0.464 OA
ATOM     17  C   UNL     1       3.245  -0.887  27.916  0.00  0.00    +0.239 C 
ENDROOT
BRANCH  11  18
ATOM     18  C   UNL     1       4.877  -4.322  25.740  0.00  0.00    -0.032 A 
ATOM     19  C   UNL     1       5.581  -4.301  26.945  0.00  0.00    +0.054 A 
ATOM     20  C   UNL     1       5.713  -5.460  27.714  0.00  0.00    +0.165 A 
ATOM     21  C   UNL     1       5.188  -6.679  27.231  0.00  0.00    +0.201 A 
ATOM     22  C   UNL     1       4.602  -6.748  25.963  0.00  0.00    +0.165 A 
ATOM     23  C   UNL     1       4.462  -5.561  25.233  0.00  0.00    +0.054 A 
BRANCH  20  24
ATOM     24  O   UNL     1       6.320  -5.492  28.946  0.00  0.00    -0.491 OA
ATOM     25  C   UNL     1       5.490  -5.271  30.083  0.00  0.00    +0.277 C 
ENDBRANCH  20  24
BRANCH  21  26
ATOM     26  O   UNL     1       5.267  -7.757  28.074  0.00  0.00    -0.501 OA
ATOM     27  H   UNL     1       4.967  -7.463  28.944  0.00  0.00    +0.292 HD
ENDBRANCH  21  26
BRANCH  22  28
ATOM     28  O   UNL     1       4.090  -7.814  25.281  0.00  0.00    -0.491 OA
ATOM     29  C   UNL     1       2.737  -7.833  24.869  0.00  0.00    +0.277 C 
ENDBRANCH  22  28
ENDBRANCH  11  18
BRANCH   2  30
ATOM     30  O   UNL     1       4.174   0.917  25.636  0.00  0.00    -0.340 OA
BRANCH  30  31
ATOM     31  C   UNL     1       4.545   2.282  25.856  0.00  0.00    +0.282 C 
ATOM     32  C   UNL     1       5.478   2.211  27.102  0.00  0.00    +0.201 C 
ATOM     33  C   UNL     1       6.471   3.369  27.242  0.00  0.00    +0.179 C 
ATOM     34  C   UNL     1       7.019   3.812  25.893  0.00  0.00    +0.184 C 
ATOM     35  C   UNL     1       5.834   4.100  24.986  0.00  0.00    +0.178 C 
ATOM     36  C   UNL     1       6.366   4.761  23.716  0.00  0.00    +0.197 C 
ATOM     37  O   UNL     1       7.220   5.865  24.006  0.00  0.00    -0.344 OA
ATOM     38  C   UNL     1       8.289   5.571  24.908  0.00  0.00    +0.289 C 
ATOM     39  O   UNL     1       7.830   4.965  26.119  0.00  0.00    -0.338 OA
ATOM     40  O   UNL     1       5.146   2.876  24.703  0.00  0.00    -0.340 OA
BRANCH  38  41
ATOM     41  C   UNL     1       9.397   4.756  24.283  0.00  0.00    +0.045 A 
ATOM     42  S   UNL     1      10.870   5.493  23.785  0.00  0.00    -0.097 S 
ATOM     43  C   UNL     1      11.528   4.004  23.265  0.00  0.00    +0.045 A 
ATOM     44  C   UNL     1      10.675   2.951  23.503  0.00  0.00    +0.008 A 
ATOM     45  C   UNL     1       9.461   3.381  24.108  0.00  0.00    +0.016 A 
ENDBRANCH  38  41
BRANCH  32  46
ATOM     46  O   UNL     1       4.660   2.122  28.294  0.00  0.00    -0.384 OA
ATOM     47  H   UNL     1       4.528   1.183  28.513  0.00  0.00    +0.210 HD
ENDBRANCH  32  46
BRANCH  33  48
ATOM     48  O   UNL     1       7.564   2.972  28.086  0.00  0.00    -0.386 OA
ATOM     49  H   UNL     1       8.007   2.231  27.631  0.00  0.00    +0.210 HD
ENDBRANCH  33  48
ENDBRANCH  30  31
ENDBRANCH   2  30
TORSDOF 9
ENDMDL
MODEL 6
REMARK VINA RESULT:      -7.4      1.739      2.767
REMARK  Name = 
REMARK  11 active torsions:
REMARK  status: ('A' for Active; 'I' for Inactive)
REMARK    1  A    between atoms: C_9  and  C_11
REMARK    2  A    between atoms: C_13  and  O_14
REMARK    3  A    between atoms: O_14  and  C_15
REMARK    4  A    between atoms: C_16  and  O_17
REMARK    5  A    between atoms: C_18  and  O_19
REMARK    6  A    between atoms: O_19  and  C_20
REMARK    7  A    between atoms: C_31  and  O_33
REMARK    8  A    between atoms: O_33  and  C_34
REMARK    9  A    between atoms: C_41  and  C_51
REMARK   10  A    between atoms: C_45  and  O_47
REMARK   11  A    between atoms: C_48  and  O_50
REMARK                            x       y       z     vdW  Elec       q    Type
REMARK                         _______ _______ _______ _____ _____    ______ ____
ROOT
ATOM      1  C   UNL     1       6.562  -3.070  23.159  0.00  0.00    +0.075 C 
ATOM      2  C   UNL     1       6.369  -1.585  23.383  0.00  0.00    +0.159 C 
ATOM      3  C   UNL     1       6.001  -1.325  24.835  0.00  0.00    -0.011 A 
ATOM      4  C   UNL     1       6.310  -2.260  25.867  0.00  0.00    -0.030 A 
ATOM      5  C   UNL     1       5.915  -1.969  27.190  0.00  0.00    +0.054 A 
ATOM      6  C   UNL     1       5.186  -0.822  27.425  0.00  0.00    +0.167 A 
ATOM      7  O   UNL     1       4.686  -0.430  28.629  0.00  0.00    -0.453 OA
ATOM      8  C   UNL     1       3.920   0.728  28.240  0.00  0.00    +0.466 C 
ATOM      9  O   UNL     1       4.097   1.090  26.855  0.00  0.00    -0.453 OA
ATOM     10  C   UNL     1       4.859   0.054  26.419  0.00  0.00    +0.167 A 
ATOM     11  C   UNL     1       7.013  -3.606  25.588  0.00  0.00    +0.064 C 
ATOM     12  C   UNL     1       5.265  -0.161  25.123  0.00  0.00    +0.056 A 
ATOM     13  C   UNL     1       7.541  -3.671  24.142  0.00  0.00    +0.118 C 
ATOM     14  C   UNL     1       7.836  -4.983  23.463  0.00  0.00    +0.312 C 
ATOM     15  O   UNL     1       8.384  -5.954  23.957  0.00  0.00    -0.250 OA
ATOM     16  O   UNL     1       7.533  -4.881  22.125  0.00  0.00    -0.464 OA
ATOM     17  C   UNL     1       7.060  -3.558  21.831  0.00  0.00    +0.239 C 
ENDROOT
BRANCH  11  18
ATOM     18  C   UNL     1       6.178  -4.830  25.930  0.00  0.00    -0.032 A 
ATOM     19  C   UNL     1       6.452  -5.630  27.041  0.00  0.00    +0.054 A 
ATOM     20  C   UNL     1       5.494  -6.522  27.530  0.00  0.00    +0.165 A 
ATOM     21  C   UNL     1       4.264  -6.664  26.853  0.00  0.00    +0.201 A 
ATOM     22  C   UNL     1       4.026  -5.973  25.659  0.00  0.00    +0.165 A 
ATOM     23  C   UNL     1       4.996  -5.068  25.214  0.00  0.00    +0.054 A 
BRANCH  20  24
ATOM     24  O   UNL     1       5.667  -7.278  28.666  0.00  0.00    -0.491 OA
ATOM     25  C   UNL     1       6.326  -6.654  29.764  0.00  0.00    +0.277 C 
ENDBRANCH  20  24
BRANCH  21  26
ATOM     26  O   UNL     1       3.333  -7.483  27.436  0.00  0.00    -0.501 OA
ATOM     27  H   UNL     1       3.634  -8.393  27.312  0.00  0.00    +0.292 HD
ENDBRANCH  21  26
BRANCH  22  28
ATOM     28  O   UNL     1       2.950  -6.004  24.819  0.00  0.00    -0.491 OA
ATOM     29  C   UNL     1       2.034  -4.928  24.771  0.00  0.00    +0.277 C 
ENDBRANCH  22  28
ENDBRANCH  11  18
BRANCH   2  30
ATOM     30  O   UNL     1       7.328  -0.693  22.847  0.00  0.00    -0.340 OA
BRANCH  30  31
ATOM     31  C   UNL     1       8.202   0.133  23.623  0.00  0.00    +0.282 C 
ATOM     32  C   UNL     1       9.240   0.647  22.581  0.00  0.00    +0.201 C 
ATOM     33  C   UNL     1       9.939   1.960  22.946  0.00  0.00    +0.179 C 
ATOM     34  C   UNL     1       8.993   2.932  23.637  0.00  0.00    +0.184 C 
ATOM     35  C   UNL     1       8.358   2.205  24.810  0.00  0.00    +0.178 C 
ATOM     36  C   UNL     1       7.591   3.231  25.640  0.00  0.00    +0.197 C 
ATOM     37  O   UNL     1       8.393   4.365  25.961  0.00  0.00    -0.344 OA
ATOM     38  C   UNL     1       9.021   4.989  24.839  0.00  0.00    +0.289 C 
ATOM     39  O   UNL     1       9.765   4.062  24.044  0.00  0.00    -0.338 OA
ATOM     40  O   UNL     1       7.501   1.168  24.317  0.00  0.00    -0.340 OA
BRANCH  38  41
ATOM     41  C   UNL     1       8.066   5.789  23.983  0.00  0.00    +0.045 A 
ATOM     42  S   UNL     1       6.548   6.315  24.599  0.00  0.00    -0.097 S 
ATOM     43  C   UNL     1       6.144   7.105  23.138  0.00  0.00    +0.045 A 
ATOM     44  C   UNL     1       7.153   7.020  22.208  0.00  0.00    +0.008 A 
ATOM     45  C   UNL     1       8.266   6.282  22.702  0.00  0.00    +0.016 A 
ENDBRANCH  38  41
BRANCH  32  46
ATOM     46  O   UNL     1      10.229  -0.387  22.356  0.00  0.00    -0.384 OA
ATOM     47  H   UNL     1      10.427  -0.820  23.205  0.00  0.00    +0.210 HD
ENDBRANCH  32  46
BRANCH  33  48
ATOM     48  O   UNL     1      10.464   2.577  21.760  0.00  0.00    -0.386 OA
ATOM     49  H   UNL     1      10.167   3.506  21.780  0.00  0.00    +0.210 HD
ENDBRANCH  33  48
ENDBRANCH  30  31
ENDBRANCH   2  30
TORSDOF 9
ENDMDL
MODEL 7
REMARK VINA RESULT:      -6.8      2.159      4.938
REMARK  Name = 
REMARK  11 active torsions:
REMARK  status: ('A' for Active; 'I' for Inactive)
REMARK    1  A    between atoms: C_9  and  C_11
REMARK    2  A    between atoms: C_13  and  O_14
REMARK    3  A    between atoms: O_14  and  C_15
REMARK    4  A    between atoms: C_16  and  O_17
REMARK    5  A    between atoms: C_18  and  O_19
REMARK    6  A    between atoms: O_19  and  C_20
REMARK    7  A    between atoms: C_31  and  O_33
REMARK    8  A    between atoms: O_33  and  C_34
REMARK    9  A    between atoms: C_41  and  C_51
REMARK   10  A    between atoms: C_45  and  O_47
REMARK   11  A    between atoms: C_48  and  O_50
REMARK                            x       y       z     vdW  Elec       q    Type
REMARK                         _______ _______ _______ _____ _____    ______ ____
ROOT
ATOM      1  C   UNL     1       5.074  -1.986  27.149  0.00  0.00    +0.075 C 
ATOM      2  C   UNL     1       6.172  -0.988  26.845  0.00  0.00    +0.159 C 
ATOM      3  C   UNL     1       6.803  -1.308  25.499  0.00  0.00    -0.011 A 
ATOM      4  C   UNL     1       6.117  -2.072  24.510  0.00  0.00    -0.030 A 
ATOM      5  C   UNL     1       6.773  -2.356  23.294  0.00  0.00    +0.054 A 
ATOM      6  C   UNL     1       8.078  -1.939  23.132  0.00  0.00    +0.167 A 
ATOM      7  O   UNL     1       8.862  -2.182  22.046  0.00  0.00    -0.453 OA
ATOM      8  C   UNL     1      10.122  -1.648  22.498  0.00  0.00    +0.466 C 
ATOM      9  O   UNL     1      10.032  -0.969  23.768  0.00  0.00    -0.453 OA
ATOM     10  C   UNL     1       8.745  -1.238  24.106  0.00  0.00    +0.167 A 
ATOM     11  C   UNL     1       4.703  -2.649  24.737  0.00  0.00    +0.064 C 
ATOM     12  C   UNL     1       8.131  -0.893  25.288  0.00  0.00    +0.056 A 
ATOM     13  C   UNL     1       4.069  -2.085  26.023  0.00  0.00    +0.118 C 
ATOM     14  C   UNL     1       2.941  -2.792  26.729  0.00  0.00    +0.312 C 
ATOM     15  O   UNL     1       1.979  -3.330  26.209  0.00  0.00    -0.250 OA
ATOM     16  O   UNL     1       3.069  -2.609  28.086  0.00  0.00    -0.464 OA
ATOM     17  C   UNL     1       4.216  -1.794  28.364  0.00  0.00    +0.239 C 
ENDROOT
BRANCH  11  18
ATOM     18  C   UNL     1       4.636  -4.169  24.705  0.00  0.00    -0.032 A 
ATOM     19  C   UNL     1       5.234  -4.960  25.688  0.00  0.00    +0.054 A 
ATOM     20  C   UNL     1       4.878  -6.303  25.836  0.00  0.00    +0.165 A 
ATOM     21  C   UNL     1       3.954  -6.881  24.939  0.00  0.00    +0.201 A 
ATOM     22  C   UNL     1       3.449  -6.142  23.864  0.00  0.00    +0.165 A 
ATOM     23  C   UNL     1       3.806  -4.792  23.762  0.00  0.00    +0.054 A 
BRANCH  20  24
ATOM     24  O   UNL     1       5.366  -7.114  26.832  0.00  0.00    -0.491 OA
ATOM     25  C   UNL     1       5.031  -6.767  28.173  0.00  0.00    +0.277 C 
ENDBRANCH  20  24
BRANCH  21  26
ATOM     26  O   UNL     1       3.576  -8.173  25.196  0.00  0.00    -0.501 OA
ATOM     27  H   UNL     1       4.312  -8.743  24.938  0.00  0.00    +0.292 HD
ENDBRANCH  21  26
BRANCH  22  28
ATOM     28  O   UNL     1       2.605  -6.511  22.856  0.00  0.00    -0.491 OA
ATOM     29  C   UNL     1       1.295  -5.982  22.774  0.00  0.00    +0.277 C 
ENDBRANCH  22  28
ENDBRANCH  11  18
BRANCH   2  30
ATOM     30  O   UNL     1       5.913   0.385  27.066  0.00  0.00    -0.340 OA
BRANCH  30  31
ATOM     31  C   UNL     1       4.973   1.171  26.325  0.00  0.00    +0.282 C 
ATOM     32  C   UNL     1       4.667   2.367  27.276  0.00  0.00    +0.201 C 
ATOM     33  C   UNL     1       4.170   3.641  26.586  0.00  0.00    +0.179 C 
ATOM     34  C   UNL     1       4.870   3.874  25.255  0.00  0.00    +0.184 C 
ATOM     35  C   UNL     1       4.723   2.608  24.427  0.00  0.00    +0.178 C 
ATOM     36  C   UNL     1       5.217   2.910  23.015  0.00  0.00    +0.197 C 
ATOM     37  O   UNL     1       4.614   4.085  22.479  0.00  0.00    -0.344 OA
ATOM     38  C   UNL     1       4.721   5.243  23.309  0.00  0.00    +0.289 C 
ATOM     39  O   UNL     1       4.252   5.005  24.640  0.00  0.00    -0.338 OA
ATOM     40  O   UNL     1       5.474   1.553  25.041  0.00  0.00    -0.340 OA
BRANCH  38  41
ATOM     41  C   UNL     1       6.106   5.847  23.325  0.00  0.00    +0.045 A 
ATOM     42  S   UNL     1       6.618   6.863  24.616  0.00  0.00    -0.097 S 
ATOM     43  C   UNL     1       8.172   7.070  23.936  0.00  0.00    +0.045 A 
ATOM     44  C   UNL     1       8.330   6.349  22.776  0.00  0.00    +0.008 A 
ATOM     45  C   UNL     1       7.150   5.629  22.437  0.00  0.00    +0.016 A 
ENDBRANCH  38  41
BRANCH  32  46
ATOM     46  O   UNL     1       3.702   1.940  28.268  0.00  0.00    -0.384 OA
ATOM     47  H   UNL     1       3.934   2.343  29.123  0.00  0.00    +0.210 HD
ENDBRANCH  32  46
BRANCH  33  48
ATOM     48  O   UNL     1       4.393   4.775  27.440  0.00  0.00    -0.386 OA
ATOM     49  H   UNL     1       3.556   4.926  27.919  0.00  0.00    +0.210 HD
ENDBRANCH  33  48
ENDBRANCH  30  31
ENDBRANCH   2  30
TORSDOF 9
ENDMDL
MODEL 8
REMARK VINA RESULT:      -6.8      2.890      9.133
REMARK  Name = 
REMARK  11 active torsions:
REMARK  status: ('A' for Active; 'I' for Inactive)
REMARK    1  A    between atoms: C_9  and  C_11
REMARK    2  A    between atoms: C_13  and  O_14
REMARK    3  A    between atoms: O_14  and  C_15
REMARK    4  A    between atoms: C_16  and  O_17
REMARK    5  A    between atoms: C_18  and  O_19
REMARK    6  A    between atoms: O_19  and  C_20
REMARK    7  A    between atoms: C_31  and  O_33
REMARK    8  A    between atoms: O_33  and  C_34
REMARK    9  A    between atoms: C_41  and  C_51
REMARK   10  A    between atoms: C_45  and  O_47
REMARK   11  A    between atoms: C_48  and  O_50
REMARK                            x       y       z     vdW  Elec       q    Type
REMARK                         _______ _______ _______ _____ _____    ______ ____
ROOT
ATOM      1  C   UNL     1       6.020  -0.925  26.186  0.00  0.00    +0.075 C 
ATOM      2  C   UNL     1       7.167  -1.374  25.304  0.00  0.00    +0.159 C 
ATOM      3  C   UNL     1       7.948  -0.164  24.816  0.00  0.00    -0.011 A 
ATOM      4  C   UNL     1       7.904   1.085  25.504  0.00  0.00    -0.030 A 
ATOM      5  C   UNL     1       8.632   2.175  24.980  0.00  0.00    +0.054 A 
ATOM      6  C   UNL     1       9.305   2.010  23.788  0.00  0.00    +0.167 A 
ATOM      7  O   UNL     1      10.002   2.975  23.128  0.00  0.00    -0.453 OA
ATOM      8  C   UNL     1      10.349   2.277  21.915  0.00  0.00    +0.466 C 
ATOM      9  O   UNL     1       9.988   0.880  21.938  0.00  0.00    -0.453 OA
ATOM     10  C   UNL     1       9.309   0.815  23.112  0.00  0.00    +0.167 A 
ATOM     11  C   UNL     1       7.050   1.309  26.769  0.00  0.00    +0.064 C 
ATOM     12  C   UNL     1       8.657  -0.291  23.608  0.00  0.00    +0.056 A 
ATOM     13  C   UNL     1       6.484  -0.021  27.305  0.00  0.00    +0.118 C 
ATOM     14  C   UNL     1       5.278  -0.065  28.207  0.00  0.00    +0.312 C 
ATOM     15  O   UNL     1       5.034   0.685  29.136  0.00  0.00    -0.250 OA
ATOM     16  O   UNL     1       4.545  -1.195  27.929  0.00  0.00    -0.464 OA
ATOM     17  C   UNL     1       5.186  -1.952  26.893  0.00  0.00    +0.239 C 
ENDROOT
BRANCH  11  18
ATOM     18  C   UNL     1       5.955   2.353  26.607  0.00  0.00    -0.032 A 
ATOM     19  C   UNL     1       5.958   3.551  27.322  0.00  0.00    +0.054 A 
ATOM     20  C   UNL     1       5.160   4.625  26.919  0.00  0.00    +0.165 A 
ATOM     21  C   UNL     1       4.291   4.471  25.817  0.00  0.00    +0.201 A 
ATOM     22  C   UNL     1       4.171   3.234  25.173  0.00  0.00    +0.165 A 
ATOM     23  C   UNL     1       5.007   2.189  25.587  0.00  0.00    +0.054 A 
BRANCH  20  24
ATOM     24  O   UNL     1       5.177   5.857  27.528  0.00  0.00    -0.491 OA
ATOM     25  C   UNL     1       6.424   6.302  28.054  0.00  0.00    +0.277 C 
ENDBRANCH  20  24
BRANCH  21  26
ATOM     26  O   UNL     1       3.607   5.588  25.415  0.00  0.00    -0.501 OA
ATOM     27  H   UNL     1       3.899   6.319  25.975  0.00  0.00    +0.292 HD
ENDBRANCH  21  26
BRANCH  22  28
ATOM     28  O   UNL     1       3.364   2.848  24.143  0.00  0.00    -0.491 OA
ATOM     29  C   UNL     1       3.625   3.268  22.817  0.00  0.00    +0.277 C 
ENDBRANCH  22  28
ENDBRANCH  11  18
BRANCH   2  30
ATOM     30  O   UNL     1       7.965  -2.459  25.738  0.00  0.00    -0.340 OA
BRANCH  30  31
ATOM     31  C   UNL     1       7.701  -3.836  25.451  0.00  0.00    +0.282 C 
ATOM     32  C   UNL     1       7.853  -4.534  26.837  0.00  0.00    +0.201 C 
ATOM     33  C   UNL     1       7.098  -5.858  26.988  0.00  0.00    +0.179 C 
ATOM     34  C   UNL     1       5.749  -5.824  26.285  0.00  0.00    +0.184 C 
ATOM     35  C   UNL     1       5.987  -5.393  24.847  0.00  0.00    +0.178 C 
ATOM     36  C   UNL     1       4.681  -5.578  24.078  0.00  0.00    +0.197 C 
ATOM     37  O   UNL     1       4.135  -6.882  24.262  0.00  0.00    -0.344 OA
ATOM     38  C   UNL     1       3.978  -7.277  25.626  0.00  0.00    +0.289 C 
ATOM     39  O   UNL     1       5.186  -7.133  26.378  0.00  0.00    -0.338 OA
ATOM     40  O   UNL     1       6.429  -4.030  24.830  0.00  0.00    -0.340 OA
BRANCH  38  41
ATOM     41  C   UNL     1       2.825  -6.592  26.322  0.00  0.00    +0.045 A 
ATOM     42  S   UNL     1       1.389  -6.181  25.468  0.00  0.00    -0.097 S 
ATOM     43  C   UNL     1       0.651  -5.534  26.868  0.00  0.00    +0.045 A 
ATOM     44  C   UNL     1       1.450  -5.664  27.980  0.00  0.00    +0.008 A 
ATOM     45  C   UNL     1       2.689  -6.292  27.670  0.00  0.00    +0.016 A 
ENDBRANCH  38  41
BRANCH  32  46
ATOM     46  O   UNL     1       9.261  -4.740  27.105  0.00  0.00    -0.384 OA
ATOM     47  H   UNL     1       9.677  -5.121  26.312  0.00  0.00    +0.210 HD
ENDBRANCH  32  46
BRANCH  33  48
ATOM     48  O   UNL     1       6.896  -6.144  28.382  0.00  0.00    -0.386 OA
ATOM     49  H   UNL     1       7.623  -6.738  28.648  0.00  0.00    +0.210 HD
ENDBRANCH  33  48
ENDBRANCH  30  31
ENDBRANCH   2  30
TORSDOF 9
ENDMDL
MODEL 9
REMARK VINA RESULT:      -6.6      3.235      8.623
REMARK  Name = 
REMARK  11 active torsions:
REMARK  status: ('A' for Active; 'I' for Inactive)
REMARK    1  A    between atoms: C_9  and  C_11
REMARK    2  A    between atoms: C_13  and  O_14
REMARK    3  A    between atoms: O_14  and  C_15
REMARK    4  A    between atoms: C_16  and  O_17
REMARK    5  A    between atoms: C_18  and  O_19
REMARK    6  A    between atoms: O_19  and  C_20
REMARK    7  A    between atoms: C_31  and  O_33
REMARK    8  A    between atoms: O_33  and  C_34
REMARK    9  A    between atoms: C_41  and  C_51
REMARK   10  A    between atoms: C_45  and  O_47
REMARK   11  A    between atoms: C_48  and  O_50
REMARK                            x       y       z     vdW  Elec       q    Type
REMARK                         _______ _______ _______ _____ _____    ______ ____
ROOT
ATOM      1  C   UNL     1       6.480   1.090  25.794  0.00  0.00    +0.075 C 
ATOM      2  C   UNL     1       7.105   1.458  24.465  0.00  0.00    +0.159 C 
ATOM      3  C   UNL     1       7.219   2.970  24.349  0.00  0.00    -0.011 A 
ATOM      4  C   UNL     1       7.222   3.813  25.500  0.00  0.00    -0.030 A 
ATOM      5  C   UNL     1       7.303   5.210  25.319  0.00  0.00    +0.054 A 
ATOM      6  C   UNL     1       7.311   5.712  24.034  0.00  0.00    +0.167 A 
ATOM      7  O   UNL     1       7.329   7.030  23.695  0.00  0.00    -0.453 OA
ATOM      8  C   UNL     1       7.184   6.943  22.263  0.00  0.00    +0.466 C 
ATOM      9  O   UNL     1       7.233   5.590  21.766  0.00  0.00    -0.453 OA
ATOM     10  C   UNL     1       7.268   4.894  22.932  0.00  0.00    +0.167 A 
ATOM     11  C   UNL     1       7.085   3.263  26.935  0.00  0.00    +0.064 C 
ATOM     12  C   UNL     1       7.240   3.525  23.057  0.00  0.00    +0.056 A 
ATOM     13  C   UNL     1       7.203   1.727  26.959  0.00  0.00    +0.118 C 
ATOM     14  C   UNL     1       6.658   0.906  28.099  0.00  0.00    +0.312 C 
ATOM     15  O   UNL     1       6.735   1.166  29.287  0.00  0.00    -0.250 OA
ATOM     16  O   UNL     1       6.183  -0.289  27.611  0.00  0.00    -0.464 OA
ATOM     17  C   UNL     1       6.386  -0.353  26.192  0.00  0.00    +0.239 C 
ENDROOT
BRANCH  11  18
ATOM     18  C   UNL     1       5.839   3.735  27.670  0.00  0.00    -0.032 A 
ATOM     19  C   UNL     1       5.908   4.448  28.868  0.00  0.00    +0.054 A 
ATOM     20  C   UNL     1       4.802   5.161  29.338  0.00  0.00    +0.165 A 
ATOM     21  C   UNL     1       3.583   5.103  28.628  0.00  0.00    +0.201 A 
ATOM     22  C   UNL     1       3.455   4.284  27.501  0.00  0.00    +0.165 A 
ATOM     23  C   UNL     1       4.592   3.606  27.043  0.00  0.00    +0.054 A 
BRANCH  20  24
ATOM     24  O   UNL     1       4.826   5.947  30.465  0.00  0.00    -0.491 OA
ATOM     25  C   UNL     1       5.651   7.108  30.426  0.00  0.00    +0.277 C 
ENDBRANCH  20  24
BRANCH  21  26
ATOM     26  O   UNL     1       2.566   5.898  29.088  0.00  0.00    -0.501 OA
ATOM     27  H   UNL     1       2.395   6.565  28.410  0.00  0.00    +0.292 HD
ENDBRANCH  21  26
BRANCH  22  28
ATOM     28  O   UNL     1       2.373   4.032  26.708  0.00  0.00    -0.491 OA
ATOM     29  C   UNL     1       2.423   3.038  25.703  0.00  0.00    +0.277 C 
ENDBRANCH  22  28
ENDBRANCH  11  18
BRANCH   2  30
ATOM     30  O   UNL     1       8.249   0.744  24.038  0.00  0.00    -0.340 OA
BRANCH  30  31
ATOM     31  C   UNL     1       8.233  -0.352  23.116  0.00  0.00    +0.282 C 
ATOM     32  C   UNL     1       9.403  -1.258  23.606  0.00  0.00    +0.201 C 
ATOM     33  C   UNL     1       9.294  -2.735  23.216  0.00  0.00    +0.179 C 
ATOM     34  C   UNL     1       7.857  -3.232  23.274  0.00  0.00    +0.184 C 
ATOM     35  C   UNL     1       7.008  -2.291  22.436  0.00  0.00    +0.178 C 
ATOM     36  C   UNL     1       5.617  -2.907  22.301  0.00  0.00    +0.197 C 
ATOM     37  O   UNL     1       5.675  -4.262  21.863  0.00  0.00    -0.344 OA
ATOM     38  C   UNL     1       6.528  -5.105  22.640  0.00  0.00    +0.289 C 
ATOM     39  O   UNL     1       7.847  -4.570  22.777  0.00  0.00    -0.338 OA
ATOM     40  O   UNL     1       6.963  -1.005  23.067  0.00  0.00    -0.340 OA
BRANCH  38  41
ATOM     41  C   UNL     1       5.950  -5.467  23.989  0.00  0.00    +0.045 A 
ATOM     42  S   UNL     1       4.475  -6.343  24.118  0.00  0.00    -0.097 S 
ATOM     43  C   UNL     1       4.547  -6.361  25.826  0.00  0.00    +0.045 A 
ATOM     44  C   UNL     1       5.688  -5.758  26.301  0.00  0.00    +0.008 A 
ATOM     45  C   UNL     1       6.504  -5.264  25.245  0.00  0.00    +0.016 A 
ENDBRANCH  38  41
BRANCH  32  46
ATOM     46  O   UNL     1      10.653  -0.714  23.117  0.00  0.00    -0.384 OA
ATOM     47  H   UNL     1      11.113  -0.276  23.854  0.00  0.00    +0.210 HD
ENDBRANCH  32  46
BRANCH  33  48
ATOM     48  O   UNL     1      10.104  -3.531  24.096  0.00  0.00    -0.386 OA
ATOM     49  H   UNL     1      10.727  -2.916  24.527  0.00  0.00    +0.210 HD
ENDBRANCH  33  48
ENDBRANCH  30  31
ENDBRANCH   2  30
TORSDOF 9
ENDMDL
