MODEL 1
REMARK VINA RESULT:      -7.0      0.000      0.000
REMARK  Name = 
REMARK  5 active torsions:
REMARK  status: ('A' for Active; 'I' for Inactive)
REMARK    1  A    between atoms: O5*_1  and  C5*_2
REMARK    2  A    between atoms: C5*_2  and  C4*_3
REMARK    3  A    between atoms: C1*_6  and  N_12
REMARK    4  A    between atoms: C3*_9  and  O3*_11
REMARK    5  A    between atoms: C_14  and  C_20
REMARK                            x       y       z     vdW  Elec       q    Type
REMARK                         _______ _______ _______ _____ _____    ______ ____
ROOT
ATOM      1  N   UNL     1       8.519  -1.433  24.303  0.00  0.00    -0.273 N 
ATOM      2  C   UNL     1       8.686  -0.813  25.534  0.00  0.00    +0.331 A 
ATOM      3  O   UNL     1       8.684  -1.404  26.610  0.00  0.00    -0.246 OA
ATOM      4  N   UNL     1       8.918   0.535  25.481  0.00  0.00    -0.274 N 
ATOM      5  H   UNL     1       9.185   0.952  26.360  0.00  0.00    +0.173 HD
ATOM      6  C   UNL     1       9.346   1.194  24.358  0.00  0.00    +0.266 A 
ATOM      7  O   UNL     1      10.007   2.222  24.449  0.00  0.00    -0.267 OA
ATOM      8  C   UNL     1       9.003   0.560  23.084  0.00  0.00    +0.135 A 
ATOM      9  C   UNL     1       8.598  -0.717  23.123  0.00  0.00    +0.111 A 
ENDROOT
BRANCH   1  13
ATOM     10  C4* UNL     1       7.761  -4.725  25.467  0.00  0.00    +0.175 C 
ATOM     11  C3* UNL     1       9.283  -4.765  25.564  0.00  0.00    +0.150 C 
ATOM     12  C2* UNL     1       9.757  -3.589  24.729  0.00  0.00    +0.088 C 
ATOM     13  C1* UNL     1       8.473  -2.892  24.295  0.00  0.00    +0.226 C 
ATOM     14  O4* UNL     1       7.426  -3.369  25.144  0.00  0.00    -0.348 OA
BRANCH  11  15
ATOM     15  O3* UNL     1       9.776  -5.998  25.049  0.00  0.00    -0.389 OA
ATOM     16  H3* UNL     1       9.484  -6.066  24.123  0.00  0.00    +0.210 HD
ENDBRANCH  11  15
BRANCH  10  17
ATOM     17  C5* UNL     1       7.041  -5.158  26.744  0.00  0.00    +0.190 C 
BRANCH  17  18
ATOM     18  O5* UNL     1       7.884  -5.961  27.570  0.00  0.00    -0.392 OA
ATOM     19  H5* UNL     1       7.589  -6.882  27.458  0.00  0.00    +0.210 HD
ENDBRANCH  17  18
ENDBRANCH  10  17
ENDBRANCH   1  13
BRANCH   8  20
ATOM     20  C   UNL     1       9.227   1.298  21.819  0.00  0.00    +0.424 C 
ATOM     21  F   UNL     1       8.356   2.339  21.698  0.00  0.00    -0.166 F 
ATOM     22  F   UNL     1       9.003   0.498  20.739  0.00  0.00    -0.166 F 
ATOM     23  F   UNL     1      10.468   1.814  21.647  0.00  0.00    -0.166 F 
ENDBRANCH   8  20
TORSDOF 5
ENDMDL
MODEL 2
REMARK VINA RESULT:      -6.8      4.059      6.284
REMARK  Name = 
REMARK  5 active torsions:
REMARK  status: ('A' for Active; 'I' for Inactive)
REMARK    1  A    between atoms: O5*_1  and  C5*_2
REMARK    2  A    between atoms: C5*_2  and  C4*_3
REMARK    3  A    between atoms: C1*_6  and  N_12
REMARK    4  A    between atoms: C3*_9  and  O3*_11
REMARK    5  A    between atoms: C_14  and  C_20
REMARK                            x       y       z     vdW  Elec       q    Type
REMARK                         _______ _______ _______ _____ _____    ______ ____
ROOT
ATOM      1  N   UNL     1       6.720  -2.436  23.989  0.00  0.00    -0.273 N 
ATOM      2  C   UNL     1       5.438  -2.318  24.507  0.00  0.00    +0.331 A 
ATOM      3  O   UNL     1       5.039  -1.351  25.149  0.00  0.00    -0.246 OA
ATOM      4  N   UNL     1       4.591  -3.352  24.207  0.00  0.00    -0.274 N 
ATOM      5  H   UNL     1       3.626  -3.192  24.458  0.00  0.00    +0.173 HD
ATOM      6  C   UNL     1       4.800  -4.239  23.185  0.00  0.00    +0.266 A 
ATOM      7  O   UNL     1       3.854  -4.789  22.631  0.00  0.00    -0.267 OA
ATOM      8  C   UNL     1       6.195  -4.429  22.787  0.00  0.00    +0.135 A 
ATOM      9  C   UNL     1       7.085  -3.523  23.218  0.00  0.00    +0.111 A 
ENDROOT
BRANCH   1  13
ATOM     10  C4* UNL     1       8.892   0.192  22.921  0.00  0.00    +0.175 C 
ATOM     11  C3* UNL     1       9.882  -0.643  23.727  0.00  0.00    +0.150 C 
ATOM     12  C2* UNL     1       9.017  -1.567  24.566  0.00  0.00    +0.088 C 
ATOM     13  C1* UNL     1       7.594  -1.272  24.108  0.00  0.00    +0.226 C 
ATOM     14  O4* UNL     1       7.687  -0.581  22.859  0.00  0.00    -0.348 OA
BRANCH  11  15
ATOM     15  O3* UNL     1      10.684   0.202  24.546  0.00  0.00    -0.389 OA
ATOM     16  H3* UNL     1      10.226   0.302  25.400  0.00  0.00    +0.210 HD
ENDBRANCH  11  15
BRANCH  10  17
ATOM     17  C5* UNL     1       9.370   0.539  21.511  0.00  0.00    +0.190 C 
BRANCH  17  18
ATOM     18  O5* UNL     1       9.751   1.912  21.413  0.00  0.00    -0.392 OA
ATOM     19  H5* UNL     1       9.522   2.202  20.513  0.00  0.00    +0.210 HD
ENDBRANCH  17  18
ENDBRANCH  10  17
ENDBRANCH   1  13
BRANCH   8  20
ATOM     20  C   UNL     1       6.544  -5.519  21.848  0.00  0.00    +0.424 C 
ATOM     21  F   UNL     1       6.178  -6.734  22.348  0.00  0.00    -0.166 F 
ATOM     22  F   UNL     1       7.891  -5.588  21.654  0.00  0.00    -0.166 F 
ATOM     23  F   UNL     1       5.996  -5.434  20.612  0.00  0.00    -0.166 F 
ENDBRANCH   8  20
TORSDOF 5
ENDMDL
MODEL 3
REMARK VINA RESULT:      -6.8      3.874      6.301
REMARK  Name = 
REMARK  5 active torsions:
REMARK  status: ('A' for Active; 'I' for Inactive)
REMARK    1  A    between atoms: O5*_1  and  C5*_2
REMARK    2  A    between atoms: C5*_2  and  C4*_3
REMARK    3  A    between atoms: C1*_6  and  N_12
REMARK    4  A    between atoms: C3*_9  and  O3*_11
REMARK    5  A    between atoms: C_14  and  C_20
REMARK                            x       y       z     vdW  Elec       q    Type
REMARK                         _______ _______ _______ _____ _____    ______ ____
ROOT
ATOM      1  N   UNL     1       8.513  -4.017  24.705  0.00  0.00    -0.273 N 
ATOM      2  C   UNL     1       9.262  -5.018  25.308  0.00  0.00    +0.331 A 
ATOM      3  O   UNL     1      10.450  -5.225  25.078  0.00  0.00    -0.246 OA
ATOM      4  N   UNL     1       8.597  -5.756  26.250  0.00  0.00    -0.274 N 
ATOM      5  H   UNL     1       9.182  -6.379  26.788  0.00  0.00    +0.173 HD
ATOM      6  C   UNL     1       7.442  -5.350  26.864  0.00  0.00    +0.266 A 
ATOM      7  O   UNL     1       7.163  -5.737  27.994  0.00  0.00    -0.267 OA
ATOM      8  C   UNL     1       6.620  -4.406  26.106  0.00  0.00    +0.135 A 
ATOM      9  C   UNL     1       7.195  -3.795  25.059  0.00  0.00    +0.111 A 
ENDROOT
BRANCH   1  13
ATOM     10  C4* UNL     1       9.798  -0.874  23.593  0.00  0.00    +0.175 C 
ATOM     11  C3* UNL     1       8.804  -1.154  22.470  0.00  0.00    +0.150 C 
ATOM     12  C2* UNL     1       8.480  -2.632  22.597  0.00  0.00    +0.088 C 
ATOM     13  C1* UNL     1       9.229  -3.076  23.848  0.00  0.00    +0.226 C 
ATOM     14  O4* UNL     1       9.576  -1.894  24.574  0.00  0.00    -0.348 OA
BRANCH  11  15
ATOM     15  O3* UNL     1       9.394  -0.860  21.207  0.00  0.00    -0.389 OA
ATOM     16  H3* UNL     1       9.490  -1.702  20.726  0.00  0.00    +0.210 HD
ENDBRANCH  11  15
BRANCH  10  17
ATOM     17  C5* UNL     1       9.653   0.509  24.226  0.00  0.00    +0.190 C 
BRANCH  17  18
ATOM     18  O5* UNL     1      10.485   0.644  25.379  0.00  0.00    -0.392 OA
ATOM     19  H5* UNL     1      11.161  -0.054  25.319  0.00  0.00    +0.210 HD
ENDBRANCH  17  18
ENDBRANCH  10  17
ENDBRANCH   1  13
BRANCH   8  20
ATOM     20  C   UNL     1       5.257  -4.077  26.583  0.00  0.00    +0.424 C 
ATOM     21  F   UNL     1       4.486  -5.197  26.672  0.00  0.00    -0.166 F 
ATOM     22  F   UNL     1       4.616  -3.254  25.707  0.00  0.00    -0.166 F 
ATOM     23  F   UNL     1       5.184  -3.465  27.789  0.00  0.00    -0.166 F 
ENDBRANCH   8  20
TORSDOF 5
ENDMDL
MODEL 4
REMARK VINA RESULT:      -6.7      1.807      2.401
REMARK  Name = 
REMARK  5 active torsions:
REMARK  status: ('A' for Active; 'I' for Inactive)
REMARK    1  A    between atoms: O5*_1  and  C5*_2
REMARK    2  A    between atoms: C5*_2  and  C4*_3
REMARK    3  A    between atoms: C1*_6  and  N_12
REMARK    4  A    between atoms: C3*_9  and  O3*_11
REMARK    5  A    between atoms: C_14  and  C_20
REMARK                            x       y       z     vdW  Elec       q    Type
REMARK                         _______ _______ _______ _____ _____    ______ ____
ROOT
ATOM      1  N   UNL     1       7.079  -1.552  24.250  0.00  0.00    -0.273 N 
ATOM      2  C   UNL     1       6.045  -0.636  24.389  0.00  0.00    +0.331 A 
ATOM      3  O   UNL     1       5.132  -0.743  25.203  0.00  0.00    -0.246 OA
ATOM      4  N   UNL     1       6.128   0.464  23.577  0.00  0.00    -0.274 N 
ATOM      5  H   UNL     1       5.461   1.192  23.784  0.00  0.00    +0.173 HD
ATOM      6  C   UNL     1       7.280   0.873  22.960  0.00  0.00    +0.266 A 
ATOM      7  O   UNL     1       7.459   2.055  22.688  0.00  0.00    -0.267 OA
ATOM      8  C   UNL     1       8.270  -0.175  22.707  0.00  0.00    +0.135 A 
ATOM      9  C   UNL     1       8.113  -1.337  23.358  0.00  0.00    +0.111 A 
ENDROOT
BRANCH   1  13
ATOM     10  C4* UNL     1       8.491  -4.276  26.081  0.00  0.00    +0.175 C 
ATOM     11  C3* UNL     1       7.399  -5.021  25.321  0.00  0.00    +0.150 C 
ATOM     12  C2* UNL     1       6.467  -3.933  24.815  0.00  0.00    +0.088 C 
ATOM     13  C1* UNL     1       7.144  -2.632  25.230  0.00  0.00    +0.226 C 
ATOM     14  O4* UNL     1       8.504  -2.946  25.545  0.00  0.00    -0.348 OA
BRANCH  11  15
ATOM     15  O3* UNL     1       6.720  -5.920  26.192  0.00  0.00    -0.389 OA
ATOM     16  H3* UNL     1       6.014  -6.349  25.677  0.00  0.00    +0.210 HD
ENDBRANCH  11  15
BRANCH  10  17
ATOM     17  C5* UNL     1       9.878  -4.906  25.960  0.00  0.00    +0.190 C 
BRANCH  17  18
ATOM     18  O5* UNL     1       9.836  -6.116  25.202  0.00  0.00    -0.392 OA
ATOM     19  H5* UNL     1       9.269  -5.942  24.430  0.00  0.00    +0.210 HD
ENDBRANCH  17  18
ENDBRANCH  10  17
ENDBRANCH   1  13
BRANCH   8  20
ATOM     20  C   UNL     1       9.446   0.121  21.857  0.00  0.00    +0.424 C 
ATOM     21  F   UNL     1       9.062   0.548  20.621  0.00  0.00    -0.166 F 
ATOM     22  F   UNL     1      10.193  -0.999  21.647  0.00  0.00    -0.166 F 
ATOM     23  F   UNL     1      10.303   1.054  22.336  0.00  0.00    -0.166 F 
ENDBRANCH   8  20
TORSDOF 5
ENDMDL
MODEL 5
REMARK VINA RESULT:      -6.6      3.310      6.313
REMARK  Name = 
REMARK  5 active torsions:
REMARK  status: ('A' for Active; 'I' for Inactive)
REMARK    1  A    between atoms: O5*_1  and  C5*_2
REMARK    2  A    between atoms: C5*_2  and  C4*_3
REMARK    3  A    between atoms: C1*_6  and  N_12
REMARK    4  A    between atoms: C3*_9  and  O3*_11
REMARK    5  A    between atoms: C_14  and  C_20
REMARK                            x       y       z     vdW  Elec       q    Type
REMARK                         _______ _______ _______ _____ _____    ______ ____
ROOT
ATOM      1  N   UNL     1       8.608  -2.041  23.108  0.00  0.00    -0.273 N 
ATOM      2  C   UNL     1       9.147  -2.729  24.187  0.00  0.00    +0.331 A 
ATOM      3  O   UNL     1       9.893  -2.227  25.023  0.00  0.00    -0.246 OA
ATOM      4  N   UNL     1       8.743  -4.032  24.308  0.00  0.00    -0.274 N 
ATOM      5  H   UNL     1       9.017  -4.480  25.170  0.00  0.00    +0.173 HD
ATOM      6  C   UNL     1       7.628  -4.547  23.700  0.00  0.00    +0.266 A 
ATOM      7  O   UNL     1       7.025  -5.492  24.195  0.00  0.00    -0.267 OA
ATOM      8  C   UNL     1       7.201  -3.863  22.479  0.00  0.00    +0.135 A 
ATOM      9  C   UNL     1       7.720  -2.649  22.241  0.00  0.00    +0.111 A 
ENDROOT
BRANCH   1  13
ATOM     10  C4* UNL     1       7.840   1.424  22.700  0.00  0.00    +0.175 C 
ATOM     11  C3* UNL     1       8.746   1.221  21.489  0.00  0.00    +0.150 C 
ATOM     12  C2* UNL     1       9.464  -0.090  21.757  0.00  0.00    +0.088 C 
ATOM     13  C1* UNL     1       8.845  -0.602  23.053  0.00  0.00    +0.226 C 
ATOM     14  O4* UNL     1       7.626   0.119  23.252  0.00  0.00    -0.348 OA
BRANCH  11  15
ATOM     15  O3* UNL     1       9.666   2.301  21.377  0.00  0.00    -0.389 OA
ATOM     16  H3* UNL     1      10.519   1.998  21.735  0.00  0.00    +0.210 HD
ENDBRANCH  11  15
BRANCH  10  17
ATOM     17  C5* UNL     1       6.502   2.086  22.376  0.00  0.00    +0.190 C 
BRANCH  17  18
ATOM     18  O5* UNL     1       6.687   3.333  21.704  0.00  0.00    -0.392 OA
ATOM     19  H5* UNL     1       6.821   4.005  22.395  0.00  0.00    +0.210 HD
ENDBRANCH  17  18
ENDBRANCH  10  17
ENDBRANCH   1  13
BRANCH   8  20
ATOM     20  C   UNL     1       6.145  -4.468  21.634  0.00  0.00    +0.424 C 
ATOM     21  F   UNL     1       6.584  -5.622  21.054  0.00  0.00    -0.166 F 
ATOM     22  F   UNL     1       5.805  -3.642  20.607  0.00  0.00    -0.166 F 
ATOM     23  F   UNL     1       4.986  -4.774  22.264  0.00  0.00    -0.166 F 
ENDBRANCH   8  20
TORSDOF 5
ENDMDL
MODEL 6
REMARK VINA RESULT:      -6.5      1.673      2.357
REMARK  Name = 
REMARK  5 active torsions:
REMARK  status: ('A' for Active; 'I' for Inactive)
REMARK    1  A    between atoms: O5*_1  and  C5*_2
REMARK    2  A    between atoms: C5*_2  and  C4*_3
REMARK    3  A    between atoms: C1*_6  and  N_12
REMARK    4  A    between atoms: C3*_9  and  O3*_11
REMARK    5  A    between atoms: C_14  and  C_20
REMARK                            x       y       z     vdW  Elec       q    Type
REMARK                         _______ _______ _______ _____ _____    ______ ____
ROOT
ATOM      1  N   UNL     1       8.367  -1.528  24.496  0.00  0.00    -0.273 N 
ATOM      2  C   UNL     1       8.731  -0.848  25.651  0.00  0.00    +0.331 A 
ATOM      3  O   UNL     1       8.747  -1.349  26.771  0.00  0.00    -0.246 OA
ATOM      4  N   UNL     1       9.139   0.446  25.461  0.00  0.00    -0.274 N 
ATOM      5  H   UNL     1       9.540   0.884  26.277  0.00  0.00    +0.173 HD
ATOM      6  C   UNL     1       9.547   0.949  24.254  0.00  0.00    +0.266 A 
ATOM      7  O   UNL     1      10.348   1.876  24.202  0.00  0.00    -0.267 OA
ATOM      8  C   UNL     1       9.006   0.278  23.072  0.00  0.00    +0.135 A 
ATOM      9  C   UNL     1       8.435  -0.922  23.256  0.00  0.00    +0.111 A 
ENDROOT
BRANCH   1  13
ATOM     10  C4* UNL     1       7.567  -4.848  23.449  0.00  0.00    +0.175 C 
ATOM     11  C3* UNL     1       6.350  -4.557  24.320  0.00  0.00    +0.150 C 
ATOM     12  C2* UNL     1       6.744  -3.346  25.147  0.00  0.00    +0.088 C 
ATOM     13  C1* UNL     1       8.122  -2.962  24.620  0.00  0.00    +0.226 C 
ATOM     14  O4* UNL     1       8.287  -3.613  23.357  0.00  0.00    -0.348 OA
BRANCH  11  15
ATOM     15  O3* UNL     1       6.059  -5.678  25.150  0.00  0.00    -0.389 OA
ATOM     16  H3* UNL     1       5.977  -6.457  24.572  0.00  0.00    +0.210 HD
ENDBRANCH  11  15
BRANCH  10  17
ATOM     17  C5* UNL     1       7.227  -5.366  22.052  0.00  0.00    +0.190 C 
BRANCH  17  18
ATOM     18  O5* UNL     1       6.356  -6.496  22.113  0.00  0.00    -0.392 OA
ATOM     19  H5* UNL     1       6.529  -6.937  22.964  0.00  0.00    +0.210 HD
ENDBRANCH  17  18
ENDBRANCH  10  17
ENDBRANCH   1  13
BRANCH   8  20
ATOM     20  C   UNL     1       9.211   0.878  21.734  0.00  0.00    +0.424 C 
ATOM     21  F   UNL     1      10.436   1.470  21.645  0.00  0.00    -0.166 F 
ATOM     22  F   UNL     1       8.303   1.864  21.494  0.00  0.00    -0.166 F 
ATOM     23  F   UNL     1       9.120   0.027  20.683  0.00  0.00    -0.166 F 
ENDBRANCH   8  20
TORSDOF 5
ENDMDL
MODEL 7
REMARK VINA RESULT:      -6.3      3.051      6.070
REMARK  Name = 
REMARK  5 active torsions:
REMARK  status: ('A' for Active; 'I' for Inactive)
REMARK    1  A    between atoms: O5*_1  and  C5*_2
REMARK    2  A    between atoms: C5*_2  and  C4*_3
REMARK    3  A    between atoms: C1*_6  and  N_12
REMARK    4  A    between atoms: C3*_9  and  O3*_11
REMARK    5  A    between atoms: C_14  and  C_20
REMARK                            x       y       z     vdW  Elec       q    Type
REMARK                         _______ _______ _______ _____ _____    ______ ____
ROOT
ATOM      1  N   UNL     1       8.807  -1.431  24.346  0.00  0.00    -0.273 N 
ATOM      2  C   UNL     1       8.806  -1.618  25.722  0.00  0.00    +0.331 A 
ATOM      3  O   UNL     1       9.060  -0.738  26.539  0.00  0.00    -0.246 OA
ATOM      4  N   UNL     1       8.440  -2.870  26.139  0.00  0.00    -0.274 N 
ATOM      5  H   UNL     1       8.298  -2.957  27.134  0.00  0.00    +0.173 HD
ATOM      6  C   UNL     1       7.754  -3.765  25.361  0.00  0.00    +0.266 A 
ATOM      7  O   UNL     1       7.024  -4.608  25.871  0.00  0.00    -0.267 OA
ATOM      8  C   UNL     1       7.919  -3.604  23.916  0.00  0.00    +0.135 A 
ATOM      9  C   UNL     1       8.446  -2.449  23.483  0.00  0.00    +0.111 A 
ENDROOT
BRANCH   1  13
ATOM     10  C4* UNL     1       7.915   1.722  22.922  0.00  0.00    +0.175 C 
ATOM     11  C3* UNL     1       8.838   1.200  21.825  0.00  0.00    +0.150 C 
ATOM     12  C2* UNL     1       9.602   0.057  22.471  0.00  0.00    +0.088 C 
ATOM     13  C1* UNL     1       8.991  -0.066  23.862  0.00  0.00    +0.226 C 
ATOM     14  O4* UNL     1       7.745   0.635  23.840  0.00  0.00    -0.348 OA
BRANCH  11  15
ATOM     15  O3* UNL     1       9.718   2.232  21.391  0.00  0.00    -0.389 OA
ATOM     16  H3* UNL     1       9.179   3.023  21.217  0.00  0.00    +0.210 HD
ENDBRANCH  11  15
BRANCH  10  17
ATOM     17  C5* UNL     1       6.556   2.206  22.418  0.00  0.00    +0.190 C 
BRANCH  17  18
ATOM     18  O5* UNL     1       6.680   3.409  21.659  0.00  0.00    -0.392 OA
ATOM     19  H5* UNL     1       6.257   3.241  20.799  0.00  0.00    +0.210 HD
ENDBRANCH  17  18
ENDBRANCH  10  17
ENDBRANCH   1  13
BRANCH   8  20
ATOM     20  C   UNL     1       7.399  -4.646  23.001  0.00  0.00    +0.424 C 
ATOM     21  F   UNL     1       6.084  -4.904  23.249  0.00  0.00    -0.166 F 
ATOM     22  F   UNL     1       8.051  -5.828  23.184  0.00  0.00    -0.166 F 
ATOM     23  F   UNL     1       7.493  -4.372  21.677  0.00  0.00    -0.166 F 
ENDBRANCH   8  20
TORSDOF 5
ENDMDL
MODEL 8
REMARK VINA RESULT:      -6.3      2.629      3.466
REMARK  Name = 
REMARK  5 active torsions:
REMARK  status: ('A' for Active; 'I' for Inactive)
REMARK    1  A    between atoms: O5*_1  and  C5*_2
REMARK    2  A    between atoms: C5*_2  and  C4*_3
REMARK    3  A    between atoms: C1*_6  and  N_12
REMARK    4  A    between atoms: C3*_9  and  O3*_11
REMARK    5  A    between atoms: C_14  and  C_20
REMARK                            x       y       z     vdW  Elec       q    Type
REMARK                         _______ _______ _______ _____ _____    ______ ____
ROOT
ATOM      1  N   UNL     1       8.166  -1.818  23.623  0.00  0.00    -0.273 N 
ATOM      2  C   UNL     1       9.552  -1.900  23.641  0.00  0.00    +0.331 A 
ATOM      3  O   UNL     1      10.179  -2.928  23.877  0.00  0.00    -0.246 OA
ATOM      4  N   UNL     1      10.208  -0.743  23.314  0.00  0.00    -0.274 N 
ATOM      5  H   UNL     1      11.203  -0.846  23.184  0.00  0.00    +0.173 HD
ATOM      6  C   UNL     1       9.627   0.303  22.647  0.00  0.00    +0.266 A 
ATOM      7  O   UNL     1      10.301   1.050  21.947  0.00  0.00    -0.267 OA
ATOM      8  C   UNL     1       8.176   0.420  22.794  0.00  0.00    +0.135 A 
ATOM      9  C   UNL     1       7.521  -0.643  23.283  0.00  0.00    +0.111 A 
ENDROOT
BRANCH   1  13
ATOM     10  C4* UNL     1       6.560  -4.843  22.605  0.00  0.00    +0.175 C 
ATOM     11  C3* UNL     1       5.343  -4.059  23.085  0.00  0.00    +0.150 C 
ATOM     12  C2* UNL     1       5.915  -2.920  23.911  0.00  0.00    +0.088 C 
ATOM     13  C1* UNL     1       7.425  -3.068  23.763  0.00  0.00    +0.226 C 
ATOM     14  O4* UNL     1       7.657  -3.922  22.639  0.00  0.00    -0.348 OA
BRANCH  11  15
ATOM     15  O3* UNL     1       4.498  -4.894  23.870  0.00  0.00    -0.389 OA
ATOM     16  H3* UNL     1       4.638  -5.811  23.576  0.00  0.00    +0.210 HD
ENDBRANCH  11  15
BRANCH  10  17
ATOM     17  C5* UNL     1       6.410  -5.434  21.204  0.00  0.00    +0.190 C 
BRANCH  17  18
ATOM     18  O5* UNL     1       5.304  -6.335  21.134  0.00  0.00    -0.392 OA
ATOM     19  H5* UNL     1       5.661  -7.194  20.848  0.00  0.00    +0.210 HD
ENDBRANCH  17  18
ENDBRANCH  10  17
ENDBRANCH   1  13
BRANCH   8  20
ATOM     20  C   UNL     1       7.487   1.632  22.295  0.00  0.00    +0.424 C 
ATOM     21  F   UNL     1       7.721   1.817  20.965  0.00  0.00    -0.166 F 
ATOM     22  F   UNL     1       7.956   2.752  22.914  0.00  0.00    -0.166 F 
ATOM     23  F   UNL     1       6.142   1.657  22.454  0.00  0.00    -0.166 F 
ENDBRANCH   8  20
TORSDOF 5
ENDMDL
MODEL 9
REMARK VINA RESULT:      -6.3      3.229      6.170
REMARK  Name = 
REMARK  5 active torsions:
REMARK  status: ('A' for Active; 'I' for Inactive)
REMARK    1  A    between atoms: O5*_1  and  C5*_2
REMARK    2  A    between atoms: C5*_2  and  C4*_3
REMARK    3  A    between atoms: C1*_6  and  N_12
REMARK    4  A    between atoms: C3*_9  and  O3*_11
REMARK    5  A    between atoms: C_14  and  C_20
REMARK                            x       y       z     vdW  Elec       q    Type
REMARK                         _______ _______ _______ _____ _____    ______ ____
ROOT
ATOM      1  N   UNL     1       8.747  -0.061  23.151  0.00  0.00    -0.273 N 
ATOM      2  C   UNL     1       9.989  -0.467  23.619  0.00  0.00    +0.331 A 
ATOM      3  O   UNL     1      10.854   0.297  24.036  0.00  0.00    -0.246 OA
ATOM      4  N   UNL     1      10.186  -1.823  23.645  0.00  0.00    -0.274 N 
ATOM      5  H   UNL     1      11.026  -2.116  24.122  0.00  0.00    +0.173 HD
ATOM      6  C   UNL     1       9.173  -2.744  23.605  0.00  0.00    +0.266 A 
ATOM      7  O   UNL     1       9.310  -3.847  24.121  0.00  0.00    -0.267 OA
ATOM      8  C   UNL     1       7.938  -2.297  22.960  0.00  0.00    +0.135 A 
ATOM      9  C   UNL     1       7.792  -0.980  22.758  0.00  0.00    +0.111 A 
ENDROOT
BRANCH   1  13
ATOM     10  C4* UNL     1       6.677   2.839  23.417  0.00  0.00    +0.175 C 
ATOM     11  C3* UNL     1       7.342   3.124  22.074  0.00  0.00    +0.150 C 
ATOM     12  C2* UNL     1       8.535   2.186  22.024  0.00  0.00    +0.088 C 
ATOM     13  C1* UNL     1       8.414   1.353  23.295  0.00  0.00    +0.226 C 
ATOM     14  O4* UNL     1       7.076   1.511  23.777  0.00  0.00    -0.348 OA
BRANCH  11  15
ATOM     15  O3* UNL     1       7.751   4.487  22.007  0.00  0.00    -0.389 OA
ATOM     16  H3* UNL     1       8.719   4.497  21.899  0.00  0.00    +0.210 HD
ENDBRANCH  11  15
BRANCH  10  17
ATOM     17  C5* UNL     1       5.153   2.945  23.395  0.00  0.00    +0.190 C 
BRANCH  17  18
ATOM     18  O5* UNL     1       4.546   1.873  24.118  0.00  0.00    -0.392 OA
ATOM     19  H5* UNL     1       3.792   2.254  24.601  0.00  0.00    +0.210 HD
ENDBRANCH  17  18
ENDBRANCH  10  17
ENDBRANCH   1  13
BRANCH   8  20
ATOM     20  C   UNL     1       6.868  -3.281  22.673  0.00  0.00    +0.424 C 
ATOM     21  F   UNL     1       7.324  -4.280  21.865  0.00  0.00    -0.166 F 
ATOM     22  F   UNL     1       5.836  -2.700  21.999  0.00  0.00    -0.166 F 
ATOM     23  F   UNL     1       6.314  -3.884  23.752  0.00  0.00    -0.166 F 
ENDBRANCH   8  20
TORSDOF 5
ENDMDL
