MODEL 1
REMARK VINA RESULT:      -8.2      0.000      0.000
REMARK  Name = 
REMARK  4 active torsions:
REMARK  status: ('A' for Active; 'I' for Inactive)
REMARK    1  A    between atoms: O_1  and  N_2
REMARK    2  A    between atoms: C_3  and  C_5
REMARK    3  A    between atoms: C_8  and  C_10
REMARK    4  A    between atoms: C_20  and  C_21
REMARK                            x       y       z     vdW  Elec       q    Type
REMARK                         _______ _______ _______ _____ _____    ______ ____
ROOT
ATOM      1  C   UNL     1       8.838  -2.737  24.093  0.00  0.00    +0.254 C 
ATOM      2  N   UNL     1       8.486  -1.510  24.672  0.00  0.00    -0.288 N 
ATOM      3  C   UNL     1       7.248  -0.778  24.403  0.00  0.00    +0.182 C 
ATOM      4  C   UNL     1       7.512   0.669  24.141  0.00  0.00    +0.128 A 
ATOM      5  N   UNL     1       6.625   1.546  23.731  0.00  0.00    -0.238 NA
ATOM      6  C   UNL     1       7.323   2.709  23.567  0.00  0.00    +0.139 A 
ATOM      7  C   UNL     1       8.665   2.570  23.895  0.00  0.00    +0.069 A 
ATOM      8  N   UNL     1       8.750   1.253  24.300  0.00  0.00    -0.325 N 
ATOM      9  C   UNL     1       9.894   0.509  24.800  0.00  0.00    +0.142 C 
ATOM     10  C   UNL     1       9.466  -0.788  25.486  0.00  0.00    +0.130 C 
ATOM     11  O   UNL     1      10.015  -3.101  24.111  0.00  0.00    -0.269 OA
ENDROOT
BRANCH   7  12
ATOM     12  C   UNL     1       9.731   3.579  23.815  0.00  0.00    +0.000 A 
ATOM     13  C   UNL     1      11.023   3.286  23.360  0.00  0.00    +0.010 A 
ATOM     14  C   UNL     1      11.991   4.290  23.243  0.00  0.00    +0.001 A 
ATOM     15  C   UNL     1      11.676   5.608  23.557  0.00  0.00    +0.000 A 
ATOM     16  C   UNL     1      10.397   5.923  23.999  0.00  0.00    +0.001 A 
ATOM     17  C   UNL     1       9.437   4.916  24.133  0.00  0.00    +0.010 A 
ENDBRANCH   7  12
BRANCH   1  20
ATOM     18  C   UNL     1       5.913  -5.081  22.969  0.00  0.00    +0.077 A 
ATOM     19  S   UNL     1       6.958  -4.782  24.292  0.00  0.00    -0.079 S 
ATOM     20  C   UNL     1       7.815  -3.561  23.451  0.00  0.00    +0.075 A 
ATOM     21  C   UNL     1       7.501  -3.604  22.102  0.00  0.00    +0.021 A 
ATOM     22  C   UNL     1       6.394  -4.464  21.827  0.00  0.00    +0.021 A 
BRANCH  18  25
ATOM     23  N   UNL     1       4.912  -7.052  23.863  0.00  0.00    -0.193 N 
ATOM     24  H   UNL     1       5.799  -7.255  24.309  0.00  0.00    +0.183 HD
ATOM     25  C   UNL     1       4.720  -5.916  23.102  0.00  0.00    +0.273 C 
ATOM     26  O   UNL     1       3.642  -5.604  22.610  0.00  0.00    -0.268 OA
BRANCH  23  27
ATOM     27  O   UNL     1       3.810  -7.892  24.110  0.00  0.00    -0.295 OA
ATOM     28  H   UNL     1       3.281  -7.397  24.761  0.00  0.00    +0.241 HD
ENDBRANCH  23  27
ENDBRANCH  18  25
ENDBRANCH   1  20
TORSDOF 4
ENDMDL
MODEL 2
REMARK VINA RESULT:      -7.9      2.286      2.717
REMARK  Name = 
REMARK  4 active torsions:
REMARK  status: ('A' for Active; 'I' for Inactive)
REMARK    1  A    between atoms: O_1  and  N_2
REMARK    2  A    between atoms: C_3  and  C_5
REMARK    3  A    between atoms: C_8  and  C_10
REMARK    4  A    between atoms: C_20  and  C_21
REMARK                            x       y       z     vdW  Elec       q    Type
REMARK                         _______ _______ _______ _____ _____    ______ ____
ROOT
ATOM      1  C   UNL     1       9.403  -2.008  23.292  0.00  0.00    +0.254 C 
ATOM      2  N   UNL     1       9.591  -0.921  24.157  0.00  0.00    -0.288 N 
ATOM      3  C   UNL     1       8.779  -0.638  25.340  0.00  0.00    +0.182 C 
ATOM      4  C   UNL     1       8.369   0.797  25.395  0.00  0.00    +0.128 A 
ATOM      5  N   UNL     1       7.524   1.318  26.254  0.00  0.00    -0.238 NA
ATOM      6  C   UNL     1       7.407   2.629  25.888  0.00  0.00    +0.139 A 
ATOM      7  C   UNL     1       8.202   2.945  24.794  0.00  0.00    +0.069 A 
ATOM      8  N   UNL     1       8.842   1.752  24.522  0.00  0.00    -0.325 N 
ATOM      9  C   UNL     1       9.835   1.444  23.507  0.00  0.00    +0.142 C 
ATOM     10  C   UNL     1      10.551   0.126  23.802  0.00  0.00    +0.130 C 
ATOM     11  O   UNL     1       9.896  -1.978  22.163  0.00  0.00    -0.269 OA
ENDROOT
BRANCH   7  12
ATOM     12  C   UNL     1       8.319   4.232  24.095  0.00  0.00    +0.000 A 
ATOM     13  C   UNL     1       7.483   4.599  23.033  0.00  0.00    +0.010 A 
ATOM     14  C   UNL     1       7.589   5.859  22.433  0.00  0.00    +0.001 A 
ATOM     15  C   UNL     1       8.517   6.784  22.902  0.00  0.00    +0.000 A 
ATOM     16  C   UNL     1       9.349   6.445  23.963  0.00  0.00    +0.001 A 
ATOM     17  C   UNL     1       9.254   5.179  24.547  0.00  0.00    +0.010 A 
ENDBRANCH   7  12
BRANCH   1  20
ATOM     18  C   UNL     1       7.489  -4.945  25.032  0.00  0.00    +0.077 A 
ATOM     19  S   UNL     1       8.863  -3.941  25.224  0.00  0.00    -0.079 S 
ATOM     20  C   UNL     1       8.604  -3.154  23.724  0.00  0.00    +0.075 A 
ATOM     21  C   UNL     1       7.675  -3.856  22.974  0.00  0.00    +0.021 A 
ATOM     22  C   UNL     1       7.018  -4.874  23.732  0.00  0.00    +0.021 A 
BRANCH  18  25
ATOM     23  N   UNL     1       7.790  -5.791  27.242  0.00  0.00    -0.193 N 
ATOM     24  H   UNL     1       8.651  -5.260  27.287  0.00  0.00    +0.183 HD
ATOM     25  C   UNL     1       6.973  -5.763  26.129  0.00  0.00    +0.273 C 
ATOM     26  O   UNL     1       5.890  -6.334  26.068  0.00  0.00    -0.268 OA
BRANCH  23  27
ATOM     27  O   UNL     1       7.355  -6.495  28.379  0.00  0.00    -0.295 OA
ATOM     28  H   UNL     1       7.705  -7.394  28.245  0.00  0.00    +0.241 HD
ENDBRANCH  23  27
ENDBRANCH  18  25
ENDBRANCH   1  20
TORSDOF 4
ENDMDL
MODEL 3
REMARK VINA RESULT:      -7.8      1.762      2.291
REMARK  Name = 
REMARK  4 active torsions:
REMARK  status: ('A' for Active; 'I' for Inactive)
REMARK    1  A    between atoms: O_1  and  N_2
REMARK    2  A    between atoms: C_3  and  C_5
REMARK    3  A    between atoms: C_8  and  C_10
REMARK    4  A    between atoms: C_20  and  C_21
REMARK                            x       y       z     vdW  Elec       q    Type
REMARK                         _______ _______ _______ _____ _____    ______ ____
ROOT
ATOM      1  C   UNL     1       9.904  -1.789  23.494  0.00  0.00    +0.254 C 
ATOM      2  N   UNL     1       9.855  -0.772  24.458  0.00  0.00    -0.288 N 
ATOM      3  C   UNL     1       8.816  -0.631  25.479  0.00  0.00    +0.182 C 
ATOM      4  C   UNL     1       8.312   0.773  25.559  0.00  0.00    +0.128 A 
ATOM      5  N   UNL     1       7.288   1.177  26.274  0.00  0.00    -0.238 NA
ATOM      6  C   UNL     1       7.160   2.508  25.991  0.00  0.00    +0.139 A 
ATOM      7  C   UNL     1       8.126   2.954  25.100  0.00  0.00    +0.069 A 
ATOM      8  N   UNL     1       8.881   1.821  24.869  0.00  0.00    -0.325 N 
ATOM      9  C   UNL     1      10.067   1.649  24.047  0.00  0.00    +0.142 C 
ATOM     10  C   UNL     1      10.796   0.347  24.376  0.00  0.00    +0.130 C 
ATOM     11  O   UNL     1      10.600  -1.639  22.489  0.00  0.00    -0.269 OA
ENDROOT
BRANCH   7  12
ATOM     12  C   UNL     1       8.291   4.300  24.534  0.00  0.00    +0.000 A 
ATOM     13  C   UNL     1       9.048   5.300  25.159  0.00  0.00    +0.010 A 
ATOM     14  C   UNL     1       9.229   6.550  24.556  0.00  0.00    +0.001 A 
ATOM     15  C   UNL     1       8.676   6.813  23.306  0.00  0.00    +0.000 A 
ATOM     16  C   UNL     1       7.932   5.831  22.664  0.00  0.00    +0.001 A 
ATOM     17  C   UNL     1       7.736   4.591  23.276  0.00  0.00    +0.010 A 
ENDBRANCH   7  12
BRANCH   1  20
ATOM     18  C   UNL     1       7.500  -4.875  23.437  0.00  0.00    +0.077 A 
ATOM     19  S   UNL     1       7.640  -3.276  22.845  0.00  0.00    -0.079 S 
ATOM     20  C   UNL     1       9.113  -3.005  23.677  0.00  0.00    +0.075 A 
ATOM     21  C   UNL     1       9.319  -4.004  24.614  0.00  0.00    +0.021 A 
ATOM     22  C   UNL     1       8.403  -5.090  24.464  0.00  0.00    +0.021 A 
BRANCH  18  25
ATOM     23  N   UNL     1       5.429  -6.020  23.738  0.00  0.00    -0.193 N 
ATOM     24  H   UNL     1       5.333  -5.535  24.622  0.00  0.00    +0.183 HD
ATOM     25  C   UNL     1       6.509  -5.810  22.904  0.00  0.00    +0.273 C 
ATOM     26  O   UNL     1       6.621  -6.325  21.797  0.00  0.00    -0.268 OA
BRANCH  23  27
ATOM     27  O   UNL     1       4.385  -6.851  23.292  0.00  0.00    -0.295 OA
ATOM     28  H   UNL     1       4.606  -7.022  22.359  0.00  0.00    +0.241 HD
ENDBRANCH  23  27
ENDBRANCH  18  25
ENDBRANCH   1  20
TORSDOF 4
ENDMDL
MODEL 4
REMARK VINA RESULT:      -7.6      3.329      9.134
REMARK  Name = 
REMARK  4 active torsions:
REMARK  status: ('A' for Active; 'I' for Inactive)
REMARK    1  A    between atoms: O_1  and  N_2
REMARK    2  A    between atoms: C_3  and  C_5
REMARK    3  A    between atoms: C_8  and  C_10
REMARK    4  A    between atoms: C_20  and  C_21
REMARK                            x       y       z     vdW  Elec       q    Type
REMARK                         _______ _______ _______ _____ _____    ______ ____
ROOT
ATOM      1  C   UNL     1       8.691  -1.062  25.878  0.00  0.00    +0.254 C 
ATOM      2  N   UNL     1       8.615  -2.327  25.280  0.00  0.00    -0.288 N 
ATOM      3  C   UNL     1       8.775  -2.592  23.850  0.00  0.00    +0.182 C 
ATOM      4  C   UNL     1       7.701  -3.495  23.336  0.00  0.00    +0.128 A 
ATOM      5  N   UNL     1       7.495  -3.796  22.075  0.00  0.00    -0.238 NA
ATOM      6  C   UNL     1       6.382  -4.588  22.076  0.00  0.00    +0.139 A 
ATOM      7  C   UNL     1       5.889  -4.805  23.355  0.00  0.00    +0.069 A 
ATOM      8  N   UNL     1       6.783  -4.119  24.152  0.00  0.00    -0.325 N 
ATOM      9  C   UNL     1       6.828  -3.995  25.599  0.00  0.00    +0.142 C 
ATOM     10  C   UNL     1       8.185  -3.477  26.077  0.00  0.00    +0.130 C 
ATOM     11  O   UNL     1       8.215  -0.891  27.002  0.00  0.00    -0.269 OA
ENDROOT
BRANCH   7  12
ATOM     12  C   UNL     1       4.697  -5.568  23.754  0.00  0.00    +0.000 A 
ATOM     13  C   UNL     1       4.765  -6.737  24.523  0.00  0.00    +0.010 A 
ATOM     14  C   UNL     1       3.602  -7.399  24.932  0.00  0.00    +0.001 A 
ATOM     15  C   UNL     1       2.350  -6.889  24.600  0.00  0.00    +0.000 A 
ATOM     16  C   UNL     1       2.260  -5.724  23.848  0.00  0.00    +0.001 A 
ATOM     17  C   UNL     1       3.423  -5.075  23.425  0.00  0.00    +0.010 A 
ENDBRANCH   7  12
BRANCH   1  20
ATOM     18  C   UNL     1       9.810   2.235  24.090  0.00  0.00    +0.077 A 
ATOM     19  S   UNL     1       8.406   1.396  24.597  0.00  0.00    -0.079 S 
ATOM     20  C   UNL     1       9.307   0.050  25.155  0.00  0.00    +0.075 A 
ATOM     21  C   UNL     1      10.608   0.122  24.684  0.00  0.00    +0.021 A 
ATOM     22  C   UNL     1      10.904   1.386  24.089  0.00  0.00    +0.021 A 
BRANCH  18  25
ATOM     23  N   UNL     1      10.997   4.172  23.365  0.00  0.00    -0.193 N 
ATOM     24  H   UNL     1      11.841   3.612  23.375  0.00  0.00    +0.183 HD
ATOM     25  C   UNL     1       9.765   3.641  23.692  0.00  0.00    +0.273 C 
ATOM     26  O   UNL     1       8.715   4.270  23.620  0.00  0.00    -0.268 OA
BRANCH  23  27
ATOM     27  O   UNL     1      11.058   5.500  22.904  0.00  0.00    -0.295 OA
ATOM     28  H   UNL     1      11.769   5.899  23.437  0.00  0.00    +0.241 HD
ENDBRANCH  23  27
ENDBRANCH  18  25
ENDBRANCH   1  20
TORSDOF 4
ENDMDL
MODEL 5
REMARK VINA RESULT:      -7.5      2.471      3.535
REMARK  Name = 
REMARK  4 active torsions:
REMARK  status: ('A' for Active; 'I' for Inactive)
REMARK    1  A    between atoms: O_1  and  N_2
REMARK    2  A    between atoms: C_3  and  C_5
REMARK    3  A    between atoms: C_8  and  C_10
REMARK    4  A    between atoms: C_20  and  C_21
REMARK                            x       y       z     vdW  Elec       q    Type
REMARK                         _______ _______ _______ _____ _____    ______ ____
ROOT
ATOM      1  C   UNL     1       7.095  -5.043  25.802  0.00  0.00    +0.254 C 
ATOM      2  N   UNL     1       7.079  -3.688  26.164  0.00  0.00    -0.288 N 
ATOM      3  C   UNL     1       5.891  -2.834  26.170  0.00  0.00    +0.182 C 
ATOM      4  C   UNL     1       6.155  -1.523  25.505  0.00  0.00    +0.128 A 
ATOM      5  N   UNL     1       5.252  -0.610  25.230  0.00  0.00    -0.238 NA
ATOM      6  C   UNL     1       5.933   0.376  24.573  0.00  0.00    +0.139 A 
ATOM      7  C   UNL     1       7.286   0.091  24.447  0.00  0.00    +0.069 A 
ATOM      8  N   UNL     1       7.407  -1.123  25.093  0.00  0.00    -0.325 N 
ATOM      9  C   UNL     1       8.592  -1.930  25.333  0.00  0.00    +0.142 C 
ATOM     10  C   UNL     1       8.343  -2.990  26.405  0.00  0.00    +0.130 C 
ATOM     11  O   UNL     1       8.164  -5.578  25.503  0.00  0.00    -0.269 OA
ENDROOT
BRANCH   7  12
ATOM     12  C   UNL     1       8.325   0.886  23.778  0.00  0.00    +0.000 A 
ATOM     13  C   UNL     1       9.060   1.883  24.432  0.00  0.00    +0.010 A 
ATOM     14  C   UNL     1      10.083   2.575  23.773  0.00  0.00    +0.001 A 
ATOM     15  C   UNL     1      10.404   2.265  22.455  0.00  0.00    +0.000 A 
ATOM     16  C   UNL     1       9.695   1.271  21.791  0.00  0.00    +0.001 A 
ATOM     17  C   UNL     1       8.662   0.594  22.445  0.00  0.00    +0.010 A 
ENDBRANCH   7  12
BRANCH   1  20
ATOM     18  C   UNL     1       3.840  -7.080  25.050  0.00  0.00    +0.077 A 
ATOM     19  S   UNL     1       4.937  -5.989  24.318  0.00  0.00    -0.079 S 
ATOM     20  C   UNL     1       5.846  -5.800  25.757  0.00  0.00    +0.075 A 
ATOM     21  C   UNL     1       5.144  -6.321  26.832  0.00  0.00    +0.021 A 
ATOM     22  C   UNL     1       4.000  -7.074  26.425  0.00  0.00    +0.021 A 
BRANCH  18  25
ATOM     23  N   UNL     1       2.599  -7.300  23.025  0.00  0.00    -0.193 N 
ATOM     24  H   UNL     1       3.061  -6.462  22.695  0.00  0.00    +0.183 HD
ATOM     25  C   UNL     1       2.873  -7.845  24.263  0.00  0.00    +0.273 C 
ATOM     26  O   UNL     1       2.387  -8.897  24.664  0.00  0.00    -0.268 OA
BRANCH  23  27
ATOM     27  O   UNL     1       1.732  -7.993  22.161  0.00  0.00    -0.295 OA
ATOM     28  H   UNL     1       1.890  -8.930  22.375  0.00  0.00    +0.241 HD
ENDBRANCH  23  27
ENDBRANCH  18  25
ENDBRANCH   1  20
TORSDOF 4
ENDMDL
MODEL 6
REMARK VINA RESULT:      -7.4      3.998      9.249
REMARK  Name = 
REMARK  4 active torsions:
REMARK  status: ('A' for Active; 'I' for Inactive)
REMARK    1  A    between atoms: O_1  and  N_2
REMARK    2  A    between atoms: C_3  and  C_5
REMARK    3  A    between atoms: C_8  and  C_10
REMARK    4  A    between atoms: C_20  and  C_21
REMARK                            x       y       z     vdW  Elec       q    Type
REMARK                         _______ _______ _______ _____ _____    ______ ____
ROOT
ATOM      1  C   UNL     1       7.602   2.800  23.202  0.00  0.00    +0.254 C 
ATOM      2  N   UNL     1       7.234   1.810  24.124  0.00  0.00    -0.288 N 
ATOM      3  C   UNL     1       8.036   1.396  25.276  0.00  0.00    +0.182 C 
ATOM      4  C   UNL     1       8.126  -0.092  25.375  0.00  0.00    +0.128 A 
ATOM      5  N   UNL     1       8.888  -0.756  26.213  0.00  0.00    -0.238 NA
ATOM      6  C   UNL     1       8.695  -2.073  25.901  0.00  0.00    +0.139 A 
ATOM      7  C   UNL     1       7.785  -2.242  24.866  0.00  0.00    +0.069 A 
ATOM      8  N   UNL     1       7.406  -0.948  24.573  0.00  0.00    -0.325 N 
ATOM      9  C   UNL     1       6.443  -0.463  23.597  0.00  0.00    +0.142 C 
ATOM     10  C   UNL     1       6.051   0.989  23.868  0.00  0.00    +0.130 C 
ATOM     11  O   UNL     1       7.047   2.842  22.103  0.00  0.00    -0.269 OA
ENDROOT
BRANCH   7  12
ATOM     12  C   UNL     1       7.350  -3.495  24.233  0.00  0.00    +0.000 A 
ATOM     13  C   UNL     1       6.507  -4.416  24.868  0.00  0.00    +0.010 A 
ATOM     14  C   UNL     1       6.068  -5.568  24.207  0.00  0.00    +0.001 A 
ATOM     15  C   UNL     1       6.445  -5.807  22.889  0.00  0.00    +0.000 A 
ATOM     16  C   UNL     1       7.271  -4.901  22.235  0.00  0.00    +0.001 A 
ATOM     17  C   UNL     1       7.724  -3.761  22.904  0.00  0.00    +0.010 A 
ENDBRANCH   7  12
BRANCH   1  20
ATOM     18  C   UNL     1      10.799   4.988  23.752  0.00  0.00    +0.077 A 
ATOM     19  S   UNL     1      10.319   3.393  23.358  0.00  0.00    -0.079 S 
ATOM     20  C   UNL     1       8.655   3.757  23.540  0.00  0.00    +0.075 A 
ATOM     21  C   UNL     1       8.503   4.977  24.179  0.00  0.00    +0.021 A 
ATOM     22  C   UNL     1       9.734   5.695  24.284  0.00  0.00    +0.021 A 
BRANCH  18  25
ATOM     23  N   UNL     1      12.654   5.269  22.278  0.00  0.00    -0.193 N 
ATOM     24  H   UNL     1      12.078   4.880  21.541  0.00  0.00    +0.183 HD
ATOM     25  C   UNL     1      12.174   5.449  23.560  0.00  0.00    +0.273 C 
ATOM     26  O   UNL     1      12.818   5.983  24.457  0.00  0.00    -0.268 OA
BRANCH  23  27
ATOM     27  O   UNL     1      13.943   5.739  21.969  0.00  0.00    -0.295 OA
ATOM     28  H   UNL     1      14.299   5.063  21.365  0.00  0.00    +0.241 HD
ENDBRANCH  23  27
ENDBRANCH  18  25
ENDBRANCH   1  20
TORSDOF 4
ENDMDL
MODEL 7
REMARK VINA RESULT:      -7.4      3.997      8.822
REMARK  Name = 
REMARK  4 active torsions:
REMARK  status: ('A' for Active; 'I' for Inactive)
REMARK    1  A    between atoms: O_1  and  N_2
REMARK    2  A    between atoms: C_3  and  C_5
REMARK    3  A    between atoms: C_8  and  C_10
REMARK    4  A    between atoms: C_20  and  C_21
REMARK                            x       y       z     vdW  Elec       q    Type
REMARK                         _______ _______ _______ _____ _____    ______ ____
ROOT
ATOM      1  C   UNL     1       9.315  -1.913  23.190  0.00  0.00    +0.254 C 
ATOM      2  N   UNL     1       8.041  -2.496  23.256  0.00  0.00    -0.288 N 
ATOM      3  C   UNL     1       6.787  -1.758  23.404  0.00  0.00    +0.182 C 
ATOM      4  C   UNL     1       5.915  -2.362  24.456  0.00  0.00    +0.128 A 
ATOM      5  N   UNL     1       4.798  -1.845  24.913  0.00  0.00    -0.238 NA
ATOM      6  C   UNL     1       4.387  -2.700  25.897  0.00  0.00    +0.139 A 
ATOM      7  C   UNL     1       5.245  -3.780  26.051  0.00  0.00    +0.069 A 
ATOM      8  N   UNL     1       6.202  -3.556  25.080  0.00  0.00    -0.325 N 
ATOM      9  C   UNL     1       7.356  -4.360  24.715  0.00  0.00    +0.142 C 
ATOM     10  C   UNL     1       7.918  -3.951  23.354  0.00  0.00    +0.130 C 
ATOM     11  O   UNL     1      10.311  -2.605  23.407  0.00  0.00    -0.269 OA
ENDROOT
BRANCH   7  12
ATOM     12  C   UNL     1       5.158  -4.881  27.020  0.00  0.00    +0.000 A 
ATOM     13  C   UNL     1       6.162  -5.148  27.960  0.00  0.00    +0.010 A 
ATOM     14  C   UNL     1       6.012  -6.169  28.905  0.00  0.00    +0.001 A 
ATOM     15  C   UNL     1       4.844  -6.925  28.942  0.00  0.00    +0.000 A 
ATOM     16  C   UNL     1       3.830  -6.669  28.027  0.00  0.00    +0.001 A 
ATOM     17  C   UNL     1       3.990  -5.662  27.072  0.00  0.00    +0.010 A 
ENDBRANCH   7  12
BRANCH   1  20
ATOM     18  C   UNL     1       9.808   1.965  23.010  0.00  0.00    +0.077 A 
ATOM     19  S   UNL     1       9.412   0.715  24.110  0.00  0.00    -0.079 S 
ATOM     20  C   UNL     1       9.450  -0.488  22.891  0.00  0.00    +0.075 A 
ATOM     21  C   UNL     1       9.464   0.106  21.639  0.00  0.00    +0.021 A 
ATOM     22  C   UNL     1       9.689   1.515  21.705  0.00  0.00    +0.021 A 
BRANCH  18  25
ATOM     23  N   UNL     1      11.317   3.808  22.880  0.00  0.00    -0.193 N 
ATOM     24  H   UNL     1      11.828   3.290  22.175  0.00  0.00    +0.183 HD
ATOM     25  C   UNL     1      10.171   3.306  23.465  0.00  0.00    +0.273 C 
ATOM     26  O   UNL     1       9.488   3.934  24.267  0.00  0.00    -0.268 OA
BRANCH  23  27
ATOM     27  O   UNL     1      11.718   5.118  23.198  0.00  0.00    -0.295 OA
ATOM     28  H   UNL     1      11.681   5.143  24.171  0.00  0.00    +0.241 HD
ENDBRANCH  23  27
ENDBRANCH  18  25
ENDBRANCH   1  20
TORSDOF 4
ENDMDL
MODEL 8
REMARK VINA RESULT:      -7.3      2.191      3.575
REMARK  Name = 
REMARK  4 active torsions:
REMARK  status: ('A' for Active; 'I' for Inactive)
REMARK    1  A    between atoms: O_1  and  N_2
REMARK    2  A    between atoms: C_3  and  C_5
REMARK    3  A    between atoms: C_8  and  C_10
REMARK    4  A    between atoms: C_20  and  C_21
REMARK                            x       y       z     vdW  Elec       q    Type
REMARK                         _______ _______ _______ _____ _____    ______ ____
ROOT
ATOM      1  C   UNL     1       5.533  -3.837  22.831  0.00  0.00    +0.254 C 
ATOM      2  N   UNL     1       6.760  -3.514  23.426  0.00  0.00    -0.288 N 
ATOM      3  C   UNL     1       7.028  -3.534  24.864  0.00  0.00    +0.182 C 
ATOM      4  C   UNL     1       7.733  -2.294  25.308  0.00  0.00    +0.128 A 
ATOM      5  N   UNL     1       7.979  -1.960  26.554  0.00  0.00    -0.238 NA
ATOM      6  C   UNL     1       8.576  -0.733  26.482  0.00  0.00    +0.139 A 
ATOM      7  C   UNL     1       8.726  -0.295  25.173  0.00  0.00    +0.069 A 
ATOM      8  N   UNL     1       8.208  -1.341  24.435  0.00  0.00    -0.325 N 
ATOM      9  C   UNL     1       8.113  -1.500  22.994  0.00  0.00    +0.142 C 
ATOM     10  C   UNL     1       7.834  -2.951  22.605  0.00  0.00    +0.130 C 
ATOM     11  O   UNL     1       5.302  -3.471  21.677  0.00  0.00    -0.269 OA
ENDROOT
BRANCH   7  12
ATOM     12  C   UNL     1       9.286   0.978  24.698  0.00  0.00    +0.000 A 
ATOM     13  C   UNL     1      10.577   1.090  24.166  0.00  0.00    +0.010 A 
ATOM     14  C   UNL     1      11.049   2.310  23.670  0.00  0.00    +0.001 A 
ATOM     15  C   UNL     1      10.229   3.434  23.674  0.00  0.00    +0.000 A 
ATOM     16  C   UNL     1       8.941   3.343  24.185  0.00  0.00    +0.001 A 
ATOM     17  C   UNL     1       8.478   2.128  24.698  0.00  0.00    +0.010 A 
ENDBRANCH   7  12
BRANCH   1  20
ATOM     18  C   UNL     1       3.179  -6.347  24.694  0.00  0.00    +0.077 A 
ATOM     19  S   UNL     1       4.304  -6.270  23.407  0.00  0.00    -0.079 S 
ATOM     20  C   UNL     1       4.528  -4.582  23.589  0.00  0.00    +0.075 A 
ATOM     21  C   UNL     1       3.541  -4.058  24.408  0.00  0.00    +0.021 A 
ATOM     22  C   UNL     1       2.776  -5.073  25.059  0.00  0.00    +0.021 A 
BRANCH  18  25
ATOM     23  N   UNL     1       2.184  -7.526  26.513  0.00  0.00    -0.193 N 
ATOM     24  H   UNL     1       2.087  -6.636  26.988  0.00  0.00    +0.183 HD
ATOM     25  C   UNL     1       2.726  -7.623  25.247  0.00  0.00    +0.273 C 
ATOM     26  O   UNL     1       2.791  -8.672  24.616  0.00  0.00    -0.268 OA
BRANCH  23  27
ATOM     27  O   UNL     1       1.656  -8.685  27.111  0.00  0.00    -0.295 OA
ATOM     28  H   UNL     1       2.248  -8.848  27.867  0.00  0.00    +0.241 HD
ENDBRANCH  23  27
ENDBRANCH  18  25
ENDBRANCH   1  20
TORSDOF 4
ENDMDL
MODEL 9
REMARK VINA RESULT:      -6.9      3.781      9.026
REMARK  Name = 
REMARK  4 active torsions:
REMARK  status: ('A' for Active; 'I' for Inactive)
REMARK    1  A    between atoms: O_1  and  N_2
REMARK    2  A    between atoms: C_3  and  C_5
REMARK    3  A    between atoms: C_8  and  C_10
REMARK    4  A    between atoms: C_20  and  C_21
REMARK                            x       y       z     vdW  Elec       q    Type
REMARK                         _______ _______ _______ _____ _____    ______ ____
ROOT
ATOM      1  C   UNL     1       7.946   0.839  25.663  0.00  0.00    +0.254 C 
ATOM      2  N   UNL     1       8.248  -0.474  25.276  0.00  0.00    -0.288 N 
ATOM      3  C   UNL     1       8.666  -0.878  23.933  0.00  0.00    +0.182 C 
ATOM      4  C   UNL     1       7.913  -2.079  23.462  0.00  0.00    +0.128 A 
ATOM      5  N   UNL     1       7.963  -2.586  22.252  0.00  0.00    -0.238 NA
ATOM      6  C   UNL     1       7.073  -3.623  22.264  0.00  0.00    +0.139 A 
ATOM      7  C   UNL     1       6.465  -3.783  23.502  0.00  0.00    +0.069 A 
ATOM      8  N   UNL     1       7.056  -2.797  24.267  0.00  0.00    -0.325 N 
ATOM      9  C   UNL     1       6.865  -2.475  25.671  0.00  0.00    +0.142 C 
ATOM     10  C   UNL     1       7.984  -1.578  26.200  0.00  0.00    +0.130 C 
ATOM     11  O   UNL     1       7.290   1.034  26.688  0.00  0.00    -0.269 OA
ENDROOT
BRANCH   7  12
ATOM     12  C   UNL     1       5.436  -4.757  23.892  0.00  0.00    +0.000 A 
ATOM     13  C   UNL     1       5.683  -5.810  24.783  0.00  0.00    +0.010 A 
ATOM     14  C   UNL     1       4.659  -6.679  25.174  0.00  0.00    +0.001 A 
ATOM     15  C   UNL     1       3.364  -6.497  24.699  0.00  0.00    +0.000 A 
ATOM     16  C   UNL     1       3.094  -5.452  23.824  0.00  0.00    +0.001 A 
ATOM     17  C   UNL     1       4.122  -4.596  23.420  0.00  0.00    +0.010 A 
ENDBRANCH   7  12
BRANCH   1  20
ATOM     18  C   UNL     1       8.538   4.073  23.542  0.00  0.00    +0.077 A 
ATOM     19  S   UNL     1       7.288   3.040  24.088  0.00  0.00    -0.079 S 
ATOM     20  C   UNL     1       8.388   1.963  24.839  0.00  0.00    +0.075 A 
ATOM     21  C   UNL     1       9.679   2.233  24.415  0.00  0.00    +0.021 A 
ATOM     22  C   UNL     1       9.770   3.457  23.685  0.00  0.00    +0.021 A 
BRANCH  18  25
ATOM     23  N   UNL     1       7.497   5.360  21.824  0.00  0.00    -0.193 N 
ATOM     24  H   UNL     1       7.149   4.492  21.437  0.00  0.00    +0.183 HD
ATOM     25  C   UNL     1       8.256   5.393  22.977  0.00  0.00    +0.273 C 
ATOM     26  O   UNL     1       8.633   6.430  23.512  0.00  0.00    -0.268 OA
BRANCH  23  27
ATOM     27  O   UNL     1       7.113   6.579  21.236  0.00  0.00    -0.295 OA
ATOM     28  H   UNL     1       6.403   6.326  20.619  0.00  0.00    +0.241 HD
ENDBRANCH  23  27
ENDBRANCH  18  25
ENDBRANCH   1  20
TORSDOF 4
ENDMDL
