MODEL 1
REMARK VINA RESULT:      -3.7      0.000      0.000
REMARK  Name = 
REMARK  1 active torsions:
REMARK  status: ('A' for Active; 'I' for Inactive)
REMARK    1  A    between atoms: O_1  and  C_2
REMARK                            x       y       z     vdW  Elec       q    Type
REMARK                         _______ _______ _______ _____ _____    ______ ____
ROOT
ATOM      1  C   UNL     1       9.358   2.008  22.348  0.00  0.00    +0.115 C 
ATOM      2  C   UNL     1       9.703   1.760  23.816  0.00  0.00    +0.031 C 
ATOM      3  C   UNL     1      10.686   0.600  23.989  0.00  0.00    +0.002 C 
ATOM      4  C   UNL     1      10.187  -0.669  23.305  0.00  0.00    +0.000 C 
ATOM      5  C   UNL     1       9.859  -0.426  21.834  0.00  0.00    +0.002 C 
ATOM      6  C   UNL     1       8.873   0.730  21.661  0.00  0.00    +0.031 C 
ENDROOT
BRANCH   1   7
ATOM      7  O   UNL     1      10.518   2.503  21.682  0.00  0.00    -0.392 OA
ATOM      8  H   UNL     1      10.942   3.149  22.273  0.00  0.00    +0.210 HD
ENDBRANCH   1   7
TORSDOF 1
ENDMDL
MODEL 2
REMARK VINA RESULT:      -3.7      1.658      2.822
REMARK  Name = 
REMARK  1 active torsions:
REMARK  status: ('A' for Active; 'I' for Inactive)
REMARK    1  A    between atoms: O_1  and  C_2
REMARK                            x       y       z     vdW  Elec       q    Type
REMARK                         _______ _______ _______ _____ _____    ______ ____
ROOT
ATOM      1  C   UNL     1       9.296  -0.940  22.329  0.00  0.00    +0.115 C 
ATOM      2  C   UNL     1       8.992   0.409  21.678  0.00  0.00    +0.031 C 
ATOM      3  C   UNL     1      10.063   1.455  21.993  0.00  0.00    +0.002 C 
ATOM      4  C   UNL     1      10.293   1.592  23.495  0.00  0.00    +0.000 C 
ATOM      5  C   UNL     1      10.613   0.248  24.143  0.00  0.00    +0.002 C 
ATOM      6  C   UNL     1       9.540  -0.796  23.832  0.00  0.00    +0.031 C 
ENDROOT
BRANCH   1   7
ATOM      7  O   UNL     1      10.448  -1.501  21.704  0.00  0.00    -0.392 OA
ATOM      8  H   UNL     1      11.055  -1.785  22.409  0.00  0.00    +0.210 HD
ENDBRANCH   1   7
TORSDOF 1
ENDMDL
MODEL 3
REMARK VINA RESULT:      -3.5      1.745      2.577
REMARK  Name = 
REMARK  1 active torsions:
REMARK  status: ('A' for Active; 'I' for Inactive)
REMARK    1  A    between atoms: O_1  and  C_2
REMARK                            x       y       z     vdW  Elec       q    Type
REMARK                         _______ _______ _______ _____ _____    ______ ____
ROOT
ATOM      1  C   UNL     1      10.124  -0.620  23.708  0.00  0.00    +0.115 C 
ATOM      2  C   UNL     1      10.847   0.629  24.212  0.00  0.00    +0.031 C 
ATOM      3  C   UNL     1      10.230   1.915  23.657  0.00  0.00    +0.002 C 
ATOM      4  C   UNL     1      10.144   1.887  22.134  0.00  0.00    +0.000 C 
ATOM      5  C   UNL     1       9.407   0.649  21.632  0.00  0.00    +0.002 C 
ATOM      6  C   UNL     1      10.026  -0.636  22.182  0.00  0.00    +0.031 C 
ENDROOT
BRANCH   1   7
ATOM      7  O   UNL     1       8.816  -0.651  24.276  0.00  0.00    -0.392 OA
ATOM      8  H   UNL     1       8.238  -1.129  23.656  0.00  0.00    +0.210 HD
ENDBRANCH   1   7
TORSDOF 1
ENDMDL
MODEL 4
REMARK VINA RESULT:      -3.5      1.271      2.316
REMARK  Name = 
REMARK  1 active torsions:
REMARK  status: ('A' for Active; 'I' for Inactive)
REMARK    1  A    between atoms: O_1  and  C_2
REMARK                            x       y       z     vdW  Elec       q    Type
REMARK                         _______ _______ _______ _____ _____    ______ ____
ROOT
ATOM      1  C   UNL     1      10.319   2.011  23.739  0.00  0.00    +0.115 C 
ATOM      2  C   UNL     1      10.233   1.967  22.213  0.00  0.00    +0.031 C 
ATOM      3  C   UNL     1       9.478   0.733  21.713  0.00  0.00    +0.002 C 
ATOM      4  C   UNL     1      10.064  -0.555  22.283  0.00  0.00    +0.000 C 
ATOM      5  C   UNL     1      10.133  -0.519  23.807  0.00  0.00    +0.002 C 
ATOM      6  C   UNL     1      10.892   0.711  24.307  0.00  0.00    +0.031 C 
ENDROOT
BRANCH   1   7
ATOM      7  O   UNL     1       9.012   2.232  24.264  0.00  0.00    -0.392 OA
ATOM      8  H   UNL     1       8.427   1.549  23.893  0.00  0.00    +0.210 HD
ENDBRANCH   1   7
TORSDOF 1
ENDMDL
MODEL 5
REMARK VINA RESULT:      -3.4      1.364      2.341
REMARK  Name = 
REMARK  1 active torsions:
REMARK  status: ('A' for Active; 'I' for Inactive)
REMARK    1  A    between atoms: O_1  and  C_2
REMARK                            x       y       z     vdW  Elec       q    Type
REMARK                         _______ _______ _______ _____ _____    ______ ____
ROOT
ATOM      1  C   UNL     1       9.439   0.469  21.799  0.00  0.00    +0.115 C 
ATOM      2  C   UNL     1      10.097  -0.707  22.520  0.00  0.00    +0.031 C 
ATOM      3  C   UNL     1      10.200  -0.475  24.028  0.00  0.00    +0.002 C 
ATOM      4  C   UNL     1      10.896   0.845  24.349  0.00  0.00    +0.000 C 
ATOM      5  C   UNL     1      10.228   2.022  23.644  0.00  0.00    +0.002 C 
ATOM      6  C   UNL     1      10.130   1.792  22.135  0.00  0.00    +0.031 C 
ENDROOT
BRANCH   1   7
ATOM      7  O   UNL     1       8.067   0.530  22.182  0.00  0.00    -0.392 OA
ATOM      8  H   UNL     1       8.036   0.765  23.125  0.00  0.00    +0.210 HD
ENDBRANCH   1   7
TORSDOF 1
ENDMDL
MODEL 6
REMARK VINA RESULT:      -3.4      1.530      2.467
REMARK  Name = 
REMARK  1 active torsions:
REMARK  status: ('A' for Active; 'I' for Inactive)
REMARK    1  A    between atoms: O_1  and  C_2
REMARK                            x       y       z     vdW  Elec       q    Type
REMARK                         _______ _______ _______ _____ _____    ______ ____
ROOT
ATOM      1  C   UNL     1       9.989   0.533  24.445  0.00  0.00    +0.115 C 
ATOM      2  C   UNL     1       9.732  -0.901  23.978  0.00  0.00    +0.031 C 
ATOM      3  C   UNL     1      10.223  -1.137  22.549  0.00  0.00    +0.002 C 
ATOM      4  C   UNL     1       9.642  -0.115  21.577  0.00  0.00    +0.000 C 
ATOM      5  C   UNL     1       9.913   1.316  22.033  0.00  0.00    +0.002 C 
ATOM      6  C   UNL     1       9.419   1.555  23.460  0.00  0.00    +0.031 C 
ENDROOT
BRANCH   1   7
ATOM      7  O   UNL     1      11.395   0.725  24.580  0.00  0.00    -0.392 OA
ATOM      8  H   UNL     1      11.558   1.081  25.470  0.00  0.00    +0.210 HD
ENDBRANCH   1   7
TORSDOF 1
ENDMDL
MODEL 7
REMARK VINA RESULT:      -3.3      6.011      7.001
REMARK  Name = 
REMARK  1 active torsions:
REMARK  status: ('A' for Active; 'I' for Inactive)
REMARK    1  A    between atoms: O_1  and  C_2
REMARK                            x       y       z     vdW  Elec       q    Type
REMARK                         _______ _______ _______ _____ _____    ______ ____
ROOT
ATOM      1  C   UNL     1       9.388  -4.780  25.900  0.00  0.00    +0.115 C 
ATOM      2  C   UNL     1       8.124  -4.919  26.750  0.00  0.00    +0.031 C 
ATOM      3  C   UNL     1       6.944  -5.462  25.942  0.00  0.00    +0.002 C 
ATOM      4  C   UNL     1       6.691  -4.633  24.687  0.00  0.00    +0.000 C 
ATOM      5  C   UNL     1       7.947  -4.509  23.829  0.00  0.00    +0.002 C 
ATOM      6  C   UNL     1       9.126  -3.962  24.634  0.00  0.00    +0.031 C 
ENDROOT
BRANCH   1   7
ATOM      7  O   UNL     1       9.847  -6.083  25.546  0.00  0.00    -0.392 OA
ATOM      8  H   UNL     1      10.334  -6.439  26.308  0.00  0.00    +0.210 HD
ENDBRANCH   1   7
TORSDOF 1
ENDMDL
MODEL 8
REMARK VINA RESULT:      -3.3      1.313      2.688
REMARK  Name = 
REMARK  1 active torsions:
REMARK  status: ('A' for Active; 'I' for Inactive)
REMARK    1  A    between atoms: O_1  and  C_2
REMARK                            x       y       z     vdW  Elec       q    Type
REMARK                         _______ _______ _______ _____ _____    ______ ____
ROOT
ATOM      1  C   UNL     1       9.044   1.669  21.989  0.00  0.00    +0.115 C 
ATOM      2  C   UNL     1       8.046   2.786  22.294  0.00  0.00    +0.031 C 
ATOM      3  C   UNL     1       8.475   3.631  23.495  0.00  0.00    +0.002 C 
ATOM      4  C   UNL     1       8.750   2.767  24.723  0.00  0.00    +0.000 C 
ATOM      5  C   UNL     1       9.760   1.664  24.423  0.00  0.00    +0.002 C 
ATOM      6  C   UNL     1       9.328   0.816  23.226  0.00  0.00    +0.031 C 
ENDROOT
BRANCH   1   7
ATOM      7  O   UNL     1      10.256   2.255  21.518  0.00  0.00    -0.392 OA
ATOM      8  H   UNL     1      10.685   1.610  20.930  0.00  0.00    +0.210 HD
ENDBRANCH   1   7
TORSDOF 1
ENDMDL
MODEL 9
REMARK VINA RESULT:      -3.2      7.286      8.145
REMARK  Name = 
REMARK  1 active torsions:
REMARK  status: ('A' for Active; 'I' for Inactive)
REMARK    1  A    between atoms: O_1  and  C_2
REMARK                            x       y       z     vdW  Elec       q    Type
REMARK                         _______ _______ _______ _____ _____    ______ ____
ROOT
ATOM      1  C   UNL     1       4.826  -5.887  23.014  0.00  0.00    +0.115 C 
ATOM      2  C   UNL     1       5.750  -5.799  21.799  0.00  0.00    +0.031 C 
ATOM      3  C   UNL     1       7.220  -5.984  22.178  0.00  0.00    +0.002 C 
ATOM      4  C   UNL     1       7.644  -5.018  23.280  0.00  0.00    +0.000 C 
ATOM      5  C   UNL     1       6.733  -5.118  24.501  0.00  0.00    +0.002 C 
ATOM      6  C   UNL     1       5.264  -4.928  24.123  0.00  0.00    +0.031 C 
ENDROOT
BRANCH   1   7
ATOM      7  O   UNL     1       4.839  -7.227  23.502  0.00  0.00    -0.392 OA
ATOM      8  H   UNL     1       5.535  -7.708  23.021  0.00  0.00    +0.210 HD
ENDBRANCH   1   7
TORSDOF 1
ENDMDL
