MODEL 1
REMARK VINA RESULT:      -6.2      0.000      0.000
REMARK  Name = 
REMARK  3 active torsions:
REMARK  status: ('A' for Active; 'I' for Inactive)
REMARK    1  A    between atoms: N_1  and  S_2
REMARK    2  A    between atoms: S_2  and  C_5
REMARK    3  A    between atoms: C_8  and  C_10
REMARK                            x       y       z     vdW  Elec       q    Type
REMARK                         _______ _______ _______ _____ _____    ______ ____
ROOT
ATOM      1  C   UNL     1       8.456  -3.598  25.169  0.00  0.00    +0.254 A 
ATOM      2  S   UNL     1       8.063  -1.944  25.108  0.00  0.00    -0.026 S 
ATOM      3  C   UNL     1       9.420  -1.730  24.061  0.00  0.00    +0.135 A 
ATOM      4  N   UNL     1      10.114  -2.842  23.883  0.00  0.00    -0.139 NA
ATOM      5  N   UNL     1       9.549  -3.939  24.522  0.00  0.00    -0.120 NA
ENDROOT
BRANCH   3   6
ATOM      6  C   UNL     1       9.829  -0.391  23.598  0.00  0.00    +0.027 A 
ATOM      7  C   UNL     1       9.675   0.094  22.284  0.00  0.00    +0.051 A 
ATOM      8 CL   UNL     1       9.200  -0.895  20.944  0.00  0.00    -0.083 Cl
ATOM      9  C   UNL     1       9.966   1.431  21.976  0.00  0.00    +0.020 A 
ATOM     10  C   UNL     1      10.460   2.292  22.952  0.00  0.00    +0.001 A 
ATOM     11  C   UNL     1      10.694   1.812  24.236  0.00  0.00    +0.001 A 
ATOM     12  C   UNL     1      10.382   0.486  24.553  0.00  0.00    +0.012 A 
ENDBRANCH   3   6
BRANCH   1  13
ATOM     13  S   UNL     1       7.418  -4.643  26.130  0.00  0.00    +0.081 S 
ATOM     14  O   UNL     1       6.733  -3.778  27.064  0.00  0.00    -0.151 OA
ATOM     15  O   UNL     1       6.699  -5.486  25.204  0.00  0.00    -0.151 OA
BRANCH  13  16
ATOM     16  N   UNL     1       8.351  -5.665  27.094  0.00  0.00    -0.202 NA
ATOM     17  H   UNL     1       8.940  -6.262  26.515  0.00  0.00    +0.144 HD
ATOM     18  H   UNL     1       8.907  -5.093  27.732  0.00  0.00    +0.144 HD
ENDBRANCH  13  16
ENDBRANCH   1  13
TORSDOF 3
ENDMDL
MODEL 2
REMARK VINA RESULT:      -6.1      2.396      3.026
REMARK  Name = 
REMARK  3 active torsions:
REMARK  status: ('A' for Active; 'I' for Inactive)
REMARK    1  A    between atoms: N_1  and  S_2
REMARK    2  A    between atoms: S_2  and  C_5
REMARK    3  A    between atoms: C_8  and  C_10
REMARK                            x       y       z     vdW  Elec       q    Type
REMARK                         _______ _______ _______ _____ _____    ______ ____
ROOT
ATOM      1  C   UNL     1       7.750  -4.075  23.177  0.00  0.00    +0.254 A 
ATOM      2  S   UNL     1       7.374  -2.491  22.686  0.00  0.00    -0.026 S 
ATOM      3  C   UNL     1       8.921  -2.009  23.287  0.00  0.00    +0.135 A 
ATOM      4  N   UNL     1       9.577  -2.998  23.870  0.00  0.00    -0.139 NA
ATOM      5  N   UNL     1       8.900  -4.210  23.801  0.00  0.00    -0.120 NA
ENDROOT
BRANCH   3   6
ATOM      6  C   UNL     1       9.335  -0.594  23.296  0.00  0.00    +0.027 A 
ATOM      7  C   UNL     1       9.599   0.165  24.452  0.00  0.00    +0.051 A 
ATOM      8 CL   UNL     1       9.246  -0.376  26.059  0.00  0.00    -0.083 Cl
ATOM      9  C   UNL     1      10.124   1.462  24.353  0.00  0.00    +0.020 A 
ATOM     10  C   UNL     1      10.346   2.043  23.107  0.00  0.00    +0.001 A 
ATOM     11  C   UNL     1      10.018   1.340  21.954  0.00  0.00    +0.001 A 
ATOM     12  C   UNL     1       9.518   0.037  22.048  0.00  0.00    +0.012 A 
ENDBRANCH   3   6
BRANCH   1  13
ATOM     13  S   UNL     1       6.554  -5.326  22.867  0.00  0.00    +0.081 S 
ATOM     14  O   UNL     1       7.197  -6.286  21.997  0.00  0.00    -0.151 OA
ATOM     15  O   UNL     1       6.002  -5.706  24.145  0.00  0.00    -0.151 OA
BRANCH  13  16
ATOM     16  N   UNL     1       5.282  -4.703  21.952  0.00  0.00    -0.202 NA
ATOM     17  H   UNL     1       5.401  -4.940  20.967  0.00  0.00    +0.144 HD
ATOM     18  H   UNL     1       4.404  -5.069  22.323  0.00  0.00    +0.144 HD
ENDBRANCH  13  16
ENDBRANCH   1  13
TORSDOF 3
ENDMDL
MODEL 3
REMARK VINA RESULT:      -5.9      2.934      3.392
REMARK  Name = 
REMARK  3 active torsions:
REMARK  status: ('A' for Active; 'I' for Inactive)
REMARK    1  A    between atoms: N_1  and  S_2
REMARK    2  A    between atoms: S_2  and  C_5
REMARK    3  A    between atoms: C_8  and  C_10
REMARK                            x       y       z     vdW  Elec       q    Type
REMARK                         _______ _______ _______ _____ _____    ______ ____
ROOT
ATOM      1  C   UNL     1       6.818  -4.494  22.891  0.00  0.00    +0.254 A 
ATOM      2  S   UNL     1       6.801  -2.808  22.672  0.00  0.00    -0.026 S 
ATOM      3  C   UNL     1       8.366  -2.765  23.404  0.00  0.00    +0.135 A 
ATOM      4  N   UNL     1       8.769  -3.951  23.827  0.00  0.00    -0.139 NA
ATOM      5  N   UNL     1       7.871  -4.967  23.522  0.00  0.00    -0.120 NA
ENDROOT
BRANCH   3   6
ATOM      6  C   UNL     1       9.052  -1.489  23.676  0.00  0.00    +0.027 A 
ATOM      7  C   UNL     1       9.310  -0.965  24.958  0.00  0.00    +0.051 A 
ATOM      8 CL   UNL     1       8.647  -1.624  26.417  0.00  0.00    -0.083 Cl
ATOM      9  C   UNL     1      10.094   0.187  25.117  0.00  0.00    +0.020 A 
ATOM     10  C   UNL     1      10.590   0.864  24.006  0.00  0.00    +0.001 A 
ATOM     11  C   UNL     1      10.281   0.409  22.730  0.00  0.00    +0.001 A 
ATOM     12  C   UNL     1       9.520  -0.754  22.568  0.00  0.00    +0.012 A 
ENDBRANCH   3   6
BRANCH   1  13
ATOM     13  S   UNL     1       5.422  -5.400  22.322  0.00  0.00    +0.081 S 
ATOM     14  O   UNL     1       4.271  -4.564  22.579  0.00  0.00    -0.151 OA
ATOM     15  O   UNL     1       5.740  -5.872  20.996  0.00  0.00    -0.151 OA
BRANCH  13  16
ATOM     16  N   UNL     1       5.183  -6.766  23.281  0.00  0.00    -0.202 NA
ATOM     17  H   UNL     1       4.403  -7.320  22.926  0.00  0.00    +0.144 HD
ATOM     18  H   UNL     1       6.049  -7.307  23.301  0.00  0.00    +0.144 HD
ENDBRANCH  13  16
ENDBRANCH   1  13
TORSDOF 3
ENDMDL
MODEL 4
REMARK VINA RESULT:      -5.9      1.911      1.986
REMARK  Name = 
REMARK  3 active torsions:
REMARK  status: ('A' for Active; 'I' for Inactive)
REMARK    1  A    between atoms: N_1  and  S_2
REMARK    2  A    between atoms: S_2  and  C_5
REMARK    3  A    between atoms: C_8  and  C_10
REMARK                            x       y       z     vdW  Elec       q    Type
REMARK                         _______ _______ _______ _____ _____    ______ ____
ROOT
ATOM      1  C   UNL     1       8.826  -3.215  25.247  0.00  0.00    +0.254 A 
ATOM      2  S   UNL     1       9.375  -2.367  23.879  0.00  0.00    -0.026 S 
ATOM      3  C   UNL     1       9.143  -0.908  24.775  0.00  0.00    +0.135 A 
ATOM      4  N   UNL     1       8.615  -1.115  25.969  0.00  0.00    -0.139 NA
ATOM      5  N   UNL     1       8.435  -2.464  26.253  0.00  0.00    -0.120 NA
ENDROOT
BRANCH   3   6
ATOM      6  C   UNL     1       9.347   0.415  24.155  0.00  0.00    +0.027 A 
ATOM      7  C   UNL     1       8.365   1.140  23.452  0.00  0.00    +0.051 A 
ATOM      8 CL   UNL     1       6.828   0.485  22.997  0.00  0.00    -0.083 Cl
ATOM      9  C   UNL     1       8.615   2.452  23.021  0.00  0.00    +0.020 A 
ATOM     10  C   UNL     1       9.857   3.043  23.236  0.00  0.00    +0.001 A 
ATOM     11  C   UNL     1      10.866   2.316  23.857  0.00  0.00    +0.001 A 
ATOM     12  C   UNL     1      10.612   1.017  24.311  0.00  0.00    +0.012 A 
ENDBRANCH   3   6
BRANCH   1  13
ATOM     13  S   UNL     1       8.775  -4.970  25.147  0.00  0.00    +0.081 S 
ATOM     14  O   UNL     1       7.917  -5.407  26.225  0.00  0.00    -0.151 OA
ATOM     15  O   UNL     1       8.497  -5.304  23.770  0.00  0.00    -0.151 OA
BRANCH  13  16
ATOM     16  N   UNL     1      10.288  -5.620  25.510  0.00  0.00    -0.202 NA
ATOM     17  H   UNL     1      10.473  -6.438  24.930  0.00  0.00    +0.144 HD
ATOM     18  H   UNL     1      10.995  -4.896  25.375  0.00  0.00    +0.144 HD
ENDBRANCH  13  16
ENDBRANCH   1  13
TORSDOF 3
ENDMDL
MODEL 5
REMARK VINA RESULT:      -5.8      3.620      4.752
REMARK  Name = 
REMARK  3 active torsions:
REMARK  status: ('A' for Active; 'I' for Inactive)
REMARK    1  A    between atoms: N_1  and  S_2
REMARK    2  A    between atoms: S_2  and  C_5
REMARK    3  A    between atoms: C_8  and  C_10
REMARK                            x       y       z     vdW  Elec       q    Type
REMARK                         _______ _______ _______ _____ _____    ______ ____
ROOT
ATOM      1  C   UNL     1       9.751  -0.061  23.072  0.00  0.00    +0.254 A 
ATOM      2  S   UNL     1      10.007   1.054  24.330  0.00  0.00    -0.026 S 
ATOM      3  C   UNL     1      10.118   2.287  23.124  0.00  0.00    +0.135 A 
ATOM      4  N   UNL     1      10.041   1.810  21.893  0.00  0.00    -0.139 NA
ATOM      5  N   UNL     1       9.818   0.438  21.857  0.00  0.00    -0.120 NA
ENDROOT
BRANCH   3   6
ATOM      6  C   UNL     1      10.456   3.678  23.476  0.00  0.00    +0.027 A 
ATOM      7  C   UNL     1       9.570   4.603  24.062  0.00  0.00    +0.051 A 
ATOM      8 CL   UNL     1       7.870   4.325  24.241  0.00  0.00    -0.083 Cl
ATOM      9  C   UNL     1      10.026   5.859  24.490  0.00  0.00    +0.020 A 
ATOM     10  C   UNL     1      11.352   6.234  24.297  0.00  0.00    +0.001 A 
ATOM     11  C   UNL     1      12.224   5.367  23.649  0.00  0.00    +0.001 A 
ATOM     12  C   UNL     1      11.779   4.104  23.244  0.00  0.00    +0.012 A 
ENDBRANCH   3   6
BRANCH   1  13
ATOM     13  S   UNL     1       9.498  -1.743  23.518  0.00  0.00    +0.081 S 
ATOM     14  O   UNL     1      10.624  -2.473  22.981  0.00  0.00    -0.151 OA
ATOM     15  O   UNL     1       9.180  -1.761  24.925  0.00  0.00    -0.151 OA
BRANCH  13  16
ATOM     16  N   UNL     1       8.157  -2.366  22.707  0.00  0.00    -0.202 NA
ATOM     17  H   UNL     1       7.322  -2.293  23.290  0.00  0.00    +0.144 HD
ATOM     18  H   UNL     1       8.044  -1.863  21.826  0.00  0.00    +0.144 HD
ENDBRANCH  13  16
ENDBRANCH   1  13
TORSDOF 3
ENDMDL
MODEL 6
REMARK VINA RESULT:      -5.7      2.160      2.509
REMARK  Name = 
REMARK  3 active torsions:
REMARK  status: ('A' for Active; 'I' for Inactive)
REMARK    1  A    between atoms: N_1  and  S_2
REMARK    2  A    between atoms: S_2  and  C_5
REMARK    3  A    between atoms: C_8  and  C_10
REMARK                            x       y       z     vdW  Elec       q    Type
REMARK                         _______ _______ _______ _____ _____    ______ ____
ROOT
ATOM      1  C   UNL     1       9.122  -3.154  24.136  0.00  0.00    +0.254 A 
ATOM      2  S   UNL     1       7.850  -2.026  24.204  0.00  0.00    -0.026 S 
ATOM      3  C   UNL     1       8.899  -0.897  23.423  0.00  0.00    +0.135 A 
ATOM      4  N   UNL     1      10.118  -1.373  23.233  0.00  0.00    -0.139 NA
ATOM      5  N   UNL     1      10.251  -2.696  23.640  0.00  0.00    -0.120 NA
ENDROOT
BRANCH   3   6
ATOM      6  C   UNL     1       8.488   0.500  23.192  0.00  0.00    +0.027 A 
ATOM      7  C   UNL     1       9.303   1.630  23.401  0.00  0.00    +0.051 A 
ATOM      8 CL   UNL     1      10.842   1.572  24.194  0.00  0.00    -0.083 Cl
ATOM      9  C   UNL     1       8.868   2.907  23.017  0.00  0.00    +0.020 A 
ATOM     10  C   UNL     1       7.602   3.089  22.468  0.00  0.00    +0.001 A 
ATOM     11  C   UNL     1       6.752   1.999  22.326  0.00  0.00    +0.001 A 
ATOM     12  C   UNL     1       7.191   0.720  22.685  0.00  0.00    +0.012 A 
ENDBRANCH   3   6
BRANCH   1  13
ATOM     13  S   UNL     1       8.820  -4.759  24.786  0.00  0.00    +0.081 S 
ATOM     14  O   UNL     1       7.994  -4.566  25.957  0.00  0.00    -0.151 OA
ATOM     15  O   UNL     1       8.395  -5.586  23.682  0.00  0.00    -0.151 OA
BRANCH  13  16
ATOM     16  N   UNL     1      10.251  -5.429  25.375  0.00  0.00    -0.202 NA
ATOM     17  H   UNL     1      10.338  -6.401  25.078  0.00  0.00    +0.144 HD
ATOM     18  H   UNL     1      11.035  -4.865  25.046  0.00  0.00    +0.144 HD
ENDBRANCH  13  16
ENDBRANCH   1  13
TORSDOF 3
ENDMDL
MODEL 7
REMARK VINA RESULT:      -5.7      4.036      6.766
REMARK  Name = 
REMARK  3 active torsions:
REMARK  status: ('A' for Active; 'I' for Inactive)
REMARK    1  A    between atoms: N_1  and  S_2
REMARK    2  A    between atoms: S_2  and  C_5
REMARK    3  A    between atoms: C_8  and  C_10
REMARK                            x       y       z     vdW  Elec       q    Type
REMARK                         _______ _______ _______ _____ _____    ______ ____
ROOT
ATOM      1  C   UNL     1       8.945  -2.265  23.525  0.00  0.00    +0.254 A 
ATOM      2  S   UNL     1       7.280  -2.590  23.647  0.00  0.00    -0.026 S 
ATOM      3  C   UNL     1       7.698  -4.117  24.340  0.00  0.00    +0.135 A 
ATOM      4  N   UNL     1       9.002  -4.328  24.370  0.00  0.00    -0.139 NA
ATOM      5  N   UNL     1       9.737  -3.245  23.902  0.00  0.00    -0.120 NA
ENDROOT
BRANCH   3   6
ATOM      6  C   UNL     1       6.667  -5.119  24.668  0.00  0.00    +0.027 A 
ATOM      7  C   UNL     1       6.386  -5.598  25.963  0.00  0.00    +0.051 A 
ATOM      8 CL   UNL     1       7.372  -5.262  27.347  0.00  0.00    -0.083 Cl
ATOM      9  C   UNL     1       5.292  -6.445  26.191  0.00  0.00    +0.020 A 
ATOM     10  C   UNL     1       4.493  -6.870  25.134  0.00  0.00    +0.001 A 
ATOM     11  C   UNL     1       4.800  -6.472  23.838  0.00  0.00    +0.001 A 
ATOM     12  C   UNL     1       5.875  -5.607  23.609  0.00  0.00    +0.012 A 
ENDBRANCH   3   6
BRANCH   1  13
ATOM     13  S   UNL     1       9.421  -0.709  22.856  0.00  0.00    +0.081 S 
ATOM     14  O   UNL     1       8.239   0.122  22.898  0.00  0.00    -0.151 OA
ATOM     15  O   UNL     1      10.646  -0.326  23.516  0.00  0.00    -0.151 OA
BRANCH  13  16
ATOM     16  N   UNL     1       9.779  -0.865  21.216  0.00  0.00    -0.202 NA
ATOM     17  H   UNL     1       9.641  -1.829  20.910  0.00  0.00    +0.144 HD
ATOM     18  H   UNL     1       9.190  -0.217  20.690  0.00  0.00    +0.144 HD
ENDBRANCH  13  16
ENDBRANCH   1  13
TORSDOF 3
ENDMDL
MODEL 8
REMARK VINA RESULT:      -5.6      3.999      6.331
REMARK  Name = 
REMARK  3 active torsions:
REMARK  status: ('A' for Active; 'I' for Inactive)
REMARK    1  A    between atoms: N_1  and  S_2
REMARK    2  A    between atoms: S_2  and  C_5
REMARK    3  A    between atoms: C_8  and  C_10
REMARK                            x       y       z     vdW  Elec       q    Type
REMARK                         _______ _______ _______ _____ _____    ______ ____
ROOT
ATOM      1  C   UNL     1       9.526  -0.302  23.170  0.00  0.00    +0.254 A 
ATOM      2  S   UNL     1       7.986  -0.899  23.579  0.00  0.00    -0.026 S 
ATOM      3  C   UNL     1       8.604  -2.489  23.305  0.00  0.00    +0.135 A 
ATOM      4  N   UNL     1       9.850  -2.488  22.865  0.00  0.00    -0.139 NA
ATOM      5  N   UNL     1      10.397  -1.212  22.792  0.00  0.00    -0.120 NA
ENDROOT
BRANCH   3   6
ATOM      6  C   UNL     1       7.732  -3.675  23.384  0.00  0.00    +0.027 A 
ATOM      7  C   UNL     1       7.281  -4.272  24.578  0.00  0.00    +0.051 A 
ATOM      8 CL   UNL     1       7.877  -3.849  26.148  0.00  0.00    -0.083 Cl
ATOM      9  C   UNL     1       6.340  -5.312  24.548  0.00  0.00    +0.020 A 
ATOM     10  C   UNL     1       5.872  -5.808  23.335  0.00  0.00    +0.001 A 
ATOM     11  C   UNL     1       6.363  -5.287  22.144  0.00  0.00    +0.001 A 
ATOM     12  C   UNL     1       7.283  -4.233  22.170  0.00  0.00    +0.012 A 
ENDBRANCH   3   6
BRANCH   1  13
ATOM     13  S   UNL     1       9.763   1.439  23.229  0.00  0.00    +0.081 S 
ATOM     14  O   UNL     1       8.480   2.006  23.576  0.00  0.00    -0.151 OA
ATOM     15  O   UNL     1      10.942   1.675  24.028  0.00  0.00    -0.151 OA
BRANCH  13  16
ATOM     16  N   UNL     1      10.093   2.035  21.687  0.00  0.00    -0.202 NA
ATOM     17  H   UNL     1       9.286   1.910  21.076  0.00  0.00    +0.144 HD
ATOM     18  H   UNL     1      10.355   3.019  21.765  0.00  0.00    +0.144 HD
ENDBRANCH  13  16
ENDBRANCH   1  13
TORSDOF 3
ENDMDL
MODEL 9
REMARK VINA RESULT:      -5.5      3.678      6.089
REMARK  Name = 
REMARK  3 active torsions:
REMARK  status: ('A' for Active; 'I' for Inactive)
REMARK    1  A    between atoms: N_1  and  S_2
REMARK    2  A    between atoms: S_2  and  C_5
REMARK    3  A    between atoms: C_8  and  C_10
REMARK                            x       y       z     vdW  Elec       q    Type
REMARK                         _______ _______ _______ _____ _____    ______ ____
ROOT
ATOM      1  C   UNL     1       9.627   0.179  23.524  0.00  0.00    +0.254 A 
ATOM      2  S   UNL     1       8.304  -0.348  24.454  0.00  0.00    -0.026 S 
ATOM      3  C   UNL     1       8.932  -1.952  24.316  0.00  0.00    +0.135 A 
ATOM      4  N   UNL     1      10.007  -2.019  23.549  0.00  0.00    -0.139 NA
ATOM      5  N   UNL     1      10.423  -0.775  23.091  0.00  0.00    -0.120 NA
ENDROOT
BRANCH   3   6
ATOM      6  C   UNL     1       8.199  -3.112  24.855  0.00  0.00    +0.027 A 
ATOM      7  C   UNL     1       7.424  -4.007  24.091  0.00  0.00    +0.051 A 
ATOM      8 CL   UNL     1       7.012  -3.745  22.430  0.00  0.00    -0.083 Cl
ATOM      9  C   UNL     1       6.881  -5.162  24.675  0.00  0.00    +0.020 A 
ATOM     10  C   UNL     1       7.057  -5.419  26.031  0.00  0.00    +0.001 A 
ATOM     11  C   UNL     1       7.752  -4.509  26.819  0.00  0.00    +0.001 A 
ATOM     12  C   UNL     1       8.315  -3.369  26.236  0.00  0.00    +0.012 A 
ENDBRANCH   3   6
BRANCH   1  13
ATOM     13  S   UNL     1       9.750   1.901  23.191  0.00  0.00    +0.081 S 
ATOM     14  O   UNL     1       8.459   2.464  23.515  0.00  0.00    -0.151 OA
ATOM     15  O   UNL     1      10.964   2.364  23.820  0.00  0.00    -0.151 OA
BRANCH  13  16
ATOM     16  N   UNL     1       9.929   2.163  21.535  0.00  0.00    -0.202 NA
ATOM     17  H   UNL     1      10.188   1.296  21.062  0.00  0.00    +0.144 HD
ATOM     18  H   UNL     1       9.056   2.543  21.168  0.00  0.00    +0.144 HD
ENDBRANCH  13  16
ENDBRANCH   1  13
TORSDOF 3
ENDMDL
