MODEL 1
REMARK VINA RESULT:      -6.1      0.000      0.000
REMARK  Name = 
REMARK  12 active torsions:
REMARK  status: ('A' for Active; 'I' for Inactive)
REMARK    1  A    between atoms: C_2  and  C_3
REMARK    2  A    between atoms: C_2  and  N_7
REMARK    3  A    between atoms: C_2  and  C_24
REMARK    4  A    between atoms: C_3  and  C_4
REMARK    5  A    between atoms: C_4  and  C_5
REMARK    6  A    between atoms: C_4  and  C_6
REMARK    7  A    between atoms: N_7  and  C_8
REMARK    8  A    between atoms: N_7  and  P_15
REMARK    9  A    between atoms: C_8  and  C_9
REMARK   10  A    between atoms: P_15  and  C_16
REMARK   11  A    between atoms: P_15  and  C_18
REMARK   12  A    between atoms: N_26  and  O_27
REMARK                            x       y       z     vdW  Elec       q    Type
REMARK                         _______ _______ _______ _____ _____    ______ ____
ROOT
ATOM      1  N   UNL     1       8.164  -1.323  24.125  0.00  0.00    -0.233 NA
ENDROOT
BRANCH   1   2
ATOM      2  P   UNL     1       8.895  -2.453  22.873  0.00  0.00    +0.178 P 
ATOM      3  C   UNL     1      10.404  -1.419  22.855  0.00  0.00    +0.103 C 
ATOM      4  O   UNL     1       8.582  -1.841  21.485  0.00  0.00    -0.300 OA
BRANCH   2   5
ATOM      5  C   UNL     1       7.384  -3.487  22.891  0.00  0.00    +0.026 A 
ATOM      6  C   UNL     1       6.110  -2.890  22.896  0.00  0.00    +0.012 A 
ATOM      7  C   UNL     1       4.949  -3.666  22.941  0.00  0.00    +0.001 A 
ATOM      8  C   UNL     1       5.041  -5.053  23.024  0.00  0.00    +0.000 A 
ATOM      9  C   UNL     1       6.292  -5.662  23.079  0.00  0.00    +0.001 A 
ATOM     10  C   UNL     1       7.451  -4.886  23.022  0.00  0.00    +0.012 A 
ENDBRANCH   2   5
ENDBRANCH   1   2
BRANCH   1  11
ATOM     11  C   UNL     1       8.121   0.176  23.922  0.00  0.00    +0.152 C 
BRANCH  11  12
ATOM     12  C   UNL     1       6.662   0.703  23.795  0.00  0.00    +0.253 C 
ATOM     13  N   UNL     1       6.392   1.540  22.737  0.00  0.00    -0.196 N 
ATOM     14  H   UNL     1       7.134   2.149  22.384  0.00  0.00    +0.182 HD
ATOM     15  O   UNL     1       5.767   0.438  24.604  0.00  0.00    -0.272 OA
BRANCH  13  16
ATOM     16  O   UNL     1       5.087   2.108  22.767  0.00  0.00    -0.295 OA
ATOM     17  H   UNL     1       5.278   3.072  22.737  0.00  0.00    +0.241 HD
ENDBRANCH  13  16
ENDBRANCH  11  12
BRANCH  11  18
ATOM     18  C   UNL     1       8.937   1.138  24.826  0.00  0.00    +0.031 C 
BRANCH  18  19
ATOM     19  C   UNL     1       9.726   2.321  24.229  0.00  0.00    -0.015 C 
ATOM     20  C   UNL     1       8.922   3.607  24.485  0.00  0.00    +0.007 C 
ATOM     21  C   UNL     1      10.030   2.231  22.734  0.00  0.00    +0.007 C 
ENDBRANCH  18  19
ENDBRANCH  11  18
ENDBRANCH   1  11
BRANCH   1  22
ATOM     22  C   UNL     1       8.519  -1.648  25.548  0.00  0.00    +0.127 C 
BRANCH  22  23
ATOM     23  C   UNL     1       7.905  -2.888  26.175  0.00  0.00    -0.033 A 
ATOM     24  C   UNL     1       6.553  -2.891  26.576  0.00  0.00    +0.005 A 
ATOM     25  C   UNL     1       5.954  -4.031  27.112  0.00  0.00    +0.000 A 
ATOM     26  C   UNL     1       6.714  -5.188  27.280  0.00  0.00    +0.000 A 
ATOM     27  C   UNL     1       8.060  -5.184  26.930  0.00  0.00    +0.000 A 
ATOM     28  C   UNL     1       8.658  -4.045  26.380  0.00  0.00    +0.005 A 
ENDBRANCH  22  23
ENDBRANCH   1  22
TORSDOF 9
ENDMDL
MODEL 2
REMARK VINA RESULT:      -6.0      2.084      4.024
REMARK  Name = 
REMARK  12 active torsions:
REMARK  status: ('A' for Active; 'I' for Inactive)
REMARK    1  A    between atoms: C_2  and  C_3
REMARK    2  A    between atoms: C_2  and  N_7
REMARK    3  A    between atoms: C_2  and  C_24
REMARK    4  A    between atoms: C_3  and  C_4
REMARK    5  A    between atoms: C_4  and  C_5
REMARK    6  A    between atoms: C_4  and  C_6
REMARK    7  A    between atoms: N_7  and  C_8
REMARK    8  A    between atoms: N_7  and  P_15
REMARK    9  A    between atoms: C_8  and  C_9
REMARK   10  A    between atoms: P_15  and  C_16
REMARK   11  A    between atoms: P_15  and  C_18
REMARK   12  A    between atoms: N_26  and  O_27
REMARK                            x       y       z     vdW  Elec       q    Type
REMARK                         _______ _______ _______ _____ _____    ______ ____
ROOT
ATOM      1  N   UNL     1       7.513  -0.879  24.546  0.00  0.00    -0.233 NA
ENDROOT
BRANCH   1   2
ATOM      2  P   UNL     1       7.645  -1.077  26.368  0.00  0.00    +0.178 P 
ATOM      3  C   UNL     1       7.328   0.715  26.563  0.00  0.00    +0.103 C 
ATOM      4  O   UNL     1       9.112  -0.755  26.746  0.00  0.00    -0.300 OA
BRANCH   2   5
ATOM      5  C   UNL     1       7.962  -2.869  26.173  0.00  0.00    +0.026 A 
ATOM      6  C   UNL     1       8.918  -3.329  25.248  0.00  0.00    +0.012 A 
ATOM      7  C   UNL     1       9.148  -4.695  25.066  0.00  0.00    +0.001 A 
ATOM      8  C   UNL     1       8.399  -5.628  25.777  0.00  0.00    +0.000 A 
ATOM      9  C   UNL     1       7.408  -5.197  26.654  0.00  0.00    +0.001 A 
ATOM     10  C   UNL     1       7.187  -3.832  26.845  0.00  0.00    +0.012 A 
ENDBRANCH   2   5
ENDBRANCH   1   2
BRANCH   1  11
ATOM     11  C   UNL     1       8.192   0.258  23.813  0.00  0.00    +0.152 C 
BRANCH  11  12
ATOM     12  C   UNL     1       9.489  -0.210  23.091  0.00  0.00    +0.253 C 
ATOM     13  N   UNL     1       9.338  -1.103  22.055  0.00  0.00    -0.196 N 
ATOM     14  H   UNL     1       8.560  -1.766  22.079  0.00  0.00    +0.182 HD
ATOM     15  O   UNL     1      10.623   0.146  23.425  0.00  0.00    -0.272 OA
BRANCH  13  16
ATOM     16  O   UNL     1      10.566  -1.609  21.543  0.00  0.00    -0.295 OA
ATOM     17  H   UNL     1      10.689  -1.073  20.728  0.00  0.00    +0.241 HD
ENDBRANCH  13  16
ENDBRANCH  11  12
BRANCH  11  18
ATOM     18  C   UNL     1       7.397   1.207  22.877  0.00  0.00    +0.031 C 
BRANCH  18  19
ATOM     19  C   UNL     1       7.875   2.647  22.605  0.00  0.00    -0.015 C 
ATOM     20  C   UNL     1       8.503   3.193  23.898  0.00  0.00    +0.007 C 
ATOM     21  C   UNL     1       6.799   3.628  22.140  0.00  0.00    +0.007 C 
ENDBRANCH  18  19
ENDBRANCH  11  18
ENDBRANCH   1  11
BRANCH   1  22
ATOM     22  C   UNL     1       6.139  -1.114  23.986  0.00  0.00    +0.127 C 
BRANCH  22  23
ATOM     23  C   UNL     1       5.770  -2.525  23.559  0.00  0.00    -0.033 A 
ATOM     24  C   UNL     1       6.461  -3.156  22.504  0.00  0.00    +0.005 A 
ATOM     25  C   UNL     1       6.172  -4.466  22.124  0.00  0.00    +0.000 A 
ATOM     26  C   UNL     1       5.160  -5.162  22.785  0.00  0.00    +0.000 A 
ATOM     27  C   UNL     1       4.442  -4.535  23.797  0.00  0.00    +0.000 A 
ATOM     28  C   UNL     1       4.740  -3.225  24.187  0.00  0.00    +0.005 A 
ENDBRANCH  22  23
ENDBRANCH   1  22
TORSDOF 9
ENDMDL
MODEL 3
REMARK VINA RESULT:      -5.9      2.388      6.332
REMARK  Name = 
REMARK  12 active torsions:
REMARK  status: ('A' for Active; 'I' for Inactive)
REMARK    1  A    between atoms: C_2  and  C_3
REMARK    2  A    between atoms: C_2  and  N_7
REMARK    3  A    between atoms: C_2  and  C_24
REMARK    4  A    between atoms: C_3  and  C_4
REMARK    5  A    between atoms: C_4  and  C_5
REMARK    6  A    between atoms: C_4  and  C_6
REMARK    7  A    between atoms: N_7  and  C_8
REMARK    8  A    between atoms: N_7  and  P_15
REMARK    9  A    between atoms: C_8  and  C_9
REMARK   10  A    between atoms: P_15  and  C_16
REMARK   11  A    between atoms: P_15  and  C_18
REMARK   12  A    between atoms: N_26  and  O_27
REMARK                            x       y       z     vdW  Elec       q    Type
REMARK                         _______ _______ _______ _____ _____    ______ ____
ROOT
ATOM      1  N   UNL     1       7.352  -2.184  24.270  0.00  0.00    -0.233 NA
ENDROOT
BRANCH   1   2
ATOM      2  P   UNL     1       8.139  -2.078  22.614  0.00  0.00    +0.178 P 
ATOM      3  C   UNL     1       7.125  -3.499  22.066  0.00  0.00    +0.103 C 
ATOM      4  O   UNL     1       9.333  -3.063  22.623  0.00  0.00    -0.300 OA
BRANCH   2   5
ATOM      5  C   UNL     1       9.153  -0.656  23.161  0.00  0.00    +0.026 A 
ATOM      6  C   UNL     1       9.859  -0.708  24.378  0.00  0.00    +0.012 A 
ATOM      7  C   UNL     1      10.612   0.381  24.824  0.00  0.00    +0.001 A 
ATOM      8  C   UNL     1      10.640   1.559  24.082  0.00  0.00    +0.000 A 
ATOM      9  C   UNL     1       9.902   1.654  22.905  0.00  0.00    +0.001 A 
ATOM     10  C   UNL     1       9.160   0.561  22.454  0.00  0.00    +0.012 A 
ENDBRANCH   2   5
ENDBRANCH   1   2
BRANCH   1  11
ATOM     11  C   UNL     1       7.130  -3.509  24.968  0.00  0.00    +0.152 C 
BRANCH  11  12
ATOM     12  C   UNL     1       8.430  -4.031  25.648  0.00  0.00    +0.253 C 
ATOM     13  N   UNL     1       9.138  -5.001  24.976  0.00  0.00    -0.196 N 
ATOM     14  H   UNL     1       8.634  -5.661  24.379  0.00  0.00    +0.182 HD
ATOM     15  O   UNL     1       8.822  -3.649  26.755  0.00  0.00    -0.272 OA
BRANCH  13  16
ATOM     16  O   UNL     1      10.224  -5.544  25.720  0.00  0.00    -0.295 OA
ATOM     17  H   UNL     1      10.174  -5.038  26.561  0.00  0.00    +0.241 HD
ENDBRANCH  13  16
ENDBRANCH  11  12
BRANCH  11  18
ATOM     18  C   UNL     1       5.927  -3.730  25.922  0.00  0.00    +0.031 C 
BRANCH  18  19
ATOM     19  C   UNL     1       4.772  -4.681  25.548  0.00  0.00    -0.015 C 
ATOM     20  C   UNL     1       5.304  -6.123  25.612  0.00  0.00    +0.007 C 
ATOM     21  C   UNL     1       4.146  -4.458  24.173  0.00  0.00    +0.007 C 
ENDBRANCH  18  19
ENDBRANCH  11  18
ENDBRANCH   1  11
BRANCH   1  22
ATOM     22  C   UNL     1       6.160  -1.289  24.459  0.00  0.00    +0.127 C 
BRANCH  22  23
ATOM     23  C   UNL     1       6.399   0.131  24.945  0.00  0.00    -0.033 A 
ATOM     24  C   UNL     1       6.954   0.366  26.219  0.00  0.00    +0.005 A 
ATOM     25  C   UNL     1       7.225   1.657  26.669  0.00  0.00    +0.000 A 
ATOM     26  C   UNL     1       6.917   2.745  25.852  0.00  0.00    +0.000 A 
ATOM     27  C   UNL     1       6.328   2.528  24.612  0.00  0.00    +0.000 A 
ATOM     28  C   UNL     1       6.068   1.232  24.155  0.00  0.00    +0.005 A 
ENDBRANCH  22  23
ENDBRANCH   1  22
TORSDOF 9
ENDMDL
MODEL 4
REMARK VINA RESULT:      -5.8      3.167      5.970
REMARK  Name = 
REMARK  12 active torsions:
REMARK  status: ('A' for Active; 'I' for Inactive)
REMARK    1  A    between atoms: C_2  and  C_3
REMARK    2  A    between atoms: C_2  and  N_7
REMARK    3  A    between atoms: C_2  and  C_24
REMARK    4  A    between atoms: C_3  and  C_4
REMARK    5  A    between atoms: C_4  and  C_5
REMARK    6  A    between atoms: C_4  and  C_6
REMARK    7  A    between atoms: N_7  and  C_8
REMARK    8  A    between atoms: N_7  and  P_15
REMARK    9  A    between atoms: C_8  and  C_9
REMARK   10  A    between atoms: P_15  and  C_16
REMARK   11  A    between atoms: P_15  and  C_18
REMARK   12  A    between atoms: N_26  and  O_27
REMARK                            x       y       z     vdW  Elec       q    Type
REMARK                         _______ _______ _______ _____ _____    ______ ____
ROOT
ATOM      1  N   UNL     1       6.652  -4.512  24.082  0.00  0.00    -0.233 NA
ENDROOT
BRANCH   1   2
ATOM      2  P   UNL     1       5.751  -5.644  22.949  0.00  0.00    +0.178 P 
ATOM      3  C   UNL     1       7.195  -5.634  21.826  0.00  0.00    +0.103 C 
ATOM      4  O   UNL     1       5.051  -4.754  21.892  0.00  0.00    -0.300 OA
BRANCH   2   5
ATOM      5  C   UNL     1       4.305  -5.654  24.073  0.00  0.00    +0.026 A 
ATOM      6  C   UNL     1       4.088  -6.735  24.947  0.00  0.00    +0.012 A 
ATOM      7  C   UNL     1       2.972  -6.771  25.788  0.00  0.00    +0.001 A 
ATOM      8  C   UNL     1       2.031  -5.746  25.740  0.00  0.00    +0.000 A 
ATOM      9  C   UNL     1       2.195  -4.696  24.841  0.00  0.00    +0.001 A 
ATOM     10  C   UNL     1       3.317  -4.655  24.010  0.00  0.00    +0.012 A 
ENDBRANCH   2   5
ENDBRANCH   1   2
BRANCH   1  11
ATOM     11  C   UNL     1       6.628  -4.696  25.583  0.00  0.00    +0.152 C 
BRANCH  11  12
ATOM     12  C   UNL     1       7.996  -5.202  26.127  0.00  0.00    +0.253 C 
ATOM     13  N   UNL     1       9.052  -5.210  25.245  0.00  0.00    -0.196 N 
ATOM     14  H   UNL     1       8.869  -5.360  24.251  0.00  0.00    +0.182 HD
ATOM     15  O   UNL     1       8.161  -5.622  27.276  0.00  0.00    -0.272 OA
BRANCH  13  16
ATOM     16  O   UNL     1      10.229  -5.827  25.757  0.00  0.00    -0.295 OA
ATOM     17  H   UNL     1       9.894  -6.277  26.565  0.00  0.00    +0.241 HD
ENDBRANCH  13  16
ENDBRANCH  11  12
BRANCH  11  18
ATOM     18  C   UNL     1       6.077  -3.593  26.526  0.00  0.00    +0.031 C 
BRANCH  18  19
ATOM     19  C   UNL     1       4.794  -3.813  27.352  0.00  0.00    -0.015 C 
ATOM     20  C   UNL     1       4.278  -2.436  27.804  0.00  0.00    +0.007 C 
ATOM     21  C   UNL     1       4.942  -4.702  28.586  0.00  0.00    +0.007 C 
ENDBRANCH  18  19
ENDBRANCH  11  18
ENDBRANCH   1  11
BRANCH   1  22
ATOM     22  C   UNL     1       6.541  -3.055  23.732  0.00  0.00    +0.127 C 
BRANCH  22  23
ATOM     23  C   UNL     1       7.822  -2.278  23.481  0.00  0.00    -0.033 A 
ATOM     24  C   UNL     1       8.509  -1.667  24.550  0.00  0.00    +0.005 A 
ATOM     25  C   UNL     1       9.711  -0.988  24.352  0.00  0.00    +0.000 A 
ATOM     26  C   UNL     1      10.234  -0.887  23.063  0.00  0.00    +0.000 A 
ATOM     27  C   UNL     1       9.543  -1.447  21.994  0.00  0.00    +0.000 A 
ATOM     28  C   UNL     1       8.344  -2.140  22.195  0.00  0.00    +0.005 A 
ENDBRANCH  22  23
ENDBRANCH   1  22
TORSDOF 9
ENDMDL
MODEL 5
REMARK VINA RESULT:      -5.8      2.633      4.153
REMARK  Name = 
REMARK  12 active torsions:
REMARK  status: ('A' for Active; 'I' for Inactive)
REMARK    1  A    between atoms: C_2  and  C_3
REMARK    2  A    between atoms: C_2  and  N_7
REMARK    3  A    between atoms: C_2  and  C_24
REMARK    4  A    between atoms: C_3  and  C_4
REMARK    5  A    between atoms: C_4  and  C_5
REMARK    6  A    between atoms: C_4  and  C_6
REMARK    7  A    between atoms: N_7  and  C_8
REMARK    8  A    between atoms: N_7  and  P_15
REMARK    9  A    between atoms: C_8  and  C_9
REMARK   10  A    between atoms: P_15  and  C_16
REMARK   11  A    between atoms: P_15  and  C_18
REMARK   12  A    between atoms: N_26  and  O_27
REMARK                            x       y       z     vdW  Elec       q    Type
REMARK                         _______ _______ _______ _____ _____    ______ ____
ROOT
ATOM      1  N   UNL     1       7.098  -3.210  24.423  0.00  0.00    -0.233 NA
ENDROOT
BRANCH   1   2
ATOM      2  P   UNL     1       8.373  -4.278  25.203  0.00  0.00    +0.178 P 
ATOM      3  C   UNL     1       9.672  -3.309  24.354  0.00  0.00    +0.103 C 
ATOM      4  O   UNL     1       8.693  -5.404  24.189  0.00  0.00    -0.300 OA
BRANCH   2   5
ATOM      5  C   UNL     1       7.073  -5.248  26.053  0.00  0.00    +0.026 A 
ATOM      6  C   UNL     1       6.029  -5.839  25.318  0.00  0.00    +0.012 A 
ATOM      7  C   UNL     1       5.013  -6.556  25.956  0.00  0.00    +0.001 A 
ATOM      8  C   UNL     1       5.000  -6.660  27.344  0.00  0.00    +0.000 A 
ATOM      9  C   UNL     1       5.990  -6.033  28.095  0.00  0.00    +0.001 A 
ATOM     10  C   UNL     1       7.012  -5.328  27.456  0.00  0.00    +0.012 A 
ENDBRANCH   2   5
ENDBRANCH   1   2
BRANCH   1  11
ATOM     11  C   UNL     1       7.233  -2.712  23.001  0.00  0.00    +0.152 C 
BRANCH  11  12
ATOM     12  C   UNL     1       6.368  -3.546  22.010  0.00  0.00    +0.253 C 
ATOM     13  N   UNL     1       6.816  -4.810  21.705  0.00  0.00    -0.196 N 
ATOM     14  H   UNL     1       7.822  -4.995  21.706  0.00  0.00    +0.182 HD
ATOM     15  O   UNL     1       5.344  -3.117  21.470  0.00  0.00    -0.272 OA
BRANCH  13  16
ATOM     16  O   UNL     1       6.069  -5.457  20.680  0.00  0.00    -0.295 OA
ATOM     17  H   UNL     1       6.660  -5.363  19.900  0.00  0.00    +0.241 HD
ENDBRANCH  13  16
ENDBRANCH  11  12
BRANCH  11  18
ATOM     18  C   UNL     1       7.100  -1.205  22.654  0.00  0.00    +0.031 C 
BRANCH  18  19
ATOM     19  C   UNL     1       8.327  -0.271  22.658  0.00  0.00    -0.015 C 
ATOM     20  C   UNL     1       7.822   1.177  22.542  0.00  0.00    +0.007 C 
ATOM     21  C   UNL     1       9.353  -0.515  21.553  0.00  0.00    +0.007 C 
ENDBRANCH  18  19
ENDBRANCH  11  18
ENDBRANCH   1  11
BRANCH   1  22
ATOM     22  C   UNL     1       6.564  -2.120  25.310  0.00  0.00    +0.127 C 
BRANCH  22  23
ATOM     23  C   UNL     1       5.258  -2.371  26.046  0.00  0.00    -0.033 A 
ATOM     24  C   UNL     1       4.123  -2.834  25.350  0.00  0.00    +0.005 A 
ATOM     25  C   UNL     1       2.928  -3.115  26.011  0.00  0.00    +0.000 A 
ATOM     26  C   UNL     1       2.843  -2.910  27.388  0.00  0.00    +0.000 A 
ATOM     27  C   UNL     1       3.942  -2.411  28.078  0.00  0.00    +0.000 A 
ATOM     28  C   UNL     1       5.145  -2.141  27.417  0.00  0.00    +0.005 A 
ENDBRANCH  22  23
ENDBRANCH   1  22
TORSDOF 9
ENDMDL
MODEL 6
REMARK VINA RESULT:      -5.7      2.658      6.384
REMARK  Name = 
REMARK  12 active torsions:
REMARK  status: ('A' for Active; 'I' for Inactive)
REMARK    1  A    between atoms: C_2  and  C_3
REMARK    2  A    between atoms: C_2  and  N_7
REMARK    3  A    between atoms: C_2  and  C_24
REMARK    4  A    between atoms: C_3  and  C_4
REMARK    5  A    between atoms: C_4  and  C_5
REMARK    6  A    between atoms: C_4  and  C_6
REMARK    7  A    between atoms: N_7  and  C_8
REMARK    8  A    between atoms: N_7  and  P_15
REMARK    9  A    between atoms: C_8  and  C_9
REMARK   10  A    between atoms: P_15  and  C_16
REMARK   11  A    between atoms: P_15  and  C_18
REMARK   12  A    between atoms: N_26  and  O_27
REMARK                            x       y       z     vdW  Elec       q    Type
REMARK                         _______ _______ _______ _____ _____    ______ ____
ROOT
ATOM      1  N   UNL     1       6.733  -2.704  24.851  0.00  0.00    -0.233 NA
ENDROOT
BRANCH   1   2
ATOM      2  P   UNL     1       6.990  -2.183  23.108  0.00  0.00    +0.178 P 
ATOM      3  C   UNL     1       5.855  -3.512  22.567  0.00  0.00    +0.103 C 
ATOM      4  O   UNL     1       8.130  -3.065  22.542  0.00  0.00    -0.300 OA
BRANCH   2   5
ATOM      5  C   UNL     1       8.126  -0.853  23.649  0.00  0.00    +0.026 A 
ATOM      6  C   UNL     1       9.237  -1.149  24.459  0.00  0.00    +0.012 A 
ATOM      7  C   UNL     1      10.095  -0.141  24.905  0.00  0.00    +0.001 A 
ATOM      8  C   UNL     1       9.834   1.189  24.584  0.00  0.00    +0.000 A 
ATOM      9  C   UNL     1       8.707   1.511  23.832  0.00  0.00    +0.001 A 
ATOM     10  C   UNL     1       7.857   0.501  23.376  0.00  0.00    +0.012 A 
ENDBRANCH   2   5
ENDBRANCH   1   2
BRANCH   1  11
ATOM     11  C   UNL     1       6.768  -4.159  25.265  0.00  0.00    +0.152 C 
BRANCH  11  12
ATOM     12  C   UNL     1       8.182  -4.588  25.756  0.00  0.00    +0.253 C 
ATOM     13  N   UNL     1       9.050  -5.074  24.805  0.00  0.00    -0.196 N 
ATOM     14  H   UNL     1       8.673  -5.572  23.996  0.00  0.00    +0.182 HD
ATOM     15  O   UNL     1       8.535  -4.548  26.938  0.00  0.00    -0.272 OA
BRANCH  13  16
ATOM     16  O   UNL     1      10.263  -5.592  25.341  0.00  0.00    -0.295 OA
ATOM     17  H   UNL     1      10.427  -6.374  24.769  0.00  0.00    +0.241 HD
ENDBRANCH  13  16
ENDBRANCH  11  12
BRANCH  11  18
ATOM     18  C   UNL     1       5.693  -4.758  26.210  0.00  0.00    +0.031 C 
BRANCH  18  19
ATOM     19  C   UNL     1       5.267  -6.236  26.102  0.00  0.00    -0.015 C 
ATOM     20  C   UNL     1       4.839  -6.503  24.649  0.00  0.00    +0.007 C 
ATOM     21  C   UNL     1       4.131  -6.669  27.027  0.00  0.00    +0.007 C 
ENDBRANCH  18  19
ENDBRANCH  11  18
ENDBRANCH   1  11
BRANCH   1  22
ATOM     22  C   UNL     1       5.623  -1.984  25.564  0.00  0.00    +0.127 C 
BRANCH  22  23
ATOM     23  C   UNL     1       5.931  -0.637  26.196  0.00  0.00    -0.033 A 
ATOM     24  C   UNL     1       5.206   0.512  25.818  0.00  0.00    +0.005 A 
ATOM     25  C   UNL     1       5.440   1.750  26.415  0.00  0.00    +0.000 A 
ATOM     26  C   UNL     1       6.430   1.863  27.391  0.00  0.00    +0.000 A 
ATOM     27  C   UNL     1       7.182   0.747  27.740  0.00  0.00    +0.000 A 
ATOM     28  C   UNL     1       6.939  -0.499  27.150  0.00  0.00    +0.005 A 
ENDBRANCH  22  23
ENDBRANCH   1  22
TORSDOF 9
ENDMDL
MODEL 7
REMARK VINA RESULT:      -5.7      2.952      5.363
REMARK  Name = 
REMARK  12 active torsions:
REMARK  status: ('A' for Active; 'I' for Inactive)
REMARK    1  A    between atoms: C_2  and  C_3
REMARK    2  A    between atoms: C_2  and  N_7
REMARK    3  A    between atoms: C_2  and  C_24
REMARK    4  A    between atoms: C_3  and  C_4
REMARK    5  A    between atoms: C_4  and  C_5
REMARK    6  A    between atoms: C_4  and  C_6
REMARK    7  A    between atoms: N_7  and  C_8
REMARK    8  A    between atoms: N_7  and  P_15
REMARK    9  A    between atoms: C_8  and  C_9
REMARK   10  A    between atoms: P_15  and  C_16
REMARK   11  A    between atoms: P_15  and  C_18
REMARK   12  A    between atoms: N_26  and  O_27
REMARK                            x       y       z     vdW  Elec       q    Type
REMARK                         _______ _______ _______ _____ _____    ______ ____
ROOT
ATOM      1  N   UNL     1       6.845  -3.705  23.855  0.00  0.00    -0.233 NA
ENDROOT
BRANCH   1   2
ATOM      2  P   UNL     1       6.013  -5.245  23.298  0.00  0.00    +0.178 P 
ATOM      3  C   UNL     1       7.062  -5.241  21.798  0.00  0.00    +0.103 C 
ATOM      4  O   UNL     1       4.854  -4.814  22.365  0.00  0.00    -0.300 OA
BRANCH   2   5
ATOM      5  C   UNL     1       4.964  -5.249  24.798  0.00  0.00    +0.026 A 
ATOM      6  C   UNL     1       5.193  -6.181  25.827  0.00  0.00    +0.012 A 
ATOM      7  C   UNL     1       4.381  -6.216  26.963  0.00  0.00    +0.001 A 
ATOM      8  C   UNL     1       3.299  -5.347  27.073  0.00  0.00    +0.000 A 
ATOM      9  C   UNL     1       3.019  -4.456  26.041  0.00  0.00    +0.001 A 
ATOM     10  C   UNL     1       3.838  -4.413  24.911  0.00  0.00    +0.012 A 
ENDBRANCH   2   5
ENDBRANCH   1   2
BRANCH   1  11
ATOM     11  C   UNL     1       7.147  -3.441  25.315  0.00  0.00    +0.152 C 
BRANCH  11  12
ATOM     12  C   UNL     1       8.427  -4.192  25.786  0.00  0.00    +0.253 C 
ATOM     13  N   UNL     1       9.409  -4.401  24.846  0.00  0.00    -0.196 N 
ATOM     14  H   UNL     1       9.142  -4.518  23.866  0.00  0.00    +0.182 HD
ATOM     15  O   UNL     1       8.578  -4.631  26.930  0.00  0.00    -0.272 OA
BRANCH  13  16
ATOM     16  O   UNL     1      10.478  -5.225  25.298  0.00  0.00    -0.295 OA
ATOM     17  H   UNL     1      10.113  -5.601  26.130  0.00  0.00    +0.241 HD
ENDBRANCH  13  16
ENDBRANCH  11  12
BRANCH  11  18
ATOM     18  C   UNL     1       7.154  -2.001  25.893  0.00  0.00    +0.031 C 
BRANCH  18  19
ATOM     19  C   UNL     1       8.433  -1.386  26.494  0.00  0.00    -0.015 C 
ATOM     20  C   UNL     1       8.011  -0.291  27.489  0.00  0.00    +0.007 C 
ATOM     21  C   UNL     1       9.412  -0.776  25.492  0.00  0.00    +0.007 C 
ENDBRANCH  18  19
ENDBRANCH  11  18
ENDBRANCH   1  11
BRANCH   1  22
ATOM     22  C   UNL     1       6.355  -2.450  23.189  0.00  0.00    +0.127 C 
BRANCH  22  23
ATOM     23  C   UNL     1       7.389  -1.454  22.689  0.00  0.00    -0.033 A 
ATOM     24  C   UNL     1       8.608  -1.904  22.142  0.00  0.00    +0.005 A 
ATOM     25  C   UNL     1       9.552  -1.012  21.635  0.00  0.00    +0.000 A 
ATOM     26  C   UNL     1       9.298   0.359  21.692  0.00  0.00    +0.000 A 
ATOM     27  C   UNL     1       8.119   0.816  22.270  0.00  0.00    +0.000 A 
ATOM     28  C   UNL     1       7.166  -0.079  22.766  0.00  0.00    +0.005 A 
ENDBRANCH  22  23
ENDBRANCH   1  22
TORSDOF 9
ENDMDL
MODEL 8
REMARK VINA RESULT:      -5.7      2.061      6.315
REMARK  Name = 
REMARK  12 active torsions:
REMARK  status: ('A' for Active; 'I' for Inactive)
REMARK    1  A    between atoms: C_2  and  C_3
REMARK    2  A    between atoms: C_2  and  N_7
REMARK    3  A    between atoms: C_2  and  C_24
REMARK    4  A    between atoms: C_3  and  C_4
REMARK    5  A    between atoms: C_4  and  C_5
REMARK    6  A    between atoms: C_4  and  C_6
REMARK    7  A    between atoms: N_7  and  C_8
REMARK    8  A    between atoms: N_7  and  P_15
REMARK    9  A    between atoms: C_8  and  C_9
REMARK   10  A    between atoms: P_15  and  C_16
REMARK   11  A    between atoms: P_15  and  C_18
REMARK   12  A    between atoms: N_26  and  O_27
REMARK                            x       y       z     vdW  Elec       q    Type
REMARK                         _______ _______ _______ _____ _____    ______ ____
ROOT
ATOM      1  N   UNL     1       7.387  -1.433  24.778  0.00  0.00    -0.233 NA
ENDROOT
BRANCH   1   2
ATOM      2  P   UNL     1       6.316  -0.709  26.084  0.00  0.00    +0.178 P 
ATOM      3  C   UNL     1       6.115  -2.376  26.811  0.00  0.00    +0.103 C 
ATOM      4  O   UNL     1       4.854  -0.858  25.594  0.00  0.00    -0.300 OA
BRANCH   2   5
ATOM      5  C   UNL     1       6.516   0.959  25.355  0.00  0.00    +0.026 A 
ATOM      6  C   UNL     1       6.095   1.218  24.038  0.00  0.00    +0.012 A 
ATOM      7  C   UNL     1       6.270   2.477  23.458  0.00  0.00    +0.001 A 
ATOM      8  C   UNL     1       6.906   3.490  24.171  0.00  0.00    +0.000 A 
ATOM      9  C   UNL     1       7.384   3.238  25.454  0.00  0.00    +0.001 A 
ATOM     10  C   UNL     1       7.197   1.983  26.037  0.00  0.00    +0.012 A 
ENDBRANCH   2   5
ENDBRANCH   1   2
BRANCH   1  11
ATOM     11  C   UNL     1       7.210  -2.856  24.295  0.00  0.00    +0.152 C 
BRANCH  11  12
ATOM     12  C   UNL     1       6.430  -2.919  22.950  0.00  0.00    +0.253 C 
ATOM     13  N   UNL     1       6.236  -4.165  22.400  0.00  0.00    -0.196 N 
ATOM     14  H   UNL     1       6.935  -4.894  22.561  0.00  0.00    +0.182 HD
ATOM     15  O   UNL     1       6.022  -1.920  22.350  0.00  0.00    -0.272 OA
BRANCH  13  16
ATOM     16  O   UNL     1       5.657  -4.140  21.100  0.00  0.00    -0.295 OA
ATOM     17  H   UNL     1       4.789  -4.577  21.249  0.00  0.00    +0.241 HD
ENDBRANCH  13  16
ENDBRANCH  11  12
BRANCH  11  18
ATOM     18  C   UNL     1       8.402  -3.848  24.244  0.00  0.00    +0.031 C 
BRANCH  18  19
ATOM     19  C   UNL     1       8.552  -4.975  25.286  0.00  0.00    -0.015 C 
ATOM     20  C   UNL     1       7.148  -5.520  25.600  0.00  0.00    +0.007 C 
ATOM     21  C   UNL     1       9.222  -4.581  26.601  0.00  0.00    +0.007 C 
ENDBRANCH  18  19
ENDBRANCH  11  18
ENDBRANCH   1  11
BRANCH   1  22
ATOM     22  C   UNL     1       8.847  -1.104  24.910  0.00  0.00    +0.127 C 
BRANCH  22  23
ATOM     23  C   UNL     1       9.418  -0.008  24.026  0.00  0.00    -0.033 A 
ATOM     24  C   UNL     1       9.142   0.011  22.643  0.00  0.00    +0.005 A 
ATOM     25  C   UNL     1       9.617   1.030  21.819  0.00  0.00    +0.000 A 
ATOM     26  C   UNL     1      10.403   2.043  22.367  0.00  0.00    +0.000 A 
ATOM     27  C   UNL     1      10.719   2.012  23.721  0.00  0.00    +0.000 A 
ATOM     28  C   UNL     1      10.232   0.996  24.551  0.00  0.00    +0.005 A 
ENDBRANCH  22  23
ENDBRANCH   1  22
TORSDOF 9
ENDMDL
MODEL 9
REMARK VINA RESULT:      -5.7      3.217      6.159
REMARK  Name = 
REMARK  12 active torsions:
REMARK  status: ('A' for Active; 'I' for Inactive)
REMARK    1  A    between atoms: C_2  and  C_3
REMARK    2  A    between atoms: C_2  and  N_7
REMARK    3  A    between atoms: C_2  and  C_24
REMARK    4  A    between atoms: C_3  and  C_4
REMARK    5  A    between atoms: C_4  and  C_5
REMARK    6  A    between atoms: C_4  and  C_6
REMARK    7  A    between atoms: N_7  and  C_8
REMARK    8  A    between atoms: N_7  and  P_15
REMARK    9  A    between atoms: C_8  and  C_9
REMARK   10  A    between atoms: P_15  and  C_16
REMARK   11  A    between atoms: P_15  and  C_18
REMARK   12  A    between atoms: N_26  and  O_27
REMARK                            x       y       z     vdW  Elec       q    Type
REMARK                         _______ _______ _______ _____ _____    ______ ____
ROOT
ATOM      1  N   UNL     1       6.155  -4.088  24.182  0.00  0.00    -0.233 NA
ENDROOT
BRANCH   1   2
ATOM      2  P   UNL     1       7.187  -4.577  22.742  0.00  0.00    +0.178 P 
ATOM      3  C   UNL     1       6.080  -6.008  22.464  0.00  0.00    +0.103 C 
ATOM      4  O   UNL     1       8.219  -5.608  23.263  0.00  0.00    -0.300 OA
BRANCH   2   5
ATOM      5  C   UNL     1       8.294  -3.147  23.021  0.00  0.00    +0.026 A 
ATOM      6  C   UNL     1       8.991  -3.009  24.236  0.00  0.00    +0.012 A 
ATOM      7  C   UNL     1       9.816  -1.906  24.475  0.00  0.00    +0.001 A 
ATOM      8  C   UNL     1       9.926  -0.899  23.519  0.00  0.00    +0.000 A 
ATOM      9  C   UNL     1       9.200  -0.986  22.335  0.00  0.00    +0.001 A 
ATOM     10  C   UNL     1       8.386  -2.094  22.092  0.00  0.00    +0.012 A 
ENDBRANCH   2   5
ENDBRANCH   1   2
BRANCH   1  11
ATOM     11  C   UNL     1       5.281  -5.083  24.915  0.00  0.00    +0.152 C 
BRANCH  11  12
ATOM     12  C   UNL     1       6.026  -5.734  26.117  0.00  0.00    +0.253 C 
ATOM     13  N   UNL     1       7.226  -5.170  26.485  0.00  0.00    -0.196 N 
ATOM     14  H   UNL     1       7.806  -4.725  25.771  0.00  0.00    +0.182 HD
ATOM     15  O   UNL     1       5.615  -6.734  26.713  0.00  0.00    -0.272 OA
BRANCH  13  16
ATOM     16  O   UNL     1       7.927  -5.904  27.483  0.00  0.00    -0.295 OA
ATOM     17  H   UNL     1       7.207  -6.421  27.908  0.00  0.00    +0.241 HD
ENDBRANCH  13  16
ENDBRANCH  11  12
BRANCH  11  18
ATOM     18  C   UNL     1       3.832  -4.727  25.341  0.00  0.00    +0.031 C 
BRANCH  18  19
ATOM     19  C   UNL     1       3.531  -4.117  26.725  0.00  0.00    -0.015 C 
ATOM     20  C   UNL     1       2.617  -5.093  27.486  0.00  0.00    +0.007 C 
ATOM     21  C   UNL     1       2.866  -2.742  26.715  0.00  0.00    +0.007 C 
ENDBRANCH  18  19
ENDBRANCH  11  18
ENDBRANCH   1  11
BRANCH   1  22
ATOM     22  C   UNL     1       5.436  -2.778  24.024  0.00  0.00    +0.127 C 
BRANCH  22  23
ATOM     23  C   UNL     1       5.935  -1.586  24.823  0.00  0.00    -0.033 A 
ATOM     24  C   UNL     1       6.065  -0.321  24.213  0.00  0.00    +0.005 A 
ATOM     25  C   UNL     1       6.477   0.798  24.936  0.00  0.00    +0.000 A 
ATOM     26  C   UNL     1       6.792   0.660  26.288  0.00  0.00    +0.000 A 
ATOM     27  C   UNL     1       6.711  -0.591  26.889  0.00  0.00    +0.000 A 
ATOM     28  C   UNL     1       6.285  -1.711  26.167  0.00  0.00    +0.005 A 
ENDBRANCH  22  23
ENDBRANCH   1  22
TORSDOF 9
ENDMDL
