MODEL 1
REMARK VINA RESULT:      -7.0      0.000      0.000
REMARK  Name = 
REMARK  15 active torsions:
REMARK  status: ('A' for Active; 'I' for Inactive)
REMARK    1  A    between atoms: C_2  and  C_11
REMARK    2  A    between atoms: C_4  and  O_6
REMARK    3  A    between atoms: CA_20  and  C_22
REMARK    4  A    between atoms: C_22  and  O_23
REMARK    5  A    between atoms: CA_27  and  CB_29
REMARK    6  A    between atoms: CB_29  and  O_30
REMARK    7  A    between atoms: CA_34  and  N_40
REMARK    8  A    between atoms: C_41  and  C_43
REMARK    9  A    between atoms: C_43  and  C_44
REMARK   10  A    between atoms: C_44  and  N_46
REMARK   11  A    between atoms: C_44  and  C_47
REMARK   12  A    between atoms: C_47  and  C_48
REMARK   13  A    between atoms: C_48  and  C_49
REMARK   14  A    between atoms: C_49  and  N_50
REMARK   15  A    between atoms: C_51  and  N_52
REMARK                            x       y       z     vdW  Elec       q    Type
REMARK                         _______ _______ _______ _____ _____    ______ ____
ROOT
ATOM      1  C   UNK A   3       5.366   3.523  24.531  0.00  0.00    +0.194 C 
ATOM      2  C   UNK A   3       5.319   2.686  25.859  0.00  0.00    +0.237 C 
ATOM      3  O   UNK A   3       5.917   3.072  26.866  0.00  0.00    -0.274 OA
ATOM      4  N   UNK A   3       4.799   1.408  25.776  0.00  0.00    -0.311 N 
ATOM      5  H   UNK A   3       4.000   1.250  25.182  0.00  0.00    +0.149 HD
ATOM      6  C   UNK A   3       4.945   0.390  26.822  0.00  0.00    +0.136 C 
ATOM      7  C   UNK A   3       4.778  -1.033  26.218  0.00  0.00    +0.176 C 
ATOM      8  C   UNK A   1       6.135  -1.767  26.093  0.00  0.00    +0.236 C 
ATOM      9  O   UNK A   1       6.758  -2.158  27.081  0.00  0.00    -0.274 OA
ATOM     10  N   SER A   2       6.551  -2.084  24.813  0.00  0.00    -0.301 N 
ATOM     11  H   SER A   2       5.916  -1.967  24.041  0.00  0.00    +0.150 HD
ATOM     12  CA  SER A   2       7.858  -2.762  24.518  0.00  0.00    +0.184 C 
ATOM     13  C   SER A   2       8.291  -2.407  23.062  0.00  0.00    +0.236 C 
ATOM     14  O   SER A   2       7.607  -2.742  22.091  0.00  0.00    -0.274 OA
ATOM     15  N   UNK A   3       9.263  -1.404  22.936  0.00  0.00    -0.300 N 
ATOM     16  H   UNK A   3       9.920  -1.278  23.696  0.00  0.00    +0.150 HD
ATOM     17  C   UNK A   3       8.824  -0.164  22.254  0.00  0.00    +0.185 C 
ATOM     18  C   UNK A   3       9.793   1.062  22.340  0.00  0.00    +0.240 C 
ATOM     19  O   UNK A   3      10.911   0.986  22.845  0.00  0.00    -0.273 OA
ATOM     20  N   UNK A   3       9.217   2.269  21.909  0.00  0.00    -0.279 N 
ATOM     21  H   UNK A   3       8.429   2.143  21.273  0.00  0.00    +0.155 HD
ATOM     22  C   UNK A   3       8.897   3.265  22.858  0.00  0.00    +0.110 C 
ATOM     23  C   UNK A   3       9.776   4.015  23.524  0.00  0.00    +0.104 C 
ATOM     24  C   UNK A   3       7.439   3.642  22.933  0.00  0.00    +0.260 C 
ATOM     25  O   UNK A   3       6.889   3.966  21.891  0.00  0.00    -0.269 OA
ATOM     26  N   UNK A   3       6.827   3.390  24.140  0.00  0.00    -0.296 N 
ATOM     27  H   UNK A   3       7.431   3.166  24.928  0.00  0.00    +0.150 HD
ENDROOT
BRANCH   1  28
ATOM     28  C   UNK A   3       4.272   3.081  23.499  0.00  0.00    +0.170 C 
ATOM     29  N   UNK A   3       4.307   3.887  22.267  0.00  0.00    -0.233 N 
ATOM     30  H   UNK A   3       3.788   3.393  21.544  0.00  0.00    +0.245 HD
ATOM     31  C   UNK A   3       3.820   5.149  22.343  0.00  0.00    +0.364 C 
ATOM     32  N   UNK A   3       4.544   6.202  22.279  0.00  0.00    -0.133 NA
ATOM     33  H   UNK A   3       5.497   5.859  22.083  0.00  0.00    +0.306 HD
ATOM     34  N   UNK A   3       2.524   5.171  22.720  0.00  0.00    -0.213 N 
ATOM     35  H   UNK A   3       2.166   6.120  22.694  0.00  0.00    +0.247 HD
ATOM     36  C   UNK A   3       2.325   4.618  24.032  0.00  0.00    +0.269 C 
ATOM     37  C   UNK A   3       2.807   3.168  24.021  0.00  0.00    +0.109 C 
BRANCH  36  38
ATOM     38  O   UNK A   3       0.955   4.690  24.355  0.00  0.00    -0.362 OA
ATOM     39  H   UNK A   3       0.820   5.542  24.804  0.00  0.00    +0.213 HD
ENDBRANCH  36  38
ENDBRANCH   1  28
BRANCH  23  40
ATOM     40  N   UNK A   3      11.134   3.955  23.315  0.00  0.00    -0.274 N 
ATOM     41  H   UNK A   3      11.529   3.094  22.950  0.00  0.00    +0.156 HD
ATOM     42  C   UNK A   3      11.976   5.008  23.545  0.00  0.00    +0.301 C 
ATOM     43  O   UNK A   3      11.669   6.068  24.074  0.00  0.00    -0.253 OA
ATOM     44  N   UNK A   3      13.243   4.787  23.105  0.00  0.00    -0.313 N 
ATOM     45  H   UNK A   3      13.832   5.610  23.159  0.00  0.00    +0.146 HD
ATOM     46  H   UNK A   3      13.364   4.233  22.271  0.00  0.00    +0.146 HD
ENDBRANCH  23  40
BRANCH   7  47
ATOM     47  N   UNK A   3       3.854  -1.865  27.001  0.00  0.00    -0.303 N 
ATOM     48  H   UNK A   1       3.811  -1.725  28.007  0.00  0.00    +0.149 HD
ATOM     49  C   UNK A   0       3.028  -2.789  26.394  0.00  0.00    +0.215 C 
ATOM     50  O   UNK A   0       3.012  -2.935  25.174  0.00  0.00    -0.276 OA
BRANCH  49  51
ATOM     51  C   UNK A   0       2.152  -3.577  27.364  0.00  0.00    +0.114 C 
BRANCH  51  52
ATOM     52  C   UNK A   0       2.713  -4.963  27.745  0.00  0.00    +0.059 C 
BRANCH  52  53
ATOM     53  N   UNK A   0       3.432  -5.557  26.606  0.00  0.00    -0.327 NA
ATOM     54  H   UNK A   0       4.421  -5.308  26.662  0.00  0.00    +0.118 HD
ATOM     55  H   UNK A   0       3.411  -6.576  26.709  0.00  0.00    +0.118 HD
ENDBRANCH  52  53
BRANCH  52  56
ATOM     56  C   UNK A   0       3.705  -4.910  28.931  0.00  0.00    +0.020 C 
BRANCH  56  57
ATOM     57  C   UNK A   0       5.175  -4.995  28.506  0.00  0.00    +0.016 C 
BRANCH  57  58
ATOM     58  C   UNK A   0       5.864  -6.238  29.071  0.00  0.00    +0.078 C 
BRANCH  58  59
ATOM     59  N   UNK A   0       5.344  -7.429  28.408  0.00  0.00    -0.330 NA
ATOM     60  H   UNK A   0       5.247  -8.182  29.087  0.00  0.00    +0.118 HD
ATOM     61  H   UNK A   0       4.405  -7.246  28.054  0.00  0.00    +0.118 HD
ENDBRANCH  58  59
ENDBRANCH  57  58
ENDBRANCH  56  57
ENDBRANCH  52  56
ENDBRANCH  51  52
ENDBRANCH  49  51
ENDBRANCH   7  47
BRANCH  12  62
ATOM     62  CB  SER A   2       7.711  -4.282  24.647  0.00  0.00    +0.187 C 
BRANCH  62  63
ATOM     63  OG  SER A   2       8.578  -5.003  23.771  0.00  0.00    -0.393 OA
ATOM     64  H   SER A   2       9.456  -5.088  24.197  0.00  0.00    +0.209 HD
ENDBRANCH  62  63
ENDBRANCH  12  62
BRANCH  17  65
ATOM     65  C   UNK A   3       7.527   0.285  22.955  0.00  0.00    +0.187 C 
BRANCH  65  66
ATOM     66  O   UNK A   3       7.774   0.635  24.327  0.00  0.00    -0.393 OA
ATOM     67  H   UNK A   3       8.729   0.591  24.526  0.00  0.00    +0.209 HD
ENDBRANCH  65  66
ENDBRANCH  17  65
TORSDOF 15
ENDMDL
MODEL 2
REMARK VINA RESULT:      -6.3      2.809      8.807
REMARK  Name = 
REMARK  15 active torsions:
REMARK  status: ('A' for Active; 'I' for Inactive)
REMARK    1  A    between atoms: C_2  and  C_11
REMARK    2  A    between atoms: C_4  and  O_6
REMARK    3  A    between atoms: CA_20  and  C_22
REMARK    4  A    between atoms: C_22  and  O_23
REMARK    5  A    between atoms: CA_27  and  CB_29
REMARK    6  A    between atoms: CB_29  and  O_30
REMARK    7  A    between atoms: CA_34  and  N_40
REMARK    8  A    between atoms: C_41  and  C_43
REMARK    9  A    between atoms: C_43  and  C_44
REMARK   10  A    between atoms: C_44  and  N_46
REMARK   11  A    between atoms: C_44  and  C_47
REMARK   12  A    between atoms: C_47  and  C_48
REMARK   13  A    between atoms: C_48  and  C_49
REMARK   14  A    between atoms: C_49  and  N_50
REMARK   15  A    between atoms: C_51  and  N_52
REMARK                            x       y       z     vdW  Elec       q    Type
REMARK                         _______ _______ _______ _____ _____    ______ ____
ROOT
ATOM      1  C   UNK A   3       8.191  -1.099  24.762  0.00  0.00    +0.194 C 
ATOM      2  C   UNK A   3       8.290  -0.161  26.019  0.00  0.00    +0.237 C 
ATOM      3  O   UNK A   3       8.996  -0.473  26.980  0.00  0.00    -0.274 OA
ATOM      4  N   UNK A   3       7.381   0.876  26.099  0.00  0.00    -0.311 N 
ATOM      5  H   UNK A   3       7.139   1.372  25.255  0.00  0.00    +0.149 HD
ATOM      6  C   UNK A   3       7.129   1.659  27.315  0.00  0.00    +0.136 C 
ATOM      7  C   UNK A   3       5.720   2.313  27.253  0.00  0.00    +0.176 C 
ATOM      8  C   UNK A   1       4.711   1.592  28.178  0.00  0.00    +0.236 C 
ATOM      9  O   UNK A   1       4.790   1.656  29.406  0.00  0.00    -0.274 OA
ATOM     10  N   SER A   2       3.634   0.980  27.562  0.00  0.00    -0.301 N 
ATOM     11  H   SER A   2       3.464   1.143  26.583  0.00  0.00    +0.150 HD
ATOM     12  CA  SER A   2       2.587   0.209  28.311  0.00  0.00    +0.184 C 
ATOM     13  C   SER A   2       1.934  -0.826  27.343  0.00  0.00    +0.236 C 
ATOM     14  O   SER A   2       1.312  -0.460  26.342  0.00  0.00    -0.274 OA
ATOM     15  N   UNK A   3       2.389  -2.147  27.455  0.00  0.00    -0.300 N 
ATOM     16  H   UNK A   3       2.738  -2.457  28.355  0.00  0.00    +0.150 HD
ATOM     17  C   UNK A   3       3.099  -2.687  26.272  0.00  0.00    +0.185 C 
ATOM     18  C   UNK A   3       3.848  -4.048  26.465  0.00  0.00    +0.240 C 
ATOM     19  O   UNK A   3       3.771  -4.701  27.502  0.00  0.00    -0.273 OA
ATOM     20  N   UNK A   3       4.708  -4.375  25.404  0.00  0.00    -0.279 N 
ATOM     21  H   UNK A   3       4.464  -3.920  24.524  0.00  0.00    +0.155 HD
ATOM     22  C   UNK A   3       6.106  -4.308  25.594  0.00  0.00    +0.110 C 
ATOM     23  C   UNK A   3       6.830  -5.147  26.334  0.00  0.00    +0.104 C 
ATOM     24  C   UNK A   3       6.834  -3.339  24.696  0.00  0.00    +0.260 C 
ATOM     25  O   UNK A   3       6.653  -3.445  23.493  0.00  0.00    -0.269 OA
ATOM     26  N   UNK A   3       7.476  -2.306  25.341  0.00  0.00    -0.296 N 
ATOM     27  H   UNK A   3       7.580  -2.385  26.351  0.00  0.00    +0.150 HD
ENDROOT
BRANCH   1  28
ATOM     28  C   UNK A   3       7.561  -0.380  23.520  0.00  0.00    +0.170 C 
ATOM     29  N   UNK A   3       7.920  -1.038  22.252  0.00  0.00    -0.233 N 
ATOM     30  H   UNK A   3       7.279  -0.716  21.530  0.00  0.00    +0.245 HD
ATOM     31  C   UNK A   3       9.184  -0.853  21.800  0.00  0.00    +0.364 C 
ATOM     32  N   UNK A   3      10.078  -1.768  21.777  0.00  0.00    -0.133 NA
ATOM     33  H   UNK A   3       9.591  -2.625  22.083  0.00  0.00    +0.306 HD
ATOM     34  N   UNK A   3       9.463   0.451  21.592  0.00  0.00    -0.213 N 
ATOM     35  H   UNK A   3      10.387   0.552  21.184  0.00  0.00    +0.247 HD
ATOM     36  C   UNK A   3       9.385   1.228  22.799  0.00  0.00    +0.269 C 
ATOM     37  C   UNK A   3       7.965   1.114  23.353  0.00  0.00    +0.109 C 
BRANCH  36  38
ATOM     38  O   UNK A   3       9.703   2.568  22.501  0.00  0.00    -0.362 OA
ATOM     39  H   UNK A   3       9.274   3.114  23.182  0.00  0.00    +0.213 HD
ENDBRANCH  36  38
ENDBRANCH   1  28
BRANCH  23  40
ATOM     40  N   UNK A   3       6.302  -6.248  26.967  0.00  0.00    -0.274 N 
ATOM     41  H   UNK A   3       5.979  -7.023  26.398  0.00  0.00    +0.156 HD
ATOM     42  C   UNK A   3       6.220  -6.364  28.327  0.00  0.00    +0.301 C 
ATOM     43  O   UNK A   3       6.472  -5.482  29.138  0.00  0.00    -0.253 OA
ATOM     44  N   UNK A   3       5.831  -7.599  28.738  0.00  0.00    -0.313 N 
ATOM     45  H   UNK A   3       5.893  -7.723  29.742  0.00  0.00    +0.146 HD
ATOM     46  H   UNK A   3       6.132  -8.394  28.193  0.00  0.00    +0.146 HD
ENDBRANCH  23  40
BRANCH   7  47
ATOM     47  N   UNK A   3       5.754   3.740  27.602  0.00  0.00    -0.303 N 
ATOM     48  H   UNK A   1       5.879   3.996  28.578  0.00  0.00    +0.149 HD
ATOM     49  C   UNK A   0       5.660   4.719  26.634  0.00  0.00    +0.215 C 
ATOM     50  O   UNK A   0       5.571   4.440  25.441  0.00  0.00    -0.276 OA
BRANCH  49  51
ATOM     51  C   UNK A   0       5.691   6.144  27.181  0.00  0.00    +0.114 C 
BRANCH  51  52
ATOM     52  C   UNK A   0       7.107   6.736  27.335  0.00  0.00    +0.059 C 
BRANCH  52  53
ATOM     53  N   UNK A   0       7.998   5.769  27.997  0.00  0.00    -0.327 NA
ATOM     54  H   UNK A   0       8.946   6.149  28.030  0.00  0.00    +0.118 HD
ATOM     55  H   UNK A   0       7.713   5.688  28.978  0.00  0.00    +0.118 HD
ENDBRANCH  52  53
BRANCH  52  56
ATOM     56  C   UNK A   0       7.760   7.104  25.982  0.00  0.00    +0.020 C 
BRANCH  56  57
ATOM     57  C   UNK A   0       9.060   6.344  25.701  0.00  0.00    +0.016 C 
BRANCH  57  58
ATOM     58  C   UNK A   0       8.900   5.339  24.559  0.00  0.00    +0.078 C 
BRANCH  58  59
ATOM     59  N   UNK A   0       8.606   4.019  25.107  0.00  0.00    -0.330 NA
ATOM     60  H   UNK A   0       8.680   3.320  24.370  0.00  0.00    +0.118 HD
ATOM     61  H   UNK A   0       9.308   3.769  25.803  0.00  0.00    +0.118 HD
ENDBRANCH  58  59
ENDBRANCH  57  58
ENDBRANCH  56  57
ENDBRANCH  52  56
ENDBRANCH  51  52
ENDBRANCH  49  51
ENDBRANCH   7  47
BRANCH  12  62
ATOM     62  CB  SER A   2       1.507   1.156  28.845  0.00  0.00    +0.187 C 
BRANCH  62  63
ATOM     63  OG  SER A   2       1.041   2.081  27.861  0.00  0.00    -0.393 OA
ATOM     64  H   SER A   2       0.258   1.697  27.413  0.00  0.00    +0.209 HD
ENDBRANCH  62  63
ENDBRANCH  12  62
BRANCH  17  65
ATOM     65  C   UNK A   3       4.190  -1.662  25.911  0.00  0.00    +0.187 C 
BRANCH  65  66
ATOM     66  O   UNK A   3       5.167  -1.553  26.959  0.00  0.00    -0.393 OA
ATOM     67  H   UNK A   3       5.407  -0.618  27.109  0.00  0.00    +0.209 HD
ENDBRANCH  65  66
ENDBRANCH  17  65
TORSDOF 15
ENDMDL
MODEL 3
REMARK VINA RESULT:      -5.9      2.584      8.801
REMARK  Name = 
REMARK  15 active torsions:
REMARK  status: ('A' for Active; 'I' for Inactive)
REMARK    1  A    between atoms: C_2  and  C_11
REMARK    2  A    between atoms: C_4  and  O_6
REMARK    3  A    between atoms: CA_20  and  C_22
REMARK    4  A    between atoms: C_22  and  O_23
REMARK    5  A    between atoms: CA_27  and  CB_29
REMARK    6  A    between atoms: CB_29  and  O_30
REMARK    7  A    between atoms: CA_34  and  N_40
REMARK    8  A    between atoms: C_41  and  C_43
REMARK    9  A    between atoms: C_43  and  C_44
REMARK   10  A    between atoms: C_44  and  N_46
REMARK   11  A    between atoms: C_44  and  C_47
REMARK   12  A    between atoms: C_47  and  C_48
REMARK   13  A    between atoms: C_48  and  C_49
REMARK   14  A    between atoms: C_49  and  N_50
REMARK   15  A    between atoms: C_51  and  N_52
REMARK                            x       y       z     vdW  Elec       q    Type
REMARK                         _______ _______ _______ _____ _____    ______ ____
ROOT
ATOM      1  C   UNK A   3       3.919   1.311  27.124  0.00  0.00    +0.194 C 
ATOM      2  C   UNK A   3       4.091   2.142  25.802  0.00  0.00    +0.237 C 
ATOM      3  O   UNK A   3       3.147   2.278  25.020  0.00  0.00    -0.274 OA
ATOM      4  N   UNK A   3       5.379   2.491  25.445  0.00  0.00    -0.311 N 
ATOM      5  H   UNK A   3       6.023   2.766  26.170  0.00  0.00    +0.149 HD
ATOM      6  C   UNK A   3       5.759   2.995  24.120  0.00  0.00    +0.136 C 
ATOM      7  C   UNK A   3       7.271   2.746  23.861  0.00  0.00    +0.176 C 
ATOM      8  C   UNK A   1       7.500   1.581  22.868  0.00  0.00    +0.236 C 
ATOM      9  O   UNK A   1       7.215   1.678  21.673  0.00  0.00    -0.274 OA
ATOM     10  N   SER A   2       8.165   0.472  23.358  0.00  0.00    -0.301 N 
ATOM     11  H   SER A   2       8.596   0.513  24.266  0.00  0.00    +0.150 HD
ATOM     12  CA  SER A   2       8.433  -0.755  22.535  0.00  0.00    +0.184 C 
ATOM     13  C   SER A   2       8.596  -1.976  23.492  0.00  0.00    +0.236 C 
ATOM     14  O   SER A   2       9.509  -2.021  24.321  0.00  0.00    -0.274 OA
ATOM     15  N   UNK A   3       7.480  -2.814  23.617  0.00  0.00    -0.300 N 
ATOM     16  H   UNK A   3       6.840  -2.877  22.833  0.00  0.00    +0.150 HD
ATOM     17  C   UNK A   3       6.856  -2.862  24.960  0.00  0.00    +0.185 C 
ATOM     18  C   UNK A   3       5.462  -3.568  25.060  0.00  0.00    +0.240 C 
ATOM     19  O   UNK A   3       4.950  -4.154  24.110  0.00  0.00    -0.273 OA
ATOM     20  N   UNK A   3       4.808  -3.356  26.285  0.00  0.00    -0.279 N 
ATOM     21  H   UNK A   3       5.439  -3.114  27.050  0.00  0.00    +0.155 HD
ATOM     22  C   UNK A   3       3.674  -2.516  26.332  0.00  0.00    +0.110 C 
ATOM     23  C   UNK A   3       2.472  -2.804  25.831  0.00  0.00    +0.104 C 
ATOM     24  C   UNK A   3       3.802  -1.304  27.220  0.00  0.00    +0.260 C 
ATOM     25  O   UNK A   3       4.142  -1.492  28.379  0.00  0.00    -0.269 OA
ATOM     26  N   UNK A   3       3.715  -0.090  26.578  0.00  0.00    -0.296 N 
ATOM     27  H   UNK A   3       3.377  -0.098  25.618  0.00  0.00    +0.150 HD
ENDROOT
BRANCH   1  28
ATOM     28  C   UNK A   3       5.082   1.554  28.146  0.00  0.00    +0.170 C 
ATOM     29  N   UNK A   3       4.731   1.116  29.508  0.00  0.00    -0.233 N 
ATOM     30  H   UNK A   3       5.589   1.034  30.051  0.00  0.00    +0.245 HD
ATOM     31  C   UNK A   3       3.871   1.898  30.203  0.00  0.00    +0.364 C 
ATOM     32  N   UNK A   3       2.668   1.565  30.485  0.00  0.00    -0.133 NA
ATOM     33  H   UNK A   3       2.574   0.594  30.148  0.00  0.00    +0.306 HD
ATOM     34  N   UNK A   3       4.342   3.153  30.366  0.00  0.00    -0.213 N 
ATOM     35  H   UNK A   3       3.713   3.691  30.952  0.00  0.00    +0.247 HD
ATOM     36  C   UNK A   3       4.533   3.834  29.114  0.00  0.00    +0.269 C 
ATOM     37  C   UNK A   3       5.537   3.037  28.281  0.00  0.00    +0.109 C 
BRANCH  36  38
ATOM     38  O   UNK A   3       5.010   5.134  29.370  0.00  0.00    -0.362 OA
ATOM     39  H   UNK A   3       5.975   5.105  29.254  0.00  0.00    +0.213 HD
ENDBRANCH  36  38
ENDBRANCH   1  28
BRANCH  23  40
ATOM     40  N   UNK A   3       2.164  -4.013  25.251  0.00  0.00    -0.274 N 
ATOM     41  H   UNK A   3       2.269  -4.107  24.247  0.00  0.00    +0.156 HD
ATOM     42  C   UNK A   3       1.754  -5.105  25.965  0.00  0.00    +0.301 C 
ATOM     43  O   UNK A   3       1.485  -5.120  27.160  0.00  0.00    -0.253 OA
ATOM     44  N   UNK A   3       1.676  -6.237  25.217  0.00  0.00    -0.313 N 
ATOM     45  H   UNK A   3       1.497  -7.067  25.770  0.00  0.00    +0.146 HD
ATOM     46  H   UNK A   3       2.347  -6.358  24.474  0.00  0.00    +0.146 HD
ENDBRANCH  23  40
BRANCH   7  47
ATOM     47  N   UNK A   3       7.954   3.946  23.357  0.00  0.00    -0.303 N 
ATOM     48  H   UNK A   1       8.070   4.050  22.352  0.00  0.00    +0.149 HD
ATOM     49  C   UNK A   0       8.396   4.935  24.212  0.00  0.00    +0.215 C 
ATOM     50  O   UNK A   0       8.213   4.866  25.426  0.00  0.00    -0.276 OA
BRANCH  49  51
ATOM     51  C   UNK A   0       9.101   6.095  23.515  0.00  0.00    +0.114 C 
BRANCH  51  52
ATOM     52  C   UNK A   0      10.553   6.329  23.982  0.00  0.00    +0.059 C 
BRANCH  52  53
ATOM     53  N   UNK A   0      10.570   6.957  25.313  0.00  0.00    -0.327 NA
ATOM     54  H   UNK A   0       9.672   6.798  25.773  0.00  0.00    +0.118 HD
ATOM     55  H   UNK A   0      11.254   6.461  25.893  0.00  0.00    +0.118 HD
ENDBRANCH  52  53
BRANCH  52  56
ATOM     56  C   UNK A   0      11.374   5.022  24.084  0.00  0.00    +0.020 C 
BRANCH  56  57
ATOM     57  C   UNK A   0      12.015   4.595  22.759  0.00  0.00    +0.016 C 
BRANCH  57  58
ATOM     58  C   UNK A   0      13.167   5.517  22.357  0.00  0.00    +0.078 C 
BRANCH  58  59
ATOM     59  N   UNK A   0      14.380   5.122  23.065  0.00  0.00    -0.330 NA
ATOM     60  H   UNK A   0      14.174   5.010  24.057  0.00  0.00    +0.118 HD
ATOM     61  H   UNK A   0      14.690   4.208  22.737  0.00  0.00    +0.118 HD
ENDBRANCH  58  59
ENDBRANCH  57  58
ENDBRANCH  56  57
ENDBRANCH  52  56
ENDBRANCH  51  52
ENDBRANCH  49  51
ENDBRANCH   7  47
BRANCH  12  62
ATOM     62  CB  SER A   2       9.716  -0.577  21.716  0.00  0.00    +0.187 C 
BRANCH  62  63
ATOM     63  OG  SER A   2      10.626  -1.668  21.861  0.00  0.00    -0.393 OA
ATOM     64  H   SER A   2      11.332  -1.582  21.187  0.00  0.00    +0.209 HD
ENDBRANCH  62  63
ENDBRANCH  12  62
BRANCH  17  65
ATOM     65  C   UNK A   3       6.610  -1.400  25.380  0.00  0.00    +0.187 C 
BRANCH  65  66
ATOM     66  O   UNK A   3       5.678  -0.757  24.495  0.00  0.00    -0.393 OA
ATOM     67  H   UNK A   3       6.108  -0.532  23.648  0.00  0.00    +0.209 HD
ENDBRANCH  65  66
ENDBRANCH  17  65
TORSDOF 15
ENDMDL
MODEL 4
REMARK VINA RESULT:      -5.9      2.974      6.783
REMARK  Name = 
REMARK  15 active torsions:
REMARK  status: ('A' for Active; 'I' for Inactive)
REMARK    1  A    between atoms: C_2  and  C_11
REMARK    2  A    between atoms: C_4  and  O_6
REMARK    3  A    between atoms: CA_20  and  C_22
REMARK    4  A    between atoms: C_22  and  O_23
REMARK    5  A    between atoms: CA_27  and  CB_29
REMARK    6  A    between atoms: CB_29  and  O_30
REMARK    7  A    between atoms: CA_34  and  N_40
REMARK    8  A    between atoms: C_41  and  C_43
REMARK    9  A    between atoms: C_43  and  C_44
REMARK   10  A    between atoms: C_44  and  N_46
REMARK   11  A    between atoms: C_44  and  C_47
REMARK   12  A    between atoms: C_47  and  C_48
REMARK   13  A    between atoms: C_48  and  C_49
REMARK   14  A    between atoms: C_49  and  N_50
REMARK   15  A    between atoms: C_51  and  N_52
REMARK                            x       y       z     vdW  Elec       q    Type
REMARK                         _______ _______ _______ _____ _____    ______ ____
ROOT
ATOM      1  C   UNK A   3       7.225  -2.536  25.113  0.00  0.00    +0.194 C 
ATOM      2  C   UNK A   3       5.706  -2.796  24.809  0.00  0.00    +0.237 C 
ATOM      3  O   UNK A   3       5.269  -2.689  23.661  0.00  0.00    -0.274 OA
ATOM      4  N   UNK A   3       4.860  -2.901  25.896  0.00  0.00    -0.311 N 
ATOM      5  H   UNK A   3       5.186  -3.388  26.717  0.00  0.00    +0.149 HD
ATOM      6  C   UNK A   3       3.396  -2.845  25.808  0.00  0.00    +0.136 C 
ATOM      7  C   UNK A   3       2.790  -2.421  27.175  0.00  0.00    +0.176 C 
ATOM      8  C   UNK A   1       2.290  -0.956  27.153  0.00  0.00    +0.236 C 
ATOM      9  O   UNK A   1       1.302  -0.614  26.501  0.00  0.00    -0.274 OA
ATOM     10  N   SER A   2       2.926  -0.072  28.005  0.00  0.00    -0.301 N 
ATOM     11  H   SER A   2       3.567  -0.424  28.696  0.00  0.00    +0.150 HD
ATOM     12  CA  SER A   2       2.587   1.388  28.077  0.00  0.00    +0.184 C 
ATOM     13  C   SER A   2       3.829   2.168  28.608  0.00  0.00    +0.236 C 
ATOM     14  O   SER A   2       4.283   1.957  29.736  0.00  0.00    -0.274 OA
ATOM     15  N   UNK A   3       4.604   2.825  27.641  0.00  0.00    -0.300 N 
ATOM     16  H   UNK A   3       4.144   3.136  26.793  0.00  0.00    +0.150 HD
ATOM     17  C   UNK A   3       5.988   2.324  27.475  0.00  0.00    +0.185 C 
ATOM     18  C   UNK A   3       6.778   2.850  26.230  0.00  0.00    +0.240 C 
ATOM     19  O   UNK A   3       6.330   3.715  25.482  0.00  0.00    -0.273 OA
ATOM     20  N   UNK A   3       7.971   2.150  25.981  0.00  0.00    -0.279 N 
ATOM     21  H   UNK A   3       8.349   1.680  26.803  0.00  0.00    +0.155 HD
ATOM     22  C   UNK A   3       8.051   1.284  24.869  0.00  0.00    +0.110 C 
ATOM     23  C   UNK A   3       8.100   1.662  23.591  0.00  0.00    +0.104 C 
ATOM     24  C   UNK A   3       8.330  -0.162  25.194  0.00  0.00    +0.260 C 
ATOM     25  O   UNK A   3       9.304  -0.402  25.892  0.00  0.00    -0.269 OA
ATOM     26  N   UNK A   3       7.340  -1.048  24.835  0.00  0.00    -0.296 N 
ATOM     27  H   UNK A   3       6.612  -0.702  24.214  0.00  0.00    +0.150 HD
ENDROOT
BRANCH   1  28
ATOM     28  C   UNK A   3       7.660  -3.071  26.521  0.00  0.00    +0.170 C 
ATOM     29  N   UNK A   3       9.016  -3.645  26.506  0.00  0.00    -0.233 N 
ATOM     30  H   UNK A   3       9.347  -3.713  27.467  0.00  0.00    +0.245 HD
ATOM     31  C   UNK A   3       9.162  -4.862  25.928  0.00  0.00    +0.364 C 
ATOM     32  N   UNK A   3       9.769  -5.059  24.819  0.00  0.00    -0.133 NA
ATOM     33  H   UNK A   3      10.157  -4.139  24.559  0.00  0.00    +0.306 HD
ATOM     34  N   UNK A   3       8.405  -5.804  26.528  0.00  0.00    -0.213 N 
ATOM     35  H   UNK A   3       8.592  -6.716  26.123  0.00  0.00    +0.247 HD
ATOM     36  C   UNK A   3       6.999  -5.518  26.438  0.00  0.00    +0.269 C 
ATOM     37  C   UNK A   3       6.737  -4.174  27.117  0.00  0.00    +0.109 C 
BRANCH  36  38
ATOM     38  O   UNK A   3       6.281  -6.551  27.072  0.00  0.00    -0.362 OA
ATOM     39  H   UNK A   3       5.601  -6.122  27.619  0.00  0.00    +0.213 HD
ENDBRANCH  36  38
ENDBRANCH   1  28
BRANCH  23  40
ATOM     40  N   UNK A   3       8.146   2.977  23.192  0.00  0.00    -0.274 N 
ATOM     41  H   UNK A   3       8.908   3.557  23.528  0.00  0.00    +0.156 HD
ATOM     42  C   UNK A   3       7.234   3.535  22.338  0.00  0.00    +0.301 C 
ATOM     43  O   UNK A   3       6.212   2.997  21.931  0.00  0.00    -0.253 OA
ATOM     44  N   UNK A   3       7.569   4.790  21.941  0.00  0.00    -0.313 N 
ATOM     45  H   UNK A   3       6.964   5.152  21.213  0.00  0.00    +0.146 HD
ATOM     46  H   UNK A   3       8.549   5.003  21.822  0.00  0.00    +0.146 HD
ENDBRANCH  23  40
BRANCH   7  47
ATOM     47  N   UNK A   3       1.684  -3.297  27.590  0.00  0.00    -0.303 N 
ATOM     48  H   UNK A   1       0.763  -3.133  27.193  0.00  0.00    +0.149 HD
ATOM     49  C   UNK A   0       1.887  -4.345  28.464  0.00  0.00    +0.215 C 
ATOM     50  O   UNK A   0       3.002  -4.606  28.910  0.00  0.00    -0.276 OA
BRANCH  49  51
ATOM     51  C   UNK A   0       0.623  -5.133  28.798  0.00  0.00    +0.114 C 
BRANCH  51  52
ATOM     52  C   UNK A   0       0.455  -6.438  27.991  0.00  0.00    +0.059 C 
BRANCH  52  53
ATOM     53  N   UNK A   0       1.371  -6.450  26.839  0.00  0.00    -0.327 NA
ATOM     54  H   UNK A   0       1.138  -5.677  26.213  0.00  0.00    +0.118 HD
ATOM     55  H   UNK A   0       2.315  -6.240  27.177  0.00  0.00    +0.118 HD
ENDBRANCH  52  53
BRANCH  52  56
ATOM     56  C   UNK A   0       0.752  -7.707  28.823  0.00  0.00    +0.020 C 
BRANCH  56  57
ATOM     57  C   UNK A   0       1.207  -7.409  30.255  0.00  0.00    +0.016 C 
BRANCH  57  58
ATOM     58  C   UNK A   0       2.669  -7.797  30.485  0.00  0.00    +0.078 C 
BRANCH  58  59
ATOM     59  N   UNK A   0       3.430  -7.580  29.259  0.00  0.00    -0.330 NA
ATOM     60  H   UNK A   0       2.814  -7.210  28.537  0.00  0.00    +0.118 HD
ATOM     61  H   UNK A   0       4.141  -6.865  29.415  0.00  0.00    +0.118 HD
ENDBRANCH  58  59
ENDBRANCH  57  58
ENDBRANCH  56  57
ENDBRANCH  52  56
ENDBRANCH  51  52
ENDBRANCH  49  51
ENDBRANCH   7  47
BRANCH  12  62
ATOM     62  CB  SER A   2       1.404   1.614  29.024  0.00  0.00    +0.187 C 
BRANCH  62  63
ATOM     63  OG  SER A   2       1.436   0.763  30.171  0.00  0.00    -0.393 OA
ATOM     64  H   SER A   2       1.437   1.321  30.977  0.00  0.00    +0.209 HD
ENDBRANCH  62  63
ENDBRANCH  12  62
BRANCH  17  65
ATOM     65  C   UNK A   3       5.881   0.799  27.283  0.00  0.00    +0.187 C 
BRANCH  65  66
ATOM     66  O   UNK A   3       5.179   0.477  26.071  0.00  0.00    -0.393 OA
ATOM     67  H   UNK A   3       5.014   1.283  25.545  0.00  0.00    +0.209 HD
ENDBRANCH  65  66
ENDBRANCH  17  65
TORSDOF 15
ENDMDL
MODEL 5
REMARK VINA RESULT:      -5.7      2.553      6.651
REMARK  Name = 
REMARK  15 active torsions:
REMARK  status: ('A' for Active; 'I' for Inactive)
REMARK    1  A    between atoms: C_2  and  C_11
REMARK    2  A    between atoms: C_4  and  O_6
REMARK    3  A    between atoms: CA_20  and  C_22
REMARK    4  A    between atoms: C_22  and  O_23
REMARK    5  A    between atoms: CA_27  and  CB_29
REMARK    6  A    between atoms: CB_29  and  O_30
REMARK    7  A    between atoms: CA_34  and  N_40
REMARK    8  A    between atoms: C_41  and  C_43
REMARK    9  A    between atoms: C_43  and  C_44
REMARK   10  A    between atoms: C_44  and  N_46
REMARK   11  A    between atoms: C_44  and  C_47
REMARK   12  A    between atoms: C_47  and  C_48
REMARK   13  A    between atoms: C_48  and  C_49
REMARK   14  A    between atoms: C_49  and  N_50
REMARK   15  A    between atoms: C_51  and  N_52
REMARK                            x       y       z     vdW  Elec       q    Type
REMARK                         _______ _______ _______ _____ _____    ______ ____
ROOT
ATOM      1  C   UNK A   3       7.164  -0.708  23.471  0.00  0.00    +0.194 C 
ATOM      2  C   UNK A   3       6.098  -1.769  23.925  0.00  0.00    +0.237 C 
ATOM      3  O   UNK A   3       5.177  -2.094  23.173  0.00  0.00    -0.274 OA
ATOM      4  N   UNK A   3       6.096  -2.122  25.261  0.00  0.00    -0.311 N 
ATOM      5  H   UNK A   3       6.981  -2.224  25.734  0.00  0.00    +0.149 HD
ATOM      6  C   UNK A   3       5.008  -2.854  25.918  0.00  0.00    +0.136 C 
ATOM      7  C   UNK A   3       5.030  -2.592  27.451  0.00  0.00    +0.176 C 
ATOM      8  C   UNK A   1       3.898  -1.631  27.886  0.00  0.00    +0.236 C 
ATOM      9  O   UNK A   1       2.713  -1.967  27.865  0.00  0.00    -0.274 OA
ATOM     10  N   SER A   2       4.288  -0.420  28.427  0.00  0.00    -0.301 N 
ATOM     11  H   SER A   2       5.257  -0.267  28.653  0.00  0.00    +0.150 HD
ATOM     12  CA  SER A   2       3.316   0.637  28.864  0.00  0.00    +0.184 C 
ATOM     13  C   SER A   2       4.026   2.025  28.815  0.00  0.00    +0.236 C 
ATOM     14  O   SER A   2       5.004   2.269  29.527  0.00  0.00    -0.274 OA
ATOM     15  N   UNK A   3       3.744   2.822  27.696  0.00  0.00    -0.300 N 
ATOM     16  H   UNK A   3       2.847   2.704  27.240  0.00  0.00    +0.150 HD
ATOM     17  C   UNK A   3       4.890   3.098  26.797  0.00  0.00    +0.185 C 
ATOM     18  C   UNK A   3       4.552   3.748  25.413  0.00  0.00    +0.240 C 
ATOM     19  O   UNK A   3       3.419   4.117  25.117  0.00  0.00    -0.273 OA
ATOM     20  N   UNK A   3       5.629   3.746  24.511  0.00  0.00    -0.279 N 
ATOM     21  H   UNK A   3       6.542   3.684  24.962  0.00  0.00    +0.155 HD
ATOM     22  C   UNK A   3       5.599   2.881  23.395  0.00  0.00    +0.110 C 
ATOM     23  C   UNK A   3       4.809   3.015  22.329  0.00  0.00    +0.104 C 
ATOM     24  C   UNK A   3       6.716   1.869  23.331  0.00  0.00    +0.260 C 
ATOM     25  O   UNK A   3       7.860   2.291  23.412  0.00  0.00    -0.269 OA
ATOM     26  N   UNK A   3       6.321   0.552  23.386  0.00  0.00    -0.296 N 
ATOM     27  H   UNK A   3       5.329   0.360  23.264  0.00  0.00    +0.150 HD
ENDROOT
BRANCH   1  28
ATOM     28  C   UNK A   3       8.436  -0.699  24.387  0.00  0.00    +0.170 C 
ATOM     29  N   UNK A   3       9.636  -0.230  23.673  0.00  0.00    -0.233 N 
ATOM     30  H   UNK A   3      10.343   0.020  24.361  0.00  0.00    +0.245 HD
ATOM     31  C   UNK A   3      10.199  -1.088  22.789  0.00  0.00    +0.364 C 
ATOM     32  N   UNK A   3      10.175  -0.927  21.519  0.00  0.00    -0.133 NA
ATOM     33  H   UNK A   3       9.730  -0.007  21.375  0.00  0.00    +0.306 HD
ATOM     34  N   UNK A   3      10.587  -2.240  23.375  0.00  0.00    -0.213 N 
ATOM     35  H   UNK A   3      11.072  -2.829  22.706  0.00  0.00    +0.247 HD
ATOM     36  C   UNK A   3       9.483  -2.966  23.942  0.00  0.00    +0.269 C 
ATOM     37  C   UNK A   3       8.816  -2.081  24.995  0.00  0.00    +0.109 C 
BRANCH  36  38
ATOM     38  O   UNK A   3       9.967  -4.157  24.519  0.00  0.00    -0.362 OA
ATOM     39  H   UNK A   3      10.656  -4.495  23.923  0.00  0.00    +0.213 HD
ENDBRANCH  36  38
ENDBRANCH   1  28
BRANCH  23  40
ATOM     40  N   UNK A   3       3.951   4.075  22.150  0.00  0.00    -0.274 N 
ATOM     41  H   UNK A   3       4.274   5.004  22.399  0.00  0.00    +0.156 HD
ATOM     42  C   UNK A   3       2.696   3.943  21.624  0.00  0.00    +0.301 C 
ATOM     43  O   UNK A   3       2.132   2.886  21.372  0.00  0.00    -0.253 OA
ATOM     44  N   UNK A   3       2.092   5.135  21.374  0.00  0.00    -0.313 N 
ATOM     45  H   UNK A   3       1.219   5.039  20.868  0.00  0.00    +0.146 HD
ATOM     46  H   UNK A   3       2.672   5.905  21.076  0.00  0.00    +0.146 HD
ENDBRANCH  23  40
BRANCH   7  47
ATOM     47  N   UNK A   3       4.928  -3.835  28.229  0.00  0.00    -0.303 N 
ATOM     48  H   UNK A   1       4.057  -4.030  28.717  0.00  0.00    +0.149 HD
ATOM     49  C   UNK A   0       5.965  -4.744  28.271  0.00  0.00    +0.215 C 
ATOM     50  O   UNK A   0       7.004  -4.566  27.640  0.00  0.00    -0.276 OA
BRANCH  49  51
ATOM     51  C   UNK A   0       5.691  -5.965  29.145  0.00  0.00    +0.114 C 
BRANCH  51  52
ATOM     52  C   UNK A   0       5.010  -7.136  28.406  0.00  0.00    +0.059 C 
BRANCH  52  53
ATOM     53  N   UNK A   0       3.739  -7.488  29.062  0.00  0.00    -0.327 NA
ATOM     54  H   UNK A   0       3.815  -8.421  29.469  0.00  0.00    +0.118 HD
ATOM     55  H   UNK A   0       3.607  -6.861  29.862  0.00  0.00    +0.118 HD
ENDBRANCH  52  53
BRANCH  52  56
ATOM     56  C   UNK A   0       4.686  -6.813  26.928  0.00  0.00    +0.020 C 
BRANCH  56  57
ATOM     57  C   UNK A   0       3.201  -6.958  26.580  0.00  0.00    +0.016 C 
BRANCH  57  58
ATOM     58  C   UNK A   0       2.541  -5.604  26.313  0.00  0.00    +0.078 C 
BRANCH  58  59
ATOM     59  N   UNK A   0       2.181  -4.977  27.580  0.00  0.00    -0.330 NA
ATOM     60  H   UNK A   0       1.189  -5.120  27.762  0.00  0.00    +0.118 HD
ATOM     61  H   UNK A   0       2.676  -5.436  28.345  0.00  0.00    +0.118 HD
ENDBRANCH  58  59
ENDBRANCH  57  58
ENDBRANCH  56  57
ENDBRANCH  52  56
ENDBRANCH  51  52
ENDBRANCH  49  51
ENDBRANCH   7  47
BRANCH  12  62
ATOM     62  CB  SER A   2       2.837   0.362  30.294  0.00  0.00    +0.187 C 
BRANCH  62  63
ATOM     63  OG  SER A   2       1.691  -0.489  30.345  0.00  0.00    -0.393 OA
ATOM     64  H   SER A   2       1.027  -0.162  29.703  0.00  0.00    +0.209 HD
ENDBRANCH  62  63
ENDBRANCH  12  62
BRANCH  17  65
ATOM     65  C   UNK A   3       5.527   1.735  26.469  0.00  0.00    +0.187 C 
BRANCH  65  66
ATOM     66  O   UNK A   3       4.621   0.904  25.726  0.00  0.00    -0.393 OA
ATOM     67  H   UNK A   3       4.146   0.294  26.323  0.00  0.00    +0.209 HD
ENDBRANCH  65  66
ENDBRANCH  17  65
TORSDOF 15
ENDMDL
MODEL 6
REMARK VINA RESULT:      -5.7      2.970      6.807
REMARK  Name = 
REMARK  15 active torsions:
REMARK  status: ('A' for Active; 'I' for Inactive)
REMARK    1  A    between atoms: C_2  and  C_11
REMARK    2  A    between atoms: C_4  and  O_6
REMARK    3  A    between atoms: CA_20  and  C_22
REMARK    4  A    between atoms: C_22  and  O_23
REMARK    5  A    between atoms: CA_27  and  CB_29
REMARK    6  A    between atoms: CB_29  and  O_30
REMARK    7  A    between atoms: CA_34  and  N_40
REMARK    8  A    between atoms: C_41  and  C_43
REMARK    9  A    between atoms: C_43  and  C_44
REMARK   10  A    between atoms: C_44  and  N_46
REMARK   11  A    between atoms: C_44  and  C_47
REMARK   12  A    between atoms: C_47  and  C_48
REMARK   13  A    between atoms: C_48  and  C_49
REMARK   14  A    between atoms: C_49  and  N_50
REMARK   15  A    between atoms: C_51  and  N_52
REMARK                            x       y       z     vdW  Elec       q    Type
REMARK                         _______ _______ _______ _____ _____    ______ ____
ROOT
ATOM      1  C   UNK A   3       7.516  -2.599  24.975  0.00  0.00    +0.194 C 
ATOM      2  C   UNK A   3       6.010  -2.936  24.679  0.00  0.00    +0.237 C 
ATOM      3  O   UNK A   3       5.558  -2.836  23.537  0.00  0.00    -0.274 OA
ATOM      4  N   UNK A   3       5.180  -3.102  25.771  0.00  0.00    -0.311 N 
ATOM      5  H   UNK A   3       5.539  -3.582  26.582  0.00  0.00    +0.149 HD
ATOM      6  C   UNK A   3       3.714  -3.124  25.696  0.00  0.00    +0.136 C 
ATOM      7  C   UNK A   3       3.098  -2.752  27.074  0.00  0.00    +0.176 C 
ATOM      8  C   UNK A   1       2.520  -1.317  27.077  0.00  0.00    +0.236 C 
ATOM      9  O   UNK A   1       1.509  -1.019  26.438  0.00  0.00    -0.274 OA
ATOM     10  N   SER A   2       3.115  -0.412  27.937  0.00  0.00    -0.301 N 
ATOM     11  H   SER A   2       3.780  -0.738  28.618  0.00  0.00    +0.150 HD
ATOM     12  CA  SER A   2       2.698   1.027  28.033  0.00  0.00    +0.184 C 
ATOM     13  C   SER A   2       3.902   1.865  28.565  0.00  0.00    +0.236 C 
ATOM     14  O   SER A   2       4.376   1.662  29.687  0.00  0.00    -0.274 OA
ATOM     15  N   UNK A   3       4.631   2.576  27.602  0.00  0.00    -0.300 N 
ATOM     16  H   UNK A   3       4.149   2.874  26.762  0.00  0.00    +0.150 HD
ATOM     17  C   UNK A   3       6.039   2.153  27.418  0.00  0.00    +0.185 C 
ATOM     18  C   UNK A   3       6.789   2.739  26.174  0.00  0.00    +0.240 C 
ATOM     19  O   UNK A   3       6.289   3.590  25.443  0.00  0.00    -0.273 OA
ATOM     20  N   UNK A   3       8.016   2.108  25.906  0.00  0.00    -0.279 N 
ATOM     21  H   UNK A   3       8.426   1.647  26.719  0.00  0.00    +0.155 HD
ATOM     22  C   UNK A   3       8.133   1.263  24.781  0.00  0.00    +0.110 C 
ATOM     23  C   UNK A   3       8.150   1.662  23.508  0.00  0.00    +0.104 C 
ATOM     24  C   UNK A   3       8.491  -0.170  25.083  0.00  0.00    +0.260 C 
ATOM     25  O   UNK A   3       9.483  -0.367  25.769  0.00  0.00    -0.269 OA
ATOM     26  N   UNK A   3       7.548  -1.103  24.718  0.00  0.00    -0.296 N 
ATOM     27  H   UNK A   3       6.797  -0.788  24.108  0.00  0.00    +0.150 HD
ENDROOT
BRANCH   1  28
ATOM     28  C   UNK A   3       7.991  -3.129  26.371  0.00  0.00    +0.170 C 
ATOM     29  N   UNK A   3       9.259  -3.873  26.285  0.00  0.00    -0.233 N 
ATOM     30  H   UNK A   3       9.654  -3.946  27.221  0.00  0.00    +0.245 HD
ATOM     31  C   UNK A   3       9.205  -5.120  25.758  0.00  0.00    +0.364 C 
ATOM     32  N   UNK A   3       9.693  -5.437  24.618  0.00  0.00    -0.133 NA
ATOM     33  H   UNK A   3      10.170  -4.585  24.285  0.00  0.00    +0.306 HD
ATOM     34  N   UNK A   3       8.386  -5.933  26.458  0.00  0.00    -0.213 N 
ATOM     35  H   UNK A   3       8.425  -6.876  26.085  0.00  0.00    +0.247 HD
ATOM     36  C   UNK A   3       7.024  -5.473  26.458  0.00  0.00    +0.269 C 
ATOM     37  C   UNK A   3       6.987  -4.081  27.087  0.00  0.00    +0.109 C 
BRANCH  36  38
ATOM     38  O   UNK A   3       6.235  -6.379  27.193  0.00  0.00    -0.362 OA
ATOM     39  H   UNK A   3       6.569  -6.362  28.106  0.00  0.00    +0.213 HD
ENDBRANCH  36  38
ENDBRANCH   1  28
BRANCH  23  40
ATOM     40  N   UNK A   3       8.122   2.983  23.129  0.00  0.00    -0.274 N 
ATOM     41  H   UNK A   3       8.872   3.591  23.439  0.00  0.00    +0.156 HD
ATOM     42  C   UNK A   3       7.150   3.512  22.325  0.00  0.00    +0.301 C 
ATOM     43  O   UNK A   3       6.134   2.936  21.955  0.00  0.00    -0.253 OA
ATOM     44  N   UNK A   3       7.412   4.787  21.933  0.00  0.00    -0.313 N 
ATOM     45  H   UNK A   3       6.760   5.132  21.239  0.00  0.00    +0.146 HD
ATOM     46  H   UNK A   3       8.375   5.043  21.774  0.00  0.00    +0.146 HD
ENDBRANCH  23  40
BRANCH   7  47
ATOM     47  N   UNK A   3       2.045  -3.693  27.484  0.00  0.00    -0.303 N 
ATOM     48  H   UNK A   1       1.078  -3.456  27.276  0.00  0.00    +0.149 HD
ATOM     49  C   UNK A   0       2.350  -4.888  28.101  0.00  0.00    +0.215 C 
ATOM     50  O   UNK A   0       3.512  -5.229  28.308  0.00  0.00    -0.276 OA
BRANCH  49  51
ATOM     51  C   UNK A   0       1.130  -5.727  28.475  0.00  0.00    +0.114 C 
BRANCH  51  52
ATOM     52  C   UNK A   0       0.569  -6.584  27.321  0.00  0.00    +0.059 C 
BRANCH  52  53
ATOM     53  N   UNK A   0       0.445  -5.778  26.096  0.00  0.00    -0.327 NA
ATOM     54  H   UNK A   0       0.542  -6.384  25.280  0.00  0.00    +0.118 HD
ATOM     55  H   UNK A   0      -0.514  -5.419  26.045  0.00  0.00    +0.118 HD
ENDBRANCH  52  53
BRANCH  52  56
ATOM     56  C   UNK A   0       1.466  -7.798  26.978  0.00  0.00    +0.020 C 
BRANCH  56  57
ATOM     57  C   UNK A   0       2.000  -7.779  25.542  0.00  0.00    +0.016 C 
BRANCH  57  58
ATOM     58  C   UNK A   0       3.512  -7.550  25.497  0.00  0.00    +0.078 C 
BRANCH  58  59
ATOM     59  N   UNK A   0       3.974  -7.607  24.114  0.00  0.00    -0.330 NA
ATOM     60  H   UNK A   0       3.218  -7.938  23.516  0.00  0.00    +0.118 HD
ATOM     61  H   UNK A   0       4.201  -6.668  23.787  0.00  0.00    +0.118 HD
ENDBRANCH  58  59
ENDBRANCH  57  58
ENDBRANCH  56  57
ENDBRANCH  52  56
ENDBRANCH  51  52
ENDBRANCH  49  51
ENDBRANCH   7  47
BRANCH  12  62
ATOM     62  CB  SER A   2       1.513   1.175  28.992  0.00  0.00    +0.187 C 
BRANCH  62  63
ATOM     63  OG  SER A   2       1.813   0.743  30.321  0.00  0.00    -0.393 OA
ATOM     64  H   SER A   2       1.659   1.489  30.937  0.00  0.00    +0.209 HD
ENDBRANCH  62  63
ENDBRANCH  12  62
BRANCH  17  65
ATOM     65  C   UNK A   3       6.013   0.628  27.204  0.00  0.00    +0.187 C 
BRANCH  65  66
ATOM     66  O   UNK A   3       5.318   0.285  25.994  0.00  0.00    -0.393 OA
ATOM     67  H   UNK A   3       5.909   0.378  25.221  0.00  0.00    +0.209 HD
ENDBRANCH  65  66
ENDBRANCH  17  65
TORSDOF 15
ENDMDL
MODEL 7
REMARK VINA RESULT:      -5.6      2.136      6.356
REMARK  Name = 
REMARK  15 active torsions:
REMARK  status: ('A' for Active; 'I' for Inactive)
REMARK    1  A    between atoms: C_2  and  C_11
REMARK    2  A    between atoms: C_4  and  O_6
REMARK    3  A    between atoms: CA_20  and  C_22
REMARK    4  A    between atoms: C_22  and  O_23
REMARK    5  A    between atoms: CA_27  and  CB_29
REMARK    6  A    between atoms: CB_29  and  O_30
REMARK    7  A    between atoms: CA_34  and  N_40
REMARK    8  A    between atoms: C_41  and  C_43
REMARK    9  A    between atoms: C_43  and  C_44
REMARK   10  A    between atoms: C_44  and  N_46
REMARK   11  A    between atoms: C_44  and  C_47
REMARK   12  A    between atoms: C_47  and  C_48
REMARK   13  A    between atoms: C_48  and  C_49
REMARK   14  A    between atoms: C_49  and  N_50
REMARK   15  A    between atoms: C_51  and  N_52
REMARK                            x       y       z     vdW  Elec       q    Type
REMARK                         _______ _______ _______ _____ _____    ______ ____
ROOT
ATOM      1  C   UNK A   3       7.978   3.731  23.145  0.00  0.00    +0.194 C 
ATOM      2  C   UNK A   3       7.862   2.279  22.557  0.00  0.00    +0.237 C 
ATOM      3  O   UNK A   3       7.363   2.091  21.445  0.00  0.00    -0.274 OA
ATOM      4  N   UNK A   3       8.107   1.232  23.424  0.00  0.00    -0.311 N 
ATOM      5  H   UNK A   3       8.853   1.326  24.096  0.00  0.00    +0.149 HD
ATOM      6  C   UNK A   3       7.763  -0.167  23.143  0.00  0.00    +0.136 C 
ATOM      7  C   UNK A   3       7.630  -0.966  24.470  0.00  0.00    +0.176 C 
ATOM      8  C   UNK A   1       6.151  -1.255  24.821  0.00  0.00    +0.236 C 
ATOM      9  O   UNK A   1       5.468  -2.045  24.167  0.00  0.00    -0.274 OA
ATOM     10  N   SER A   2       5.669  -0.687  25.986  0.00  0.00    -0.301 N 
ATOM     11  H   SER A   2       6.309  -0.243  26.624  0.00  0.00    +0.150 HD
ATOM     12  CA  SER A   2       4.249  -0.839  26.448  0.00  0.00    +0.184 C 
ATOM     13  C   SER A   2       3.887   0.368  27.368  0.00  0.00    +0.236 C 
ATOM     14  O   SER A   2       4.481   0.563  28.432  0.00  0.00    -0.274 OA
ATOM     15  N   UNK A   3       3.141   1.395  26.772  0.00  0.00    -0.300 N 
ATOM     16  H   UNK A   3       2.529   1.154  26.001  0.00  0.00    +0.150 HD
ATOM     17  C   UNK A   3       3.821   2.707  26.666  0.00  0.00    +0.185 C 
ATOM     18  C   UNK A   3       3.124   3.786  25.771  0.00  0.00    +0.240 C 
ATOM     19  O   UNK A   3       2.019   3.610  25.265  0.00  0.00    -0.273 OA
ATOM     20  N   UNK A   3       3.933   4.903  25.499  0.00  0.00    -0.279 N 
ATOM     21  H   UNK A   3       4.673   5.049  26.185  0.00  0.00    +0.155 HD
ATOM     22  C   UNK A   3       4.457   5.083  24.200  0.00  0.00    +0.110 C 
ATOM     23  C   UNK A   3       3.756   5.428  23.120  0.00  0.00    +0.104 C 
ATOM     24  C   UNK A   3       5.962   5.101  24.107  0.00  0.00    +0.260 C 
ATOM     25  O   UNK A   3       6.560   5.881  24.834  0.00  0.00    -0.269 OA
ATOM     26  N   UNK A   3       6.518   4.092  23.353  0.00  0.00    -0.296 N 
ATOM     27  H   UNK A   3       5.886   3.550  22.768  0.00  0.00    +0.150 HD
ENDROOT
BRANCH   1  28
ATOM     28  C   UNK A   3       8.951   3.810  24.371  0.00  0.00    +0.170 C 
ATOM     29  N   UNK A   3       8.976   5.151  24.980  0.00  0.00    -0.233 N 
ATOM     30  H   UNK A   3       9.387   5.076  25.908  0.00  0.00    +0.245 HD
ATOM     31  C   UNK A   3       9.641   6.120  24.307  0.00  0.00    +0.364 C 
ATOM     32  N   UNK A   3       9.073   7.106  23.722  0.00  0.00    -0.133 NA
ATOM     33  H   UNK A   3       8.072   7.017  23.960  0.00  0.00    +0.306 HD
ATOM     34  N   UNK A   3      10.943   5.811  24.125  0.00  0.00    -0.213 N 
ATOM     35  H   UNK A   3      11.430   6.585  23.687  0.00  0.00    +0.247 HD
ATOM     36  C   UNK A   3      11.119   4.623  23.335  0.00  0.00    +0.269 C 
ATOM     37  C   UNK A   3      10.435   3.461  24.054  0.00  0.00    +0.109 C 
BRANCH  36  38
ATOM     38  O   UNK A   3      12.498   4.377  23.181  0.00  0.00    -0.362 OA
ATOM     39  H   UNK A   3      12.910   5.230  22.959  0.00  0.00    +0.213 HD
ENDBRANCH  36  38
ENDBRANCH   1  28
BRANCH  23  40
ATOM     40  N   UNK A   3       2.413   5.723  23.152  0.00  0.00    -0.274 N 
ATOM     41  H   UNK A   3       1.927   5.664  24.040  0.00  0.00    +0.156 HD
ATOM     42  C   UNK A   3       1.706   6.123  22.051  0.00  0.00    +0.301 C 
ATOM     43  O   UNK A   3       2.124   6.145  20.901  0.00  0.00    -0.253 OA
ATOM     44  N   UNK A   3       0.443   6.530  22.344  0.00  0.00    -0.313 N 
ATOM     45  H   UNK A   3      -0.035   6.945  21.552  0.00  0.00    +0.146 HD
ATOM     46  H   UNK A   3       0.290   6.999  23.224  0.00  0.00    +0.146 HD
ENDBRANCH  23  40
BRANCH   7  47
ATOM     47  N   UNK A   3       8.369  -2.236  24.431  0.00  0.00    -0.303 N 
ATOM     48  H   UNK A   1       8.690  -2.582  23.530  0.00  0.00    +0.149 HD
ATOM     49  C   UNK A   0       8.665  -2.932  25.585  0.00  0.00    +0.215 C 
ATOM     50  O   UNK A   0       8.346  -2.506  26.694  0.00  0.00    -0.276 OA
BRANCH  49  51
ATOM     51  C   UNK A   0       9.418  -4.239  25.353  0.00  0.00    +0.114 C 
BRANCH  51  52
ATOM     52  C   UNK A   0       8.599  -5.509  25.659  0.00  0.00    +0.059 C 
BRANCH  52  53
ATOM     53  N   UNK A   0       8.379  -5.641  27.109  0.00  0.00    -0.327 NA
ATOM     54  H   UNK A   0       7.977  -6.559  27.308  0.00  0.00    +0.118 HD
ATOM     55  H   UNK A   0       9.293  -5.647  27.572  0.00  0.00    +0.118 HD
ENDBRANCH  52  53
BRANCH  52  56
ATOM     56  C   UNK A   0       7.205  -5.508  24.986  0.00  0.00    +0.020 C 
BRANCH  56  57
ATOM     57  C   UNK A   0       6.050  -5.292  25.968  0.00  0.00    +0.016 C 
BRANCH  57  58
ATOM     58  C   UNK A   0       5.019  -6.420  25.897  0.00  0.00    +0.078 C 
BRANCH  58  59
ATOM     59  N   UNK A   0       5.017  -7.161  27.154  0.00  0.00    -0.330 NA
ATOM     60  H   UNK A   0       4.059  -7.396  27.410  0.00  0.00    +0.118 HD
ATOM     61  H   UNK A   0       5.502  -8.050  27.033  0.00  0.00    +0.118 HD
ENDBRANCH  58  59
ENDBRANCH  57  58
ENDBRANCH  56  57
ENDBRANCH  52  56
ENDBRANCH  51  52
ENDBRANCH  49  51
ENDBRANCH   7  47
BRANCH  12  62
ATOM     62  CB  SER A   2       4.082  -2.143  27.235  0.00  0.00    +0.187 C 
BRANCH  62  63
ATOM     63  OG  SER A   2       3.114  -2.045  28.281  0.00  0.00    -0.393 OA
ATOM     64  H   SER A   2       2.230  -2.249  27.913  0.00  0.00    +0.209 HD
ENDBRANCH  62  63
ENDBRANCH  12  62
BRANCH  17  65
ATOM     65  C   UNK A   3       5.187   2.441  26.006  0.00  0.00    +0.187 C 
BRANCH  65  66
ATOM     66  O   UNK A   3       5.027   1.943  24.667  0.00  0.00    -0.393 OA
ATOM     67  H   UNK A   3       5.103   2.670  24.019  0.00  0.00    +0.209 HD
ENDBRANCH  65  66
ENDBRANCH  17  65
TORSDOF 15
ENDMDL
MODEL 8
REMARK VINA RESULT:      -5.6      3.252     10.105
REMARK  Name = 
REMARK  15 active torsions:
REMARK  status: ('A' for Active; 'I' for Inactive)
REMARK    1  A    between atoms: C_2  and  C_11
REMARK    2  A    between atoms: C_4  and  O_6
REMARK    3  A    between atoms: CA_20  and  C_22
REMARK    4  A    between atoms: C_22  and  O_23
REMARK    5  A    between atoms: CA_27  and  CB_29
REMARK    6  A    between atoms: CB_29  and  O_30
REMARK    7  A    between atoms: CA_34  and  N_40
REMARK    8  A    between atoms: C_41  and  C_43
REMARK    9  A    between atoms: C_43  and  C_44
REMARK   10  A    between atoms: C_44  and  N_46
REMARK   11  A    between atoms: C_44  and  C_47
REMARK   12  A    between atoms: C_47  and  C_48
REMARK   13  A    between atoms: C_48  and  C_49
REMARK   14  A    between atoms: C_49  and  N_50
REMARK   15  A    between atoms: C_51  and  N_52
REMARK                            x       y       z     vdW  Elec       q    Type
REMARK                         _______ _______ _______ _____ _____    ______ ____
ROOT
ATOM      1  C   UNK A   3       5.660  -4.676  25.151  0.00  0.00    +0.194 C 
ATOM      2  C   UNK A   3       6.655  -3.739  25.926  0.00  0.00    +0.237 C 
ATOM      3  O   UNK A   3       7.396  -4.197  26.799  0.00  0.00    -0.274 OA
ATOM      4  N   UNK A   3       6.486  -2.377  25.765  0.00  0.00    -0.311 N 
ATOM      5  H   UNK A   3       6.245  -2.026  24.851  0.00  0.00    +0.149 HD
ATOM      6  C   UNK A   3       7.111  -1.363  26.621  0.00  0.00    +0.136 C 
ATOM      7  C   UNK A   3       6.305  -0.035  26.560  0.00  0.00    +0.176 C 
ATOM      8  C   UNK A   1       5.475   0.194  27.846  0.00  0.00    +0.236 C 
ATOM      9  O   UNK A   1       6.005   0.456  28.927  0.00  0.00    -0.274 OA
ATOM     10  N   SER A   2       4.100   0.223  27.698  0.00  0.00    -0.301 N 
ATOM     11  H   SER A   2       3.701   0.244  26.774  0.00  0.00    +0.150 HD
ATOM     12  CA  SER A   2       3.153   0.397  28.849  0.00  0.00    +0.184 C 
ATOM     13  C   SER A   2       1.776  -0.227  28.467  0.00  0.00    +0.236 C 
ATOM     14  O   SER A   2       1.113   0.213  27.524  0.00  0.00    -0.274 OA
ATOM     15  N   UNK A   3       1.512  -1.502  28.988  0.00  0.00    -0.300 N 
ATOM     16  H   UNK A   3       1.950  -1.759  29.864  0.00  0.00    +0.150 HD
ATOM     17  C   UNK A   3       1.381  -2.591  27.991  0.00  0.00    +0.185 C 
ATOM     18  C   UNK A   3       1.358  -4.053  28.551  0.00  0.00    +0.240 C 
ATOM     19  O   UNK A   3       1.337  -4.298  29.754  0.00  0.00    -0.273 OA
ATOM     20  N   UNK A   3       1.496  -5.039  27.560  0.00  0.00    -0.279 N 
ATOM     21  H   UNK A   3       1.220  -4.726  26.629  0.00  0.00    +0.155 HD
ATOM     22  C   UNK A   3       2.700  -5.771  27.469  0.00  0.00    +0.110 C 
ATOM     23  C   UNK A   3       3.114  -6.697  28.335  0.00  0.00    +0.104 C 
ATOM     24  C   UNK A   3       3.443  -5.635  26.164  0.00  0.00    +0.260 C 
ATOM     25  O   UNK A   3       2.819  -5.865  25.138  0.00  0.00    -0.269 OA
ATOM     26  N   UNK A   3       4.696  -5.073  26.254  0.00  0.00    -0.296 N 
ATOM     27  H   UNK A   3       5.096  -4.983  27.185  0.00  0.00    +0.150 HD
ENDROOT
BRANCH   1  28
ATOM     28  C   UNK A   3       5.083  -4.006  23.857  0.00  0.00    +0.170 C 
ATOM     29  N   UNK A   3       4.739  -4.995  22.821  0.00  0.00    -0.233 N 
ATOM     30  H   UNK A   3       4.127  -4.549  22.141  0.00  0.00    +0.245 HD
ATOM     31  C   UNK A   3       5.768  -5.563  22.147  0.00  0.00    +0.364 C 
ATOM     32  N   UNK A   3       6.122  -6.785  22.277  0.00  0.00    -0.133 NA
ATOM     33  H   UNK A   3       5.419  -7.201  22.908  0.00  0.00    +0.306 HD
ATOM     34  N   UNK A   3       6.518  -4.646  21.499  0.00  0.00    -0.213 N 
ATOM     35  H   UNK A   3       7.232  -5.105  20.944  0.00  0.00    +0.247 HD
ATOM     36  C   UNK A   3       7.136  -3.709  22.397  0.00  0.00    +0.269 C 
ATOM     37  C   UNK A   3       6.034  -2.983  23.169  0.00  0.00    +0.109 C 
BRANCH  36  38
ATOM     38  O   UNK A   3       7.909  -2.800  21.648  0.00  0.00    -0.362 OA
ATOM     39  H   UNK A   3       7.808  -3.051  20.715  0.00  0.00    +0.213 HD
ENDBRANCH  36  38
ENDBRANCH   1  28
BRANCH  23  40
ATOM     40  N   UNK A   3       2.369  -7.110  29.415  0.00  0.00    -0.274 N 
ATOM     41  H   UNK A   3       2.679  -6.845  30.345  0.00  0.00    +0.156 HD
ATOM     42  C   UNK A   3       1.214  -7.832  29.298  0.00  0.00    +0.301 C 
ATOM     43  O   UNK A   3       0.769  -8.309  28.262  0.00  0.00    -0.253 OA
ATOM     44  N   UNK A   3       0.551  -7.978  30.475  0.00  0.00    -0.313 N 
ATOM     45  H   UNK A   3      -0.364  -8.401  30.367  0.00  0.00    +0.146 HD
ATOM     46  H   UNK A   3       0.591  -7.218  31.137  0.00  0.00    +0.146 HD
ENDBRANCH  23  40
BRANCH   7  47
ATOM     47  N   UNK A   3       7.171   1.132  26.336  0.00  0.00    -0.303 N 
ATOM     48  H   UNK A   1       7.912   1.320  27.008  0.00  0.00    +0.149 HD
ATOM     49  C   UNK A   0       7.022   1.935  25.225  0.00  0.00    +0.215 C 
ATOM     50  O   UNK A   0       6.178   1.695  24.364  0.00  0.00    -0.276 OA
BRANCH  49  51
ATOM     51  C   UNK A   0       7.994   3.111  25.168  0.00  0.00    +0.114 C 
BRANCH  51  52
ATOM     52  C   UNK A   0       9.296   2.823  24.393  0.00  0.00    +0.059 C 
BRANCH  52  53
ATOM     53  N   UNK A   0       9.877   1.541  24.824  0.00  0.00    -0.327 NA
ATOM     54  H   UNK A   0      10.709   1.719  25.389  0.00  0.00    +0.118 HD
ATOM     55  H   UNK A   0       9.216   1.088  25.464  0.00  0.00    +0.118 HD
ENDBRANCH  52  53
BRANCH  52  56
ATOM     56  C   UNK A   0       9.084   2.736  22.863  0.00  0.00    +0.020 C 
BRANCH  56  57
ATOM     57  C   UNK A   0      10.024   1.745  22.169  0.00  0.00    +0.016 C 
BRANCH  57  58
ATOM     58  C   UNK A   0       9.261   0.588  21.522  0.00  0.00    +0.078 C 
BRANCH  58  59
ATOM     59  N   UNK A   0       8.185   0.157  22.407  0.00  0.00    -0.330 NA
ATOM     60  H   UNK A   0       7.751   0.972  22.838  0.00  0.00    +0.118 HD
ATOM     61  H   UNK A   0       7.451  -0.298  21.864  0.00  0.00    +0.118 HD
ENDBRANCH  58  59
ENDBRANCH  57  58
ENDBRANCH  56  57
ENDBRANCH  52  56
ENDBRANCH  51  52
ENDBRANCH  49  51
ENDBRANCH   7  47
BRANCH  12  62
ATOM     62  CB  SER A   2       2.966   1.886  29.164  0.00  0.00    +0.187 C 
BRANCH  62  63
ATOM     63  OG  SER A   2       2.697   2.672  28.002  0.00  0.00    -0.393 OA
ATOM     64  H   SER A   2       3.339   2.431  27.302  0.00  0.00    +0.209 HD
ENDBRANCH  62  63
ENDBRANCH  12  62
BRANCH  17  65
ATOM     65  C   UNK A   3       2.629  -2.512  27.091  0.00  0.00    +0.187 C 
BRANCH  65  66
ATOM     66  O   UNK A   3       2.284  -2.702  25.709  0.00  0.00    -0.393 OA
ATOM     67  H   UNK A   3       1.842  -3.564  25.581  0.00  0.00    +0.209 HD
ENDBRANCH  65  66
ENDBRANCH  17  65
TORSDOF 15
ENDMDL
MODEL 9
REMARK VINA RESULT:      -5.6      2.948     10.085
REMARK  Name = 
REMARK  15 active torsions:
REMARK  status: ('A' for Active; 'I' for Inactive)
REMARK    1  A    between atoms: C_2  and  C_11
REMARK    2  A    between atoms: C_4  and  O_6
REMARK    3  A    between atoms: CA_20  and  C_22
REMARK    4  A    between atoms: C_22  and  O_23
REMARK    5  A    between atoms: CA_27  and  CB_29
REMARK    6  A    between atoms: CB_29  and  O_30
REMARK    7  A    between atoms: CA_34  and  N_40
REMARK    8  A    between atoms: C_41  and  C_43
REMARK    9  A    between atoms: C_43  and  C_44
REMARK   10  A    between atoms: C_44  and  N_46
REMARK   11  A    between atoms: C_44  and  C_47
REMARK   12  A    between atoms: C_47  and  C_48
REMARK   13  A    between atoms: C_48  and  C_49
REMARK   14  A    between atoms: C_49  and  N_50
REMARK   15  A    between atoms: C_51  and  N_52
REMARK                            x       y       z     vdW  Elec       q    Type
REMARK                         _______ _______ _______ _____ _____    ______ ____
ROOT
ATOM      1  C   UNK A   3       6.527  -3.375  25.178  0.00  0.00    +0.194 C 
ATOM      2  C   UNK A   3       7.478  -2.390  25.949  0.00  0.00    +0.237 C 
ATOM      3  O   UNK A   3       8.212  -2.804  26.849  0.00  0.00    -0.274 OA
ATOM      4  N   UNK A   3       7.275  -1.038  25.747  0.00  0.00    -0.311 N 
ATOM      5  H   UNK A   3       7.044  -0.718  24.820  0.00  0.00    +0.149 HD
ATOM      6  C   UNK A   3       7.853   0.016  26.590  0.00  0.00    +0.136 C 
ATOM      7  C   UNK A   3       7.012   1.318  26.476  0.00  0.00    +0.176 C 
ATOM      8  C   UNK A   1       6.148   1.557  27.737  0.00  0.00    +0.236 C 
ATOM      9  O   UNK A   1       6.647   1.862  28.822  0.00  0.00    -0.274 OA
ATOM     10  N   SER A   2       4.777   1.543  27.560  0.00  0.00    -0.301 N 
ATOM     11  H   SER A   2       4.397   1.529  26.628  0.00  0.00    +0.150 HD
ATOM     12  CA  SER A   2       3.800   1.721  28.686  0.00  0.00    +0.184 C 
ATOM     13  C   SER A   2       2.449   1.048  28.291  0.00  0.00    +0.236 C 
ATOM     14  O   SER A   2       1.795   1.445  27.323  0.00  0.00    -0.274 OA
ATOM     15  N   UNK A   3       2.209  -0.220  28.840  0.00  0.00    -0.300 N 
ATOM     16  H   UNK A   3       2.635  -0.441  29.732  0.00  0.00    +0.150 HD
ATOM     17  C   UNK A   3       2.130  -1.337  27.870  0.00  0.00    +0.185 C 
ATOM     18  C   UNK A   3       2.136  -2.784  28.468  0.00  0.00    +0.240 C 
ATOM     19  O   UNK A   3       2.095  -2.998  29.677  0.00  0.00    -0.273 OA
ATOM     20  N   UNK A   3       2.322  -3.792  27.507  0.00  0.00    -0.279 N 
ATOM     21  H   UNK A   3       2.058  -3.511  26.562  0.00  0.00    +0.155 HD
ATOM     22  C   UNK A   3       3.548  -4.492  27.461  0.00  0.00    +0.110 C 
ATOM     23  C   UNK A   3       3.968  -5.382  28.361  0.00  0.00    +0.104 C 
ATOM     24  C   UNK A   3       4.315  -4.369  26.169  0.00  0.00    +0.260 C 
ATOM     25  O   UNK A   3       3.721  -4.643  25.137  0.00  0.00    -0.269 OA
ATOM     26  N   UNK A   3       5.549  -3.770  26.270  0.00  0.00    -0.296 N 
ATOM     27  H   UNK A   3       5.927  -3.644  27.207  0.00  0.00    +0.150 HD
ENDROOT
BRANCH   1  28
ATOM     28  C   UNK A   3       5.960  -2.755  23.855  0.00  0.00    +0.170 C 
ATOM     29  N   UNK A   3       5.543  -3.786  22.888  0.00  0.00    -0.233 N 
ATOM     30  H   UNK A   3       4.941  -3.350  22.192  0.00  0.00    +0.245 HD
ATOM     31  C   UNK A   3       6.526  -4.448  22.233  0.00  0.00    +0.364 C 
ATOM     32  N   UNK A   3       6.818  -5.678  22.434  0.00  0.00    -0.133 NA
ATOM     33  H   UNK A   3       6.107  -6.016  23.101  0.00  0.00    +0.306 HD
ATOM     34  N   UNK A   3       7.311  -3.615  21.517  0.00  0.00    -0.213 N 
ATOM     35  H   UNK A   3       7.988  -4.146  20.980  0.00  0.00    +0.247 HD
ATOM     36  C   UNK A   3       7.995  -2.660  22.344  0.00  0.00    +0.269 C 
ATOM     37  C   UNK A   3       6.949  -1.830  23.088  0.00  0.00    +0.109 C 
BRANCH  36  38
ATOM     38  O   UNK A   3       8.800  -1.841  21.527  0.00  0.00    -0.362 OA
ATOM     39  H   UNK A   3       9.269  -1.231  22.121  0.00  0.00    +0.213 HD
ENDBRANCH  36  38
ENDBRANCH   1  28
BRANCH  23  40
ATOM     40  N   UNK A   3       3.211  -5.788  29.435  0.00  0.00    -0.274 N 
ATOM     41  H   UNK A   3       3.359  -5.331  30.329  0.00  0.00    +0.156 HD
ATOM     42  C   UNK A   3       2.246  -6.753  29.352  0.00  0.00    +0.301 C 
ATOM     43  O   UNK A   3       2.021  -7.459  28.377  0.00  0.00    -0.253 OA
ATOM     44  N   UNK A   3       1.505  -6.869  30.485  0.00  0.00    -0.313 N 
ATOM     45  H   UNK A   3       0.712  -7.492  30.379  0.00  0.00    +0.146 HD
ATOM     46  H   UNK A   3       1.318  -6.031  31.015  0.00  0.00    +0.146 HD
ENDBRANCH  23  40
BRANCH   7  47
ATOM     47  N   UNK A   3       7.851   2.502  26.239  0.00  0.00    -0.303 N 
ATOM     48  H   UNK A   1       8.632   2.675  26.867  0.00  0.00    +0.149 HD
ATOM     49  C   UNK A   0       7.621   3.344  25.171  0.00  0.00    +0.215 C 
ATOM     50  O   UNK A   0       6.724   3.125  24.359  0.00  0.00    -0.276 OA
BRANCH  49  51
ATOM     51  C   UNK A   0       8.575   4.533  25.094  0.00  0.00    +0.114 C 
BRANCH  51  52
ATOM     52  C   UNK A   0       9.732   4.356  24.088  0.00  0.00    +0.059 C 
BRANCH  52  53
ATOM     53  N   UNK A   0       9.240   3.743  22.844  0.00  0.00    -0.327 NA
ATOM     54  H   UNK A   0       8.357   4.182  22.576  0.00  0.00    +0.118 HD
ATOM     55  H   UNK A   0       9.891   3.981  22.089  0.00  0.00    +0.118 HD
ENDBRANCH  52  53
BRANCH  52  56
ATOM     56  C   UNK A   0      10.407   5.694  23.701  0.00  0.00    +0.020 C 
BRANCH  56  57
ATOM     57  C   UNK A   0      11.911   5.728  23.990  0.00  0.00    +0.016 C 
BRANCH  57  58
ATOM     58  C   UNK A   0      12.742   5.474  22.731  0.00  0.00    +0.078 C 
BRANCH  58  59
ATOM     59  N   UNK A   0      14.112   5.142  23.109  0.00  0.00    -0.330 NA
ATOM     60  H   UNK A   0      14.430   5.783  23.834  0.00  0.00    +0.118 HD
ATOM     61  H   UNK A   0      14.140   4.211  23.525  0.00  0.00    +0.118 HD
ENDBRANCH  58  59
ENDBRANCH  57  58
ENDBRANCH  56  57
ENDBRANCH  52  56
ENDBRANCH  51  52
ENDBRANCH  49  51
ENDBRANCH   7  47
BRANCH  12  62
ATOM     62  CB  SER A   2       3.565   3.211  28.956  0.00  0.00    +0.187 C 
BRANCH  62  63
ATOM     63  OG  SER A   2       3.521   3.995  27.762  0.00  0.00    -0.393 OA
ATOM     64  H   SER A   2       3.779   3.430  27.005  0.00  0.00    +0.209 HD
ENDBRANCH  62  63
ENDBRANCH  12  62
BRANCH  17  65
ATOM     65  C   UNK A   3       3.395  -1.247  26.995  0.00  0.00    +0.187 C 
BRANCH  65  66
ATOM     66  O   UNK A   3       4.582  -1.464  27.775  0.00  0.00    -0.393 OA
ATOM     67  H   UNK A   3       4.371  -1.958  28.591  0.00  0.00    +0.209 HD
ENDBRANCH  65  66
ENDBRANCH  17  65
TORSDOF 15
ENDMDL
