MODEL 1
REMARK VINA RESULT:      -4.4      0.000      0.000
REMARK  Name = 
REMARK  6 active torsions:
REMARK  status: ('A' for Active; 'I' for Inactive)
REMARK    1  A    between atoms: C_1  and  C_2
REMARK    2  A    between atoms: C_2  and  C_3
REMARK    3  A    between atoms: C_2  and  C_4
REMARK    4  A    between atoms: C_4  and  N_6
REMARK    5  A    between atoms: C_4  and  C_7
REMARK    6  A    between atoms: N_9  and  O_10
REMARK                            x       y       z     vdW  Elec       q    Type
REMARK                         _______ _______ _______ _____ _____    ______ ____
ROOT
ATOM      1  C   UNL     1       8.617  -4.970  24.537  0.00  0.00    +0.142 C 
ENDROOT
BRANCH   1   2
ATOM      2  C   UNL     1       7.675  -5.327  25.705  0.00  0.00    +0.252 C 
ATOM      3  N   UNL     1       8.327  -5.671  26.868  0.00  0.00    -0.196 N 
ATOM      4  H   UNL     1       9.267  -6.058  26.797  0.00  0.00    +0.182 HD
ATOM      5  O   UNL     1       6.448  -5.287  25.624  0.00  0.00    -0.272 OA
BRANCH   3   6
ATOM      6  O   UNL     1       7.500  -6.157  27.910  0.00  0.00    -0.295 OA
ATOM      7  H   UNL     1       7.396  -5.366  28.483  0.00  0.00    +0.241 HD
ENDBRANCH   3   6
ENDBRANCH   1   2
BRANCH   1   9
ATOM      8  C   UNL     1       9.797  -2.768  23.987  0.00  0.00    +0.009 C 
ATOM      9  C   UNL     1       8.449  -3.490  24.112  0.00  0.00    +0.009 C 
ATOM     10  C   UNL     1       7.711  -3.377  22.772  0.00  0.00    +0.009 C 
ENDBRANCH   1   9
BRANCH   1  11
ATOM     11  N   UNL     1      10.009  -5.261  24.965  0.00  0.00    -0.320 NA
ATOM     12  H   UNL     1      10.529  -4.382  24.989  0.00  0.00    +0.119 HD
ATOM     13  H   UNL     1       9.996  -5.580  25.936  0.00  0.00    +0.119 HD
ENDBRANCH   1  11
TORSDOF 4
ENDMDL
MODEL 2
REMARK VINA RESULT:      -4.1      6.013      7.100
REMARK  Name = 
REMARK  6 active torsions:
REMARK  status: ('A' for Active; 'I' for Inactive)
REMARK    1  A    between atoms: C_1  and  C_2
REMARK    2  A    between atoms: C_2  and  C_3
REMARK    3  A    between atoms: C_2  and  C_4
REMARK    4  A    between atoms: C_4  and  N_6
REMARK    5  A    between atoms: C_4  and  C_7
REMARK    6  A    between atoms: N_9  and  O_10
REMARK                            x       y       z     vdW  Elec       q    Type
REMARK                         _______ _______ _______ _____ _____    ______ ____
ROOT
ATOM      1  C   UNL     1       9.330   1.576  22.779  0.00  0.00    +0.142 C 
ENDROOT
BRANCH   1   2
ATOM      2  C   UNL     1       9.939   0.159  22.742  0.00  0.00    +0.252 C 
ATOM      3  N   UNL     1       9.854  -0.459  21.515  0.00  0.00    -0.196 N 
ATOM      4  H   UNL     1       9.102  -0.180  20.887  0.00  0.00    +0.182 HD
ATOM      5  O   UNL     1      10.479  -0.373  23.712  0.00  0.00    -0.272 OA
BRANCH   3   6
ATOM      6  O   UNL     1      10.258  -1.816  21.485  0.00  0.00    -0.295 OA
ATOM      7  H   UNL     1      10.703  -1.884  20.613  0.00  0.00    +0.241 HD
ENDBRANCH   3   6
ENDBRANCH   1   2
BRANCH   1   9
ATOM      8  C   UNL     1      10.982   3.411  23.446  0.00  0.00    +0.009 C 
ATOM      9  C   UNL     1       9.925   2.413  23.937  0.00  0.00    +0.009 C 
ATOM     10  C   UNL     1       8.831   3.191  24.681  0.00  0.00    +0.009 C 
ENDBRANCH   1   9
BRANCH   1  11
ATOM     11  N   UNL     1       9.577   2.214  21.460  0.00  0.00    -0.320 NA
ATOM     12  H   UNL     1      10.508   2.631  21.474  0.00  0.00    +0.119 HD
ATOM     13  H   UNL     1       9.629   1.486  20.746  0.00  0.00    +0.119 HD
ENDBRANCH   1  11
TORSDOF 4
ENDMDL
MODEL 3
REMARK VINA RESULT:      -4.1      5.242      6.371
REMARK  Name = 
REMARK  6 active torsions:
REMARK  status: ('A' for Active; 'I' for Inactive)
REMARK    1  A    between atoms: C_1  and  C_2
REMARK    2  A    between atoms: C_2  and  C_3
REMARK    3  A    between atoms: C_2  and  C_4
REMARK    4  A    between atoms: C_4  and  N_6
REMARK    5  A    between atoms: C_4  and  C_7
REMARK    6  A    between atoms: N_9  and  O_10
REMARK                            x       y       z     vdW  Elec       q    Type
REMARK                         _______ _______ _______ _____ _____    ______ ____
ROOT
ATOM      1  C   UNL     1      10.265  -1.079  22.882  0.00  0.00    +0.142 C 
ENDROOT
BRANCH   1   2
ATOM      2  C   UNL     1      10.235   0.463  22.852  0.00  0.00    +0.252 C 
ATOM      3  N   UNL     1       9.849   0.995  21.643  0.00  0.00    -0.196 N 
ATOM      4  H   UNL     1      10.010   0.445  20.801  0.00  0.00    +0.182 HD
ATOM      5  O   UNL     1      10.505   1.165  23.826  0.00  0.00    -0.272 OA
BRANCH   3   6
ATOM      6  O   UNL     1       9.963   2.403  21.532  0.00  0.00    -0.295 OA
ATOM      7  H   UNL     1      10.827   2.579  21.964  0.00  0.00    +0.241 HD
ENDBRANCH   3   6
ENDBRANCH   1   2
BRANCH   1   9
ATOM      8  C   UNL     1       7.815  -1.503  23.481  0.00  0.00    +0.009 C 
ATOM      9  C   UNL     1       9.275  -1.641  23.931  0.00  0.00    +0.009 C 
ATOM     10  C   UNL     1       9.556  -3.121  24.224  0.00  0.00    +0.009 C 
ENDBRANCH   1   9
BRANCH   1  11
ATOM     11  N   UNL     1       9.949  -1.569  21.515  0.00  0.00    -0.320 NA
ATOM     12  H   UNL     1       9.513  -0.809  20.993  0.00  0.00    +0.119 HD
ATOM     13  H   UNL     1      10.824  -1.754  21.021  0.00  0.00    +0.119 HD
ENDBRANCH   1  11
TORSDOF 4
ENDMDL
MODEL 4
REMARK VINA RESULT:      -4.0      2.508      3.672
REMARK  Name = 
REMARK  6 active torsions:
REMARK  status: ('A' for Active; 'I' for Inactive)
REMARK    1  A    between atoms: C_1  and  C_2
REMARK    2  A    between atoms: C_2  and  C_3
REMARK    3  A    between atoms: C_2  and  C_4
REMARK    4  A    between atoms: C_4  and  N_6
REMARK    5  A    between atoms: C_4  and  C_7
REMARK    6  A    between atoms: N_9  and  O_10
REMARK                            x       y       z     vdW  Elec       q    Type
REMARK                         _______ _______ _______ _____ _____    ______ ____
ROOT
ATOM      1  C   UNL     1       7.099  -5.152  26.892  0.00  0.00    +0.142 C 
ENDROOT
BRANCH   1   2
ATOM      2  C   UNL     1       8.421  -4.691  26.245  0.00  0.00    +0.252 C 
ATOM      3  N   UNL     1       9.163  -5.710  25.693  0.00  0.00    -0.196 N 
ATOM      4  H   UNL     1       9.050  -6.649  26.073  0.00  0.00    +0.182 HD
ATOM      5  O   UNL     1       8.779  -3.515  26.197  0.00  0.00    -0.272 OA
BRANCH   3   6
ATOM      6  O   UNL     1      10.453  -5.347  25.232  0.00  0.00    -0.295 OA
ATOM      7  H   UNL     1      10.713  -4.645  25.869  0.00  0.00    +0.241 HD
ENDBRANCH   3   6
ENDBRANCH   1   2
BRANCH   1   9
ATOM      8  C   UNL     1       5.019  -6.577  26.460  0.00  0.00    +0.009 C 
ATOM      9  C   UNL     1       6.119  -5.711  25.832  0.00  0.00    +0.009 C 
ATOM     10  C   UNL     1       5.453  -4.578  25.039  0.00  0.00    +0.009 C 
ENDBRANCH   1   9
BRANCH   1  11
ATOM     11  N   UNL     1       7.425  -6.170  27.924  0.00  0.00    -0.320 NA
ATOM     12  H   UNL     1       6.723  -6.909  27.881  0.00  0.00    +0.119 HD
ATOM     13  H   UNL     1       8.301  -6.630  27.669  0.00  0.00    +0.119 HD
ENDBRANCH   1  11
TORSDOF 4
ENDMDL
MODEL 5
REMARK VINA RESULT:      -3.7      7.406      8.477
REMARK  Name = 
REMARK  6 active torsions:
REMARK  status: ('A' for Active; 'I' for Inactive)
REMARK    1  A    between atoms: C_1  and  C_2
REMARK    2  A    between atoms: C_2  and  C_3
REMARK    3  A    between atoms: C_2  and  C_4
REMARK    4  A    between atoms: C_4  and  N_6
REMARK    5  A    between atoms: C_4  and  C_7
REMARK    6  A    between atoms: N_9  and  O_10
REMARK                            x       y       z     vdW  Elec       q    Type
REMARK                         _______ _______ _______ _____ _____    ______ ____
ROOT
ATOM      1  C   UNL     1      10.353   1.969  22.803  0.00  0.00    +0.142 C 
ENDROOT
BRANCH   1   2
ATOM      2  C   UNL     1      10.381   3.377  23.432  0.00  0.00    +0.252 C 
ATOM      3  N   UNL     1      11.457   4.144  23.047  0.00  0.00    -0.196 N 
ATOM      4  H   UNL     1      12.310   3.668  22.759  0.00  0.00    +0.182 HD
ATOM      5  O   UNL     1       9.509   3.798  24.192  0.00  0.00    -0.272 OA
BRANCH   3   6
ATOM      6  O   UNL     1      11.600   5.380  23.726  0.00  0.00    -0.295 OA
ATOM      7  H   UNL     1      10.673   5.701  23.775  0.00  0.00    +0.241 HD
ENDBRANCH   3   6
ENDBRANCH   1   2
BRANCH   1   9
ATOM      8  C   UNL     1       9.142  -0.276  22.999  0.00  0.00    +0.009 C 
ATOM      9  C   UNL     1       9.693   0.941  23.754  0.00  0.00    +0.009 C 
ATOM     10  C   UNL     1      10.687   0.447  24.814  0.00  0.00    +0.009 C 
ENDBRANCH   1   9
BRANCH   1  11
ATOM     11  N   UNL     1       9.629   2.060  21.509  0.00  0.00    -0.320 NA
ATOM     12  H   UNL     1      10.187   2.622  20.866  0.00  0.00    +0.119 HD
ATOM     13  H   UNL     1       9.599   1.131  21.083  0.00  0.00    +0.119 HD
ENDBRANCH   1  11
TORSDOF 4
ENDMDL
MODEL 6
REMARK VINA RESULT:      -3.7      3.645      4.371
REMARK  Name = 
REMARK  6 active torsions:
REMARK  status: ('A' for Active; 'I' for Inactive)
REMARK    1  A    between atoms: C_1  and  C_2
REMARK    2  A    between atoms: C_2  and  C_3
REMARK    3  A    between atoms: C_2  and  C_4
REMARK    4  A    between atoms: C_4  and  N_6
REMARK    5  A    between atoms: C_4  and  C_7
REMARK    6  A    between atoms: N_9  and  O_10
REMARK                            x       y       z     vdW  Elec       q    Type
REMARK                         _______ _______ _______ _____ _____    ______ ____
ROOT
ATOM      1  C   UNL     1       9.275  -1.133  22.641  0.00  0.00    +0.142 C 
ENDROOT
BRANCH   1   2
ATOM      2  C   UNL     1       9.374  -2.128  23.816  0.00  0.00    +0.252 C 
ATOM      3  N   UNL     1       8.416  -1.948  24.787  0.00  0.00    -0.196 N 
ATOM      4  H   UNL     1       8.016  -1.018  24.903  0.00  0.00    +0.182 HD
ATOM      5  O   UNL     1      10.215  -3.025  23.876  0.00  0.00    -0.272 OA
BRANCH   3   6
ATOM      6  O   UNL     1       8.573  -2.738  25.953  0.00  0.00    -0.295 OA
ATOM      7  H   UNL     1       8.399  -2.091  26.671  0.00  0.00    +0.241 HD
ENDBRANCH   3   6
ENDBRANCH   1   2
BRANCH   1   9
ATOM      8  C   UNL     1      10.775   0.422  24.011  0.00  0.00    +0.009 C 
ATOM      9  C   UNL     1       9.536   0.319  23.111  0.00  0.00    +0.009 C 
ATOM     10  C   UNL     1       9.723   1.265  21.917  0.00  0.00    +0.009 C 
ENDBRANCH   1   9
BRANCH   1  11
ATOM     11  N   UNL     1      10.249  -1.554  21.601  0.00  0.00    -0.320 NA
ATOM     12  H   UNL     1      10.310  -0.815  20.899  0.00  0.00    +0.119 HD
ATOM     13  H   UNL     1      11.181  -1.592  22.019  0.00  0.00    +0.119 HD
ENDBRANCH   1  11
TORSDOF 4
ENDMDL
MODEL 7
REMARK VINA RESULT:      -3.7      2.445      2.934
REMARK  Name = 
REMARK  6 active torsions:
REMARK  status: ('A' for Active; 'I' for Inactive)
REMARK    1  A    between atoms: C_1  and  C_2
REMARK    2  A    between atoms: C_2  and  C_3
REMARK    3  A    between atoms: C_2  and  C_4
REMARK    4  A    between atoms: C_4  and  N_6
REMARK    5  A    between atoms: C_4  and  C_7
REMARK    6  A    between atoms: N_9  and  O_10
REMARK                            x       y       z     vdW  Elec       q    Type
REMARK                         _______ _______ _______ _____ _____    ______ ____
ROOT
ATOM      1  C   UNL     1       7.572  -4.464  23.527  0.00  0.00    +0.142 C 
ENDROOT
BRANCH   1   2
ATOM      2  C   UNL     1       8.351  -5.084  24.706  0.00  0.00    +0.252 C 
ATOM      3  N   UNL     1       7.570  -5.391  25.797  0.00  0.00    -0.196 N 
ATOM      4  H   UNL     1       6.712  -4.861  25.939  0.00  0.00    +0.182 HD
ATOM      5  O   UNL     1       9.559  -5.314  24.674  0.00  0.00    -0.272 OA
BRANCH   3   6
ATOM      6  O   UNL     1       8.274  -5.813  26.951  0.00  0.00    -0.295 OA
ATOM      7  H   UNL     1       9.054  -5.217  26.953  0.00  0.00    +0.241 HD
ENDBRANCH   3   6
ENDBRANCH   1   2
BRANCH   1   9
ATOM      8  C   UNL     1       5.138  -4.969  22.923  0.00  0.00    +0.009 C 
ATOM      9  C   UNL     1       6.584  -5.482  22.908  0.00  0.00    +0.009 C 
ATOM     10  C   UNL     1       6.966  -5.817  21.460  0.00  0.00    +0.009 C 
ENDBRANCH   1   9
BRANCH   1  11
ATOM     11  N   UNL     1       6.869  -3.256  24.029  0.00  0.00    -0.320 NA
ATOM     12  H   UNL     1       6.257  -3.535  24.797  0.00  0.00    +0.119 HD
ATOM     13  H   UNL     1       7.553  -2.629  24.457  0.00  0.00    +0.119 HD
ENDBRANCH   1  11
TORSDOF 4
ENDMDL
MODEL 8
REMARK VINA RESULT:      -3.7      4.806      5.908
REMARK  Name = 
REMARK  6 active torsions:
REMARK  status: ('A' for Active; 'I' for Inactive)
REMARK    1  A    between atoms: C_1  and  C_2
REMARK    2  A    between atoms: C_2  and  C_3
REMARK    3  A    between atoms: C_2  and  C_4
REMARK    4  A    between atoms: C_4  and  N_6
REMARK    5  A    between atoms: C_4  and  C_7
REMARK    6  A    between atoms: N_9  and  O_10
REMARK                            x       y       z     vdW  Elec       q    Type
REMARK                         _______ _______ _______ _____ _____    ______ ____
ROOT
ATOM      1  C   UNL     1       9.252   0.453  22.602  0.00  0.00    +0.142 C 
ENDROOT
BRANCH   1   2
ATOM      2  C   UNL     1       9.275  -1.065  22.328  0.00  0.00    +0.252 C 
ATOM      3  N   UNL     1       8.043  -1.672  22.418  0.00  0.00    -0.196 N 
ATOM      4  H   UNL     1       7.338  -1.244  23.018  0.00  0.00    +0.182 HD
ATOM      5  O   UNL     1      10.294  -1.684  22.027  0.00  0.00    -0.272 OA
BRANCH   3   6
ATOM      6  O   UNL     1       8.051  -3.085  22.329  0.00  0.00    -0.295 OA
ATOM      7  H   UNL     1       7.570  -3.350  23.144  0.00  0.00    +0.241 HD
ENDBRANCH   3   6
ENDBRANCH   1   2
BRANCH   1   9
ATOM      8  C   UNL     1      10.562   2.405  23.611  0.00  0.00    +0.009 C 
ATOM      9  C   UNL     1      10.440   0.880  23.498  0.00  0.00    +0.009 C 
ATOM     10  C   UNL     1      10.308   0.297  24.912  0.00  0.00    +0.009 C 
ENDBRANCH   1   9
BRANCH   1  11
ATOM     11  N   UNL     1       9.275   1.156  21.294  0.00  0.00    -0.320 NA
ATOM     12  H   UNL     1       9.036   2.136  21.450  0.00  0.00    +0.119 HD
ATOM     13  H   UNL     1      10.236   1.175  20.947  0.00  0.00    +0.119 HD
ENDBRANCH   1  11
TORSDOF 4
ENDMDL
MODEL 9
REMARK VINA RESULT:      -3.7      2.120      2.661
REMARK  Name = 
REMARK  6 active torsions:
REMARK  status: ('A' for Active; 'I' for Inactive)
REMARK    1  A    between atoms: C_1  and  C_2
REMARK    2  A    between atoms: C_2  and  C_3
REMARK    3  A    between atoms: C_2  and  C_4
REMARK    4  A    between atoms: C_4  and  N_6
REMARK    5  A    between atoms: C_4  and  C_7
REMARK    6  A    between atoms: N_9  and  O_10
REMARK                            x       y       z     vdW  Elec       q    Type
REMARK                         _______ _______ _______ _____ _____    ______ ____
ROOT
ATOM      1  C   UNL     1       6.493  -4.890  24.157  0.00  0.00    +0.142 C 
ENDROOT
BRANCH   1   2
ATOM      2  C   UNL     1       7.551  -5.258  25.218  0.00  0.00    +0.252 C 
ATOM      3  N   UNL     1       7.022  -5.692  26.413  0.00  0.00    -0.196 N 
ATOM      4  H   UNL     1       6.090  -5.373  26.671  0.00  0.00    +0.182 HD
ATOM      5  O   UNL     1       8.763  -5.197  25.017  0.00  0.00    -0.272 OA
BRANCH   3   6
ATOM      6  O   UNL     1       7.957  -5.886  27.459  0.00  0.00    -0.295 OA
ATOM      7  H   UNL     1       7.389  -5.848  28.259  0.00  0.00    +0.241 HD
ENDBRANCH   3   6
ENDBRANCH   1   2
BRANCH   1   9
ATOM      8  C   UNL     1       7.106  -5.958  21.915  0.00  0.00    +0.009 C 
ATOM      9  C   UNL     1       7.141  -4.682  22.767  0.00  0.00    +0.009 C 
ATOM     10  C   UNL     1       6.441  -3.559  21.989  0.00  0.00    +0.009 C 
ENDBRANCH   1   9
BRANCH   1  11
ATOM     11  N   UNL     1       5.476  -5.972  24.130  0.00  0.00    -0.320 NA
ATOM     12  H   UNL     1       4.945  -5.937  25.001  0.00  0.00    +0.119 HD
ATOM     13  H   UNL     1       4.792  -5.763  23.400  0.00  0.00    +0.119 HD
ENDBRANCH   1  11
TORSDOF 4
ENDMDL
