MODEL 1
REMARK VINA RESULT:      -7.1      0.000      0.000
REMARK  Name = 
REMARK  5 active torsions:
REMARK  status: ('A' for Active; 'I' for Inactive)
REMARK    1  A    between atoms: C_1  and  N_2
REMARK    2  A    between atoms: C_5  and  C_6
REMARK    3  A    between atoms: C_7  and  C_9
REMARK    4  A    between atoms: N_14  and  C_15
REMARK    5  A    between atoms: C_18  and  O_19
REMARK                            x       y       z     vdW  Elec       q    Type
REMARK                         _______ _______ _______ _____ _____    ______ ____
ROOT
ATOM      1  C   UNL     1       7.302  -4.647  24.641  0.00  0.00    +0.084 A 
ATOM      2  N   UNL     1       6.990  -3.352  24.410  0.00  0.00    -0.214 NA
ATOM      3  C   UNL     1       7.994  -2.462  24.399  0.00  0.00    +0.220 A 
ATOM      4  N   UNL     1       7.644  -1.143  24.119  0.00  0.00    -0.284 N 
ATOM      5  H   UNL     1       6.643  -1.066  24.020  0.00  0.00    +0.155 HD
ATOM      6  N   UNL     1       9.269  -2.795  24.650  0.00  0.00    -0.223 NA
ATOM      7  C   UNL     1       9.544  -4.082  24.899  0.00  0.00    +0.116 A 
ATOM      8  C   UNL     1       8.591  -5.062  24.902  0.00  0.00    +0.049 A 
ENDROOT
BRANCH   1  14
ATOM      9  C   UNL     1       2.163  -8.193  25.117  0.00  0.00    +0.127 C 
ATOM     10  N   UNL     1       3.305  -7.693  25.841  0.00  0.00    -0.327 N 
ATOM     11  H   UNL     1       3.190  -7.542  26.835  0.00  0.00    +0.148 HD
ATOM     12  C   UNL     1       4.268  -7.012  25.187  0.00  0.00    +0.159 A 
ATOM     13  S   UNL     1       5.434  -6.127  26.075  0.00  0.00    -0.051 S 
ATOM     14  C   UNL     1       6.161  -5.572  24.614  0.00  0.00    +0.062 A 
ATOM     15  C   UNL     1       5.502  -6.165  23.543  0.00  0.00    +0.057 A 
ATOM     16  C   UNL     1       5.824  -6.019  22.097  0.00  0.00    +0.067 C 
ATOM     17  N   UNL     1       4.410  -6.955  23.885  0.00  0.00    -0.230 NA
ENDBRANCH   1  14
BRANCH   4  18
ATOM     18  C   UNL     1       8.402  -0.075  23.615  0.00  0.00    +0.034 A 
ATOM     19  C   UNL     1       8.911   0.884  24.506  0.00  0.00    +0.027 A 
ATOM     20  C   UNL     1       9.714   1.936  24.053  0.00  0.00    +0.047 A 
ATOM     21  C   UNL     1      10.028   2.031  22.705  0.00  0.00    +0.117 A 
ATOM     22  C   UNL     1       9.552   1.093  21.801  0.00  0.00    +0.047 A 
ATOM     23  C   UNL     1       8.750   0.045  22.262  0.00  0.00    +0.027 A 
BRANCH  21  24
ATOM     24  O   UNL     1      10.820   3.064  22.300  0.00  0.00    -0.507 OA
ATOM     25  H   UNL     1      11.276   2.797  21.483  0.00  0.00    +0.292 HD
ENDBRANCH  21  24
ENDBRANCH   4  18
TORSDOF 3
ENDMDL
MODEL 2
REMARK VINA RESULT:      -7.0      1.076      1.870
REMARK  Name = 
REMARK  5 active torsions:
REMARK  status: ('A' for Active; 'I' for Inactive)
REMARK    1  A    between atoms: C_1  and  N_2
REMARK    2  A    between atoms: C_5  and  C_6
REMARK    3  A    between atoms: C_7  and  C_9
REMARK    4  A    between atoms: N_14  and  C_15
REMARK    5  A    between atoms: C_18  and  O_19
REMARK                            x       y       z     vdW  Elec       q    Type
REMARK                         _______ _______ _______ _____ _____    ______ ____
ROOT
ATOM      1  C   UNL     1       7.120  -4.824  24.899  0.00  0.00    +0.084 A 
ATOM      2  N   UNL     1       6.906  -3.510  24.659  0.00  0.00    -0.214 NA
ATOM      3  C   UNL     1       7.980  -2.718  24.527  0.00  0.00    +0.220 A 
ATOM      4  N   UNL     1       7.726  -1.378  24.242  0.00  0.00    -0.284 N 
ATOM      5  H   UNL     1       6.731  -1.211  24.233  0.00  0.00    +0.155 HD
ATOM      6  N   UNL     1       9.238  -3.162  24.670  0.00  0.00    -0.223 NA
ATOM      7  C   UNL     1       9.418  -4.463  24.931  0.00  0.00    +0.116 A 
ATOM      8  C   UNL     1       8.385  -5.350  25.052  0.00  0.00    +0.049 A 
ENDROOT
BRANCH   1  14
ATOM      9  C   UNL     1       2.151  -8.629  24.702  0.00  0.00    +0.127 C 
ATOM     10  N   UNL     1       2.882  -7.628  23.965  0.00  0.00    -0.327 N 
ATOM     11  H   UNL     1       2.870  -7.698  22.956  0.00  0.00    +0.148 HD
ATOM     12  C   UNL     1       3.898  -6.968  24.559  0.00  0.00    +0.159 A 
ATOM     13  S   UNL     1       4.981  -6.044  23.607  0.00  0.00    -0.051 S 
ATOM     14  C   UNL     1       5.903  -5.639  25.006  0.00  0.00    +0.062 A 
ATOM     15  C   UNL     1       5.273  -6.183  26.120  0.00  0.00    +0.057 A 
ATOM     16  C   UNL     1       5.684  -6.042  27.543  0.00  0.00    +0.067 C 
ATOM     17  N   UNL     1       4.153  -6.960  25.845  0.00  0.00    -0.230 NA
ENDBRANCH   1  14
BRANCH   4  18
ATOM     18  C   UNL     1       8.525  -0.397  23.638  0.00  0.00    +0.034 A 
ATOM     19  C   UNL     1       8.594  -0.337  22.237  0.00  0.00    +0.027 A 
ATOM     20  C   UNL     1       9.337   0.658  21.591  0.00  0.00    +0.047 A 
ATOM     21  C   UNL     1      10.008   1.612  22.343  0.00  0.00    +0.117 A 
ATOM     22  C   UNL     1       9.950   1.589  23.728  0.00  0.00    +0.047 A 
ATOM     23  C   UNL     1       9.204   0.592  24.364  0.00  0.00    +0.027 A 
BRANCH  21  24
ATOM     24  O   UNL     1      10.715   2.572  21.682  0.00  0.00    -0.507 OA
ATOM     25  H   UNL     1      10.169   3.375  21.634  0.00  0.00    +0.292 HD
ENDBRANCH  21  24
ENDBRANCH   4  18
TORSDOF 3
ENDMDL
MODEL 3
REMARK VINA RESULT:      -6.9      1.672      1.854
REMARK  Name = 
REMARK  5 active torsions:
REMARK  status: ('A' for Active; 'I' for Inactive)
REMARK    1  A    between atoms: C_1  and  N_2
REMARK    2  A    between atoms: C_5  and  C_6
REMARK    3  A    between atoms: C_7  and  C_9
REMARK    4  A    between atoms: N_14  and  C_15
REMARK    5  A    between atoms: C_18  and  O_19
REMARK                            x       y       z     vdW  Elec       q    Type
REMARK                         _______ _______ _______ _____ _____    ______ ____
ROOT
ATOM      1  C   UNL     1       7.556  -4.852  25.824  0.00  0.00    +0.084 A 
ATOM      2  N   UNL     1       7.347  -3.522  25.699  0.00  0.00    -0.214 NA
ATOM      3  C   UNL     1       8.315  -2.791  25.125  0.00  0.00    +0.220 A 
ATOM      4  N   UNL     1       8.052  -1.431  24.975  0.00  0.00    -0.284 N 
ATOM      5  H   UNL     1       7.159  -1.205  25.388  0.00  0.00    +0.155 HD
ATOM      6  N   UNL     1       9.482  -3.312  24.721  0.00  0.00    -0.223 NA
ATOM      7  C   UNL     1       9.671  -4.628  24.881  0.00  0.00    +0.116 A 
ATOM      8  C   UNL     1       8.729  -5.456  25.428  0.00  0.00    +0.049 A 
ENDROOT
BRANCH   1  14
ATOM      9  C   UNL     1       2.888  -7.541  29.016  0.00  0.00    +0.127 C 
ATOM     10  N   UNL     1       4.273  -7.151  29.086  0.00  0.00    -0.327 N 
ATOM     11  H   UNL     1       4.634  -6.893  29.996  0.00  0.00    +0.148 HD
ATOM     12  C   UNL     1       4.894  -6.682  27.984  0.00  0.00    +0.159 A 
ATOM     13  S   UNL     1       6.411  -5.901  28.132  0.00  0.00    -0.051 S 
ATOM     14  C   UNL     1       6.447  -5.596  26.436  0.00  0.00    +0.062 A 
ATOM     15  C   UNL     1       5.324  -6.181  25.861  0.00  0.00    +0.057 A 
ATOM     16  C   UNL     1       4.971  -6.219  24.416  0.00  0.00    +0.067 C 
ATOM     17  N   UNL     1       4.438  -6.767  26.758  0.00  0.00    -0.230 NA
ENDBRANCH   1  14
BRANCH   4  18
ATOM     18  C   UNL     1       8.584  -0.481  24.090  0.00  0.00    +0.034 A 
ATOM     19  C   UNL     1       9.473   0.488  24.580  0.00  0.00    +0.027 A 
ATOM     20  C   UNL     1      10.068   1.422  23.723  0.00  0.00    +0.047 A 
ATOM     21  C   UNL     1       9.788   1.385  22.366  0.00  0.00    +0.117 A 
ATOM     22  C   UNL     1       8.924   0.432  21.847  0.00  0.00    +0.047 A 
ATOM     23  C   UNL     1       8.335  -0.497  22.710  0.00  0.00    +0.027 A 
BRANCH  21  24
ATOM     24  O   UNL     1      10.392   2.304  21.559  0.00  0.00    -0.507 OA
ATOM     25  H   UNL     1       9.828   3.096  21.524  0.00  0.00    +0.292 HD
ENDBRANCH  21  24
ENDBRANCH   4  18
TORSDOF 3
ENDMDL
MODEL 4
REMARK VINA RESULT:      -6.8      4.210      8.639
REMARK  Name = 
REMARK  5 active torsions:
REMARK  status: ('A' for Active; 'I' for Inactive)
REMARK    1  A    between atoms: C_1  and  N_2
REMARK    2  A    between atoms: C_5  and  C_6
REMARK    3  A    between atoms: C_7  and  C_9
REMARK    4  A    between atoms: N_14  and  C_15
REMARK    5  A    between atoms: C_18  and  O_19
REMARK                            x       y       z     vdW  Elec       q    Type
REMARK                         _______ _______ _______ _____ _____    ______ ____
ROOT
ATOM      1  C   UNL     1       9.123  -0.019  23.795  0.00  0.00    +0.084 A 
ATOM      2  N   UNL     1       7.911  -0.531  23.484  0.00  0.00    -0.214 NA
ATOM      3  C   UNL     1       7.816  -1.861  23.338  0.00  0.00    +0.220 A 
ATOM      4  N   UNL     1       6.546  -2.360  23.056  0.00  0.00    -0.284 N 
ATOM      5  H   UNL     1       5.892  -1.598  22.953  0.00  0.00    +0.155 HD
ATOM      6  N   UNL     1       8.869  -2.685  23.440  0.00  0.00    -0.223 NA
ATOM      7  C   UNL     1      10.062  -2.147  23.725  0.00  0.00    +0.116 A 
ATOM      8  C   UNL     1      10.248  -0.806  23.920  0.00  0.00    +0.049 A 
ENDROOT
BRANCH   1  14
ATOM      9  C   UNL     1       9.321   6.239  23.768  0.00  0.00    +0.127 C 
ATOM     10  N   UNL     1      10.025   5.050  23.360  0.00  0.00    -0.327 N 
ATOM     11  H   UNL     1      10.588   5.113  22.521  0.00  0.00    +0.148 HD
ATOM     12  C   UNL     1       9.582   3.839  23.756  0.00  0.00    +0.159 A 
ATOM     13  S   UNL     1      10.191   2.425  23.006  0.00  0.00    -0.051 S 
ATOM     14  C   UNL     1       9.153   1.440  23.967  0.00  0.00    +0.062 A 
ATOM     15  C   UNL     1       8.462   2.261  24.850  0.00  0.00    +0.057 A 
ATOM     16  C   UNL     1       7.499   1.839  25.904  0.00  0.00    +0.067 C 
ATOM     17  N   UNL     1       8.695   3.623  24.696  0.00  0.00    -0.230 NA
ENDBRANCH   1  14
BRANCH   4  18
ATOM     18  C   UNL     1       5.990  -3.632  23.256  0.00  0.00    +0.034 A 
ATOM     19  C   UNL     1       5.987  -4.552  22.195  0.00  0.00    +0.027 A 
ATOM     20  C   UNL     1       5.490  -5.850  22.365  0.00  0.00    +0.047 A 
ATOM     21  C   UNL     1       5.004  -6.243  23.603  0.00  0.00    +0.117 A 
ATOM     22  C   UNL     1       5.004  -5.363  24.675  0.00  0.00    +0.047 A 
ATOM     23  C   UNL     1       5.503  -4.069  24.496  0.00  0.00    +0.027 A 
BRANCH  21  24
ATOM     24  O   UNL     1       4.535  -7.517  23.735  0.00  0.00    -0.507 OA
ATOM     25  H   UNL     1       5.137  -8.003  24.324  0.00  0.00    +0.292 HD
ENDBRANCH  21  24
ENDBRANCH   4  18
TORSDOF 3
ENDMDL
MODEL 5
REMARK VINA RESULT:      -6.4      4.088      8.330
REMARK  Name = 
REMARK  5 active torsions:
REMARK  status: ('A' for Active; 'I' for Inactive)
REMARK    1  A    between atoms: C_1  and  N_2
REMARK    2  A    between atoms: C_5  and  C_6
REMARK    3  A    between atoms: C_7  and  C_9
REMARK    4  A    between atoms: N_14  and  C_15
REMARK    5  A    between atoms: C_18  and  O_19
REMARK                            x       y       z     vdW  Elec       q    Type
REMARK                         _______ _______ _______ _____ _____    ______ ____
ROOT
ATOM      1  C   UNL     1       8.444  -0.676  23.564  0.00  0.00    +0.084 A 
ATOM      2  N   UNL     1       7.318  -1.264  24.028  0.00  0.00    -0.214 NA
ATOM      3  C   UNL     1       7.386  -2.560  24.368  0.00  0.00    +0.220 A 
ATOM      4  N   UNL     1       6.220  -3.124  24.879  0.00  0.00    -0.284 N 
ATOM      5  H   UNL     1       5.472  -2.447  24.859  0.00  0.00    +0.155 HD
ATOM      6  N   UNL     1       8.498  -3.296  24.223  0.00  0.00    -0.223 NA
ATOM      7  C   UNL     1       9.591  -2.694  23.738  0.00  0.00    +0.116 A 
ATOM      8  C   UNL     1       9.623  -1.370  23.394  0.00  0.00    +0.049 A 
ENDROOT
BRANCH   1  14
ATOM      9  C   UNL     1       7.125   5.321  22.341  0.00  0.00    +0.127 C 
ATOM     10  N   UNL     1       6.771   3.961  22.019  0.00  0.00    -0.327 N 
ATOM     11  H   UNL     1       5.808   3.785  21.760  0.00  0.00    +0.148 HD
ATOM     12  C   UNL     1       7.510   2.944  22.505  0.00  0.00    +0.159 A 
ATOM     13  S   UNL     1       6.909   1.342  22.421  0.00  0.00    -0.051 S 
ATOM     14  C   UNL     1       8.308   0.749  23.236  0.00  0.00    +0.062 A 
ATOM     15  C   UNL     1       9.175   1.814  23.452  0.00  0.00    +0.057 A 
ATOM     16  C   UNL     1      10.527   1.761  24.073  0.00  0.00    +0.067 C 
ATOM     17  N   UNL     1       8.694   3.057  23.057  0.00  0.00    -0.230 NA
ENDBRANCH   1  14
BRANCH   4  18
ATOM     18  C   UNL     1       6.020  -4.244  25.701  0.00  0.00    +0.034 A 
ATOM     19  C   UNL     1       6.350  -4.161  27.063  0.00  0.00    +0.027 A 
ATOM     20  C   UNL     1       6.119  -5.235  27.929  0.00  0.00    +0.047 A 
ATOM     21  C   UNL     1       5.543  -6.399  27.442  0.00  0.00    +0.117 A 
ATOM     22  C   UNL     1       5.194  -6.509  26.105  0.00  0.00    +0.047 A 
ATOM     23  C   UNL     1       5.428  -5.431  25.247  0.00  0.00    +0.027 A 
BRANCH  21  24
ATOM     24  O   UNL     1       5.325  -7.423  28.316  0.00  0.00    -0.507 OA
ATOM     25  H   UNL     1       5.215  -8.243  27.804  0.00  0.00    +0.292 HD
ENDBRANCH  21  24
ENDBRANCH   4  18
TORSDOF 3
ENDMDL
MODEL 6
REMARK VINA RESULT:      -6.4      4.010      8.479
REMARK  Name = 
REMARK  5 active torsions:
REMARK  status: ('A' for Active; 'I' for Inactive)
REMARK    1  A    between atoms: C_1  and  N_2
REMARK    2  A    between atoms: C_5  and  C_6
REMARK    3  A    between atoms: C_7  and  C_9
REMARK    4  A    between atoms: N_14  and  C_15
REMARK    5  A    between atoms: C_18  and  O_19
REMARK                            x       y       z     vdW  Elec       q    Type
REMARK                         _______ _______ _______ _____ _____    ______ ____
ROOT
ATOM      1  C   UNL     1       8.707  -0.169  23.937  0.00  0.00    +0.084 A 
ATOM      2  N   UNL     1       7.489  -0.651  23.601  0.00  0.00    -0.214 NA
ATOM      3  C   UNL     1       7.364  -1.979  23.455  0.00  0.00    +0.220 A 
ATOM      4  N   UNL     1       6.088  -2.446  23.147  0.00  0.00    -0.284 N 
ATOM      5  H   UNL     1       5.456  -1.669  23.029  0.00  0.00    +0.155 HD
ATOM      6  N   UNL     1       8.394  -2.828  23.581  0.00  0.00    -0.223 NA
ATOM      7  C   UNL     1       9.593  -2.320  23.891  0.00  0.00    +0.116 A 
ATOM      8  C   UNL     1       9.809  -0.983  24.088  0.00  0.00    +0.049 A 
ENDROOT
BRANCH   1  14
ATOM      9  C   UNL     1       8.987   5.910  25.412  0.00  0.00    +0.127 C 
ATOM     10  N   UNL     1       8.243   4.693  25.623  0.00  0.00    -0.327 N 
ATOM     11  H   UNL     1       7.782   4.584  26.518  0.00  0.00    +0.148 HD
ATOM     12  C   UNL     1       8.548   3.590  24.911  0.00  0.00    +0.159 A 
ATOM     13  S   UNL     1       7.920   2.070  25.388  0.00  0.00    -0.051 S 
ATOM     14  C   UNL     1       8.769   1.289  24.107  0.00  0.00    +0.062 A 
ATOM     15  C   UNL     1       9.419   2.261  23.355  0.00  0.00    +0.057 A 
ATOM     16  C   UNL     1      10.226   2.052  22.122  0.00  0.00    +0.067 C 
ATOM     17  N   UNL     1       9.308   3.558  23.843  0.00  0.00    -0.230 NA
ENDBRANCH   1  14
BRANCH   4  18
ATOM     18  C   UNL     1       5.497  -3.704  23.337  0.00  0.00    +0.034 A 
ATOM     19  C   UNL     1       5.727  -4.719  22.394  0.00  0.00    +0.027 A 
ATOM     20  C   UNL     1       5.200  -6.003  22.570  0.00  0.00    +0.047 A 
ATOM     21  C   UNL     1       4.448  -6.288  23.700  0.00  0.00    +0.117 A 
ATOM     22  C   UNL     1       4.212  -5.313  24.656  0.00  0.00    +0.047 A 
ATOM     23  C   UNL     1       4.742  -4.032  24.473  0.00  0.00    +0.027 A 
BRANCH  21  24
ATOM     24  O   UNL     1       3.956  -7.552  23.843  0.00  0.00    -0.507 OA
ATOM     25  H   UNL     1       4.614  -8.082  24.325  0.00  0.00    +0.292 HD
ENDBRANCH  21  24
ENDBRANCH   4  18
TORSDOF 3
ENDMDL
MODEL 7
REMARK VINA RESULT:      -6.4      4.099      8.696
REMARK  Name = 
REMARK  5 active torsions:
REMARK  status: ('A' for Active; 'I' for Inactive)
REMARK    1  A    between atoms: C_1  and  N_2
REMARK    2  A    between atoms: C_5  and  C_6
REMARK    3  A    between atoms: C_7  and  C_9
REMARK    4  A    between atoms: N_14  and  C_15
REMARK    5  A    between atoms: C_18  and  O_19
REMARK                            x       y       z     vdW  Elec       q    Type
REMARK                         _______ _______ _______ _____ _____    ______ ____
ROOT
ATOM      1  C   UNL     1       7.667   0.531  24.128  0.00  0.00    +0.084 A 
ATOM      2  N   UNL     1       8.012  -0.776  24.083  0.00  0.00    -0.214 NA
ATOM      3  C   UNL     1       7.088  -1.678  24.449  0.00  0.00    +0.220 A 
ATOM      4  N   UNL     1       7.463  -3.016  24.354  0.00  0.00    -0.284 N 
ATOM      5  H   UNL     1       8.426  -3.084  24.062  0.00  0.00    +0.155 HD
ATOM      6  N   UNL     1       5.871  -1.336  24.897  0.00  0.00    -0.223 NA
ATOM      7  C   UNL     1       5.566  -0.033  24.954  0.00  0.00    +0.116 A 
ATOM      8  C   UNL     1       6.433   0.954  24.573  0.00  0.00    +0.049 A 
ENDROOT
BRANCH   1  14
ATOM      9  C   UNL     1      12.226   4.670  22.995  0.00  0.00    +0.127 C 
ATOM     10  N   UNL     1      10.940   4.497  23.622  0.00  0.00    -0.327 N 
ATOM     11  H   UNL     1      10.745   5.062  24.439  0.00  0.00    +0.148 HD
ATOM     12  C   UNL     1      10.263   3.342  23.455  0.00  0.00    +0.159 A 
ATOM     13  S   UNL     1       8.920   2.991  24.458  0.00  0.00    -0.051 S 
ATOM     14  C   UNL     1       8.714   1.462  23.689  0.00  0.00    +0.062 A 
ATOM     15  C   UNL     1       9.647   1.357  22.664  0.00  0.00    +0.057 A 
ATOM     16  C   UNL     1       9.801   0.234  21.700  0.00  0.00    +0.067 C 
ATOM     17  N   UNL     1      10.538   2.420  22.564  0.00  0.00    -0.230 NA
ENDBRANCH   1  14
BRANCH   4  18
ATOM     18  C   UNL     1       6.693  -4.182  24.229  0.00  0.00    +0.034 A 
ATOM     19  C   UNL     1       6.225  -4.821  25.388  0.00  0.00    +0.027 A 
ATOM     20  C   UNL     1       5.411  -5.956  25.309  0.00  0.00    +0.047 A 
ATOM     21  C   UNL     1       5.046  -6.455  24.068  0.00  0.00    +0.117 A 
ATOM     22  C   UNL     1       5.479  -5.840  22.903  0.00  0.00    +0.047 A 
ATOM     23  C   UNL     1       6.292  -4.706  22.992  0.00  0.00    +0.027 A 
BRANCH  21  24
ATOM     24  O   UNL     1       4.244  -7.558  24.028  0.00  0.00    -0.507 OA
ATOM     25  H   UNL     1       4.805  -8.337  23.876  0.00  0.00    +0.292 HD
ENDBRANCH  21  24
ENDBRANCH   4  18
TORSDOF 3
ENDMDL
MODEL 8
REMARK VINA RESULT:      -6.4      3.120      3.687
REMARK  Name = 
REMARK  5 active torsions:
REMARK  status: ('A' for Active; 'I' for Inactive)
REMARK    1  A    between atoms: C_1  and  N_2
REMARK    2  A    between atoms: C_5  and  C_6
REMARK    3  A    between atoms: C_7  and  C_9
REMARK    4  A    between atoms: N_14  and  C_15
REMARK    5  A    between atoms: C_18  and  O_19
REMARK                            x       y       z     vdW  Elec       q    Type
REMARK                         _______ _______ _______ _____ _____    ______ ____
ROOT
ATOM      1  C   UNL     1       8.613  -2.356  25.025  0.00  0.00    +0.084 A 
ATOM      2  N   UNL     1       8.202  -1.098  25.301  0.00  0.00    -0.214 NA
ATOM      3  C   UNL     1       8.631  -0.112  24.498  0.00  0.00    +0.220 A 
ATOM      4  N   UNL     1       8.157   1.166  24.786  0.00  0.00    -0.284 N 
ATOM      5  H   UNL     1       7.587   1.143  25.618  0.00  0.00    +0.155 HD
ATOM      6  N   UNL     1       9.477  -0.316  23.478  0.00  0.00    -0.223 NA
ATOM      7  C   UNL     1       9.887  -1.569  23.244  0.00  0.00    +0.116 A 
ATOM      8  C   UNL     1       9.479  -2.640  23.990  0.00  0.00    +0.049 A 
ENDROOT
BRANCH   1  14
ATOM      9  C   UNL     1       5.676  -6.574  28.601  0.00  0.00    +0.127 C 
ATOM     10  N   UNL     1       5.738  -5.174  28.264  0.00  0.00    -0.327 N 
ATOM     11  H   UNL     1       4.877  -4.646  28.326  0.00  0.00    +0.148 HD
ATOM     12  C   UNL     1       6.721  -4.722  27.458  0.00  0.00    +0.159 A 
ATOM     13  S   UNL     1       6.607  -3.154  26.778  0.00  0.00    -0.051 S 
ATOM     14  C   UNL     1       8.087  -3.390  25.926  0.00  0.00    +0.062 A 
ATOM     15  C   UNL     1       8.604  -4.631  26.279  0.00  0.00    +0.057 A 
ATOM     16  C   UNL     1       9.891  -5.229  25.831  0.00  0.00    +0.067 C 
ATOM     17  N   UNL     1       7.801  -5.386  27.127  0.00  0.00    -0.230 NA
ENDBRANCH   1  14
BRANCH   4  18
ATOM     18  C   UNL     1       8.028   2.305  23.977  0.00  0.00    +0.034 A 
ATOM     19  C   UNL     1       7.091   2.300  22.931  0.00  0.00    +0.027 A 
ATOM     20  C   UNL     1       6.892   3.432  22.133  0.00  0.00    +0.047 A 
ATOM     21  C   UNL     1       7.621   4.586  22.383  0.00  0.00    +0.117 A 
ATOM     22  C   UNL     1       8.545   4.628  23.415  0.00  0.00    +0.047 A 
ATOM     23  C   UNL     1       8.736   3.493  24.208  0.00  0.00    +0.027 A 
BRANCH  21  24
ATOM     24  O   UNL     1       7.396   5.673  21.591  0.00  0.00    -0.507 OA
ATOM     25  H   UNL     1       8.245   5.951  21.207  0.00  0.00    +0.292 HD
ENDBRANCH  21  24
ENDBRANCH   4  18
TORSDOF 3
ENDMDL
MODEL 9
REMARK VINA RESULT:      -6.3      3.072      4.700
REMARK  Name = 
REMARK  5 active torsions:
REMARK  status: ('A' for Active; 'I' for Inactive)
REMARK    1  A    between atoms: C_1  and  N_2
REMARK    2  A    between atoms: C_5  and  C_6
REMARK    3  A    between atoms: C_7  and  C_9
REMARK    4  A    between atoms: N_14  and  C_15
REMARK    5  A    between atoms: C_18  and  O_19
REMARK                            x       y       z     vdW  Elec       q    Type
REMARK                         _______ _______ _______ _____ _____    ______ ____
ROOT
ATOM      1  C   UNL     1       7.753  -0.586  24.332  0.00  0.00    +0.084 A 
ATOM      2  N   UNL     1       8.405   0.296  23.541  0.00  0.00    -0.214 NA
ATOM      3  C   UNL     1       8.656   1.515  24.042  0.00  0.00    +0.220 A 
ATOM      4  N   UNL     1       9.363   2.386  23.216  0.00  0.00    -0.284 N 
ATOM      5  H   UNL     1       9.529   1.952  22.320  0.00  0.00    +0.155 HD
ATOM      6  N   UNL     1       8.251   1.902  25.260  0.00  0.00    -0.223 NA
ATOM      7  C   UNL     1       7.586   1.015  26.012  0.00  0.00    +0.116 A 
ATOM      8  C   UNL     1       7.312  -0.259  25.596  0.00  0.00    +0.049 A 
ENDROOT
BRANCH   1  14
ATOM      9  C   UNL     1       6.455  -5.860  21.216  0.00  0.00    +0.127 C 
ATOM     10  N   UNL     1       5.871  -4.681  21.805  0.00  0.00    -0.327 N 
ATOM     11  H   UNL     1       5.029  -4.320  21.375  0.00  0.00    +0.148 HD
ATOM     12  C   UNL     1       6.639  -3.845  22.533  0.00  0.00    +0.159 A 
ATOM     13  S   UNL     1       6.051  -2.289  22.940  0.00  0.00    -0.051 S 
ATOM     14  C   UNL     1       7.534  -1.909  23.733  0.00  0.00    +0.062 A 
ATOM     15  C   UNL     1       8.353  -3.032  23.694  0.00  0.00    +0.057 A 
ATOM     16  C   UNL     1       9.703  -3.181  24.302  0.00  0.00    +0.067 C 
ATOM     17  N   UNL     1       7.841  -4.112  22.983  0.00  0.00    -0.230 NA
ENDBRANCH   1  14
BRANCH   4  18
ATOM     18  C   UNL     1      10.149   3.508  23.517  0.00  0.00    +0.034 A 
ATOM     19  C   UNL     1      11.522   3.481  23.226  0.00  0.00    +0.027 A 
ATOM     20  C   UNL     1      12.333   4.596  23.462  0.00  0.00    +0.047 A 
ATOM     21  C   UNL     1      11.775   5.756  23.979  0.00  0.00    +0.117 A 
ATOM     22  C   UNL     1      10.420   5.821  24.265  0.00  0.00    +0.047 A 
ATOM     23  C   UNL     1       9.616   4.702  24.026  0.00  0.00    +0.027 A 
BRANCH  21  24
ATOM     24  O   UNL     1      12.593   6.827  24.188  0.00  0.00    -0.507 OA
ATOM     25  H   UNL     1      13.143   6.642  24.968  0.00  0.00    +0.292 HD
ENDBRANCH  21  24
ENDBRANCH   4  18
TORSDOF 3
ENDMDL
