MODEL 1
REMARK VINA RESULT:      -4.6      0.000      0.000
REMARK  Name = 
REMARK  3 active torsions:
REMARK  status: ('A' for Active; 'I' for Inactive)
REMARK    1  A    between atoms: O_1  and  C_2
REMARK    2  A    between atoms: C_2  and  C_3
REMARK    3  A    between atoms: C_7  and  O_8
REMARK                            x       y       z     vdW  Elec       q    Type
REMARK                         _______ _______ _______ _____ _____    ______ ____
ROOT
ATOM      1  C   UNL     1       9.415  -1.460  23.498  0.00  0.00    +0.134 A 
ATOM      2  O   UNL     1       9.102  -1.305  22.149  0.00  0.00    -0.462 OA
ATOM      3  C   UNL     1       9.376  -0.103  21.542  0.00  0.00    +0.244 A 
ATOM      4  C   UNL     1       9.949   0.938  22.148  0.00  0.00    +0.199 A 
ATOM      5  C   UNL     1      10.330   0.789  23.572  0.00  0.00    +0.226 A 
ATOM      6  O   UNL     1      10.872   1.714  24.169  0.00  0.00    -0.284 OA
ATOM      7  C   UNL     1      10.014  -0.495  24.215  0.00  0.00    +0.098 A 
ENDROOT
BRANCH   4   8
ATOM      8  O   UNL     1      10.190   2.139  21.512  0.00  0.00    -0.501 OA
ATOM      9  H   UNL     1      10.953   1.960  20.923  0.00  0.00    +0.292 HD
ENDBRANCH   4   8
BRANCH   1  10
ATOM     10  C   UNL     1       9.005  -2.794  24.055  0.00  0.00    +0.230 C 
BRANCH  10  11
ATOM     11  O   UNL     1      10.124  -3.654  24.222  0.00  0.00    -0.387 OA
ATOM     12  H   UNL     1      10.851  -3.270  23.704  0.00  0.00    +0.210 HD
ENDBRANCH  10  11
ENDBRANCH   1  10
TORSDOF 3
ENDMDL
MODEL 2
REMARK VINA RESULT:      -4.3      1.380      3.942
REMARK  Name = 
REMARK  3 active torsions:
REMARK  status: ('A' for Active; 'I' for Inactive)
REMARK    1  A    between atoms: O_1  and  C_2
REMARK    2  A    between atoms: C_2  and  C_3
REMARK    3  A    between atoms: C_7  and  O_8
REMARK                            x       y       z     vdW  Elec       q    Type
REMARK                         _______ _______ _______ _____ _____    ______ ____
ROOT
ATOM      1  C   UNL     1       9.893   0.658  23.354  0.00  0.00    +0.134 A 
ATOM      2  O   UNL     1      10.322  -0.254  22.393  0.00  0.00    -0.462 OA
ATOM      3  C   UNL     1      10.280  -1.595  22.690  0.00  0.00    +0.244 A 
ATOM      4  C   UNL     1       9.832  -2.102  23.840  0.00  0.00    +0.199 A 
ATOM      5  C   UNL     1       9.331  -1.159  24.867  0.00  0.00    +0.226 A 
ATOM      6  O   UNL     1       8.897  -1.577  25.935  0.00  0.00    -0.284 OA
ATOM      7  C   UNL     1       9.400   0.275  24.543  0.00  0.00    +0.098 A 
ENDROOT
BRANCH   4   8
ATOM      8  O   UNL     1       9.824  -3.455  24.112  0.00  0.00    -0.501 OA
ATOM      9  H   UNL     1       9.462  -3.524  25.021  0.00  0.00    +0.292 HD
ENDBRANCH   4   8
BRANCH   1  10
ATOM     10  C   UNL     1      10.053   2.091  22.930  0.00  0.00    +0.230 C 
BRANCH  10  11
ATOM     11  O   UNL     1      10.112   2.210  21.515  0.00  0.00    -0.387 OA
ATOM     12  H   UNL     1       9.214   2.041  21.182  0.00  0.00    +0.210 HD
ENDBRANCH  10  11
ENDBRANCH   1  10
TORSDOF 3
ENDMDL
MODEL 3
REMARK VINA RESULT:      -4.2      5.452      6.614
REMARK  Name = 
REMARK  3 active torsions:
REMARK  status: ('A' for Active; 'I' for Inactive)
REMARK    1  A    between atoms: O_1  and  C_2
REMARK    2  A    between atoms: C_2  and  C_3
REMARK    3  A    between atoms: C_7  and  O_8
REMARK                            x       y       z     vdW  Elec       q    Type
REMARK                         _______ _______ _______ _____ _____    ______ ____
ROOT
ATOM      1  C   UNL     1       6.551  -5.173  23.473  0.00  0.00    +0.134 A 
ATOM      2  O   UNL     1       5.764  -5.380  24.604  0.00  0.00    -0.462 OA
ATOM      3  C   UNL     1       6.384  -5.516  25.823  0.00  0.00    +0.244 A 
ATOM      4  C   UNL     1       7.702  -5.443  26.015  0.00  0.00    +0.199 A 
ATOM      5  C   UNL     1       8.562  -5.183  24.836  0.00  0.00    +0.226 A 
ATOM      6  O   UNL     1       9.779  -5.093  24.963  0.00  0.00    -0.284 OA
ATOM      7  C   UNL     1       7.887  -5.058  23.534  0.00  0.00    +0.098 A 
ENDROOT
BRANCH   4   8
ATOM      8  O   UNL     1       8.292  -5.605  27.251  0.00  0.00    -0.501 OA
ATOM      9  H   UNL     1       7.586  -5.983  27.816  0.00  0.00    +0.292 HD
ENDBRANCH   4   8
BRANCH   1  10
ATOM     10  C   UNL     1       5.756  -5.109  22.199  0.00  0.00    +0.230 C 
BRANCH  10  11
ATOM     11  O   UNL     1       5.683  -6.380  21.567  0.00  0.00    -0.387 OA
ATOM     12  H   UNL     1       6.495  -6.477  21.040  0.00  0.00    +0.210 HD
ENDBRANCH  10  11
ENDBRANCH   1  10
TORSDOF 3
ENDMDL
MODEL 4
REMARK VINA RESULT:      -4.2      2.620      5.565
REMARK  Name = 
REMARK  3 active torsions:
REMARK  status: ('A' for Active; 'I' for Inactive)
REMARK    1  A    between atoms: O_1  and  C_2
REMARK    2  A    between atoms: C_2  and  C_3
REMARK    3  A    between atoms: C_7  and  O_8
REMARK                            x       y       z     vdW  Elec       q    Type
REMARK                         _______ _______ _______ _____ _____    ______ ____
ROOT
ATOM      1  C   UNL     1       9.238  -2.760  24.584  0.00  0.00    +0.134 A 
ATOM      2  O   UNL     1       9.913  -3.976  24.504  0.00  0.00    -0.462 OA
ATOM      3  C   UNL     1       9.533  -4.997  25.342  0.00  0.00    +0.244 A 
ATOM      4  C   UNL     1       8.537  -4.921  26.227  0.00  0.00    +0.199 A 
ATOM      5  C   UNL     1       7.775  -3.653  26.306  0.00  0.00    +0.226 A 
ATOM      6  O   UNL     1       6.842  -3.538  27.094  0.00  0.00    -0.284 OA
ATOM      7  C   UNL     1       8.204  -2.562  25.417  0.00  0.00    +0.098 A 
ENDROOT
BRANCH   4   8
ATOM      8  O   UNL     1       8.197  -5.961  27.067  0.00  0.00    -0.501 OA
ATOM      9  H   UNL     1       8.322  -6.769  26.526  0.00  0.00    +0.292 HD
ENDBRANCH   4   8
BRANCH   1  10
ATOM     10  C   UNL     1       9.794  -1.709  23.664  0.00  0.00    +0.230 C 
BRANCH  10  11
ATOM     11  O   UNL     1      10.645  -2.279  22.679  0.00  0.00    -0.387 OA
ATOM     12  H   UNL     1      10.491  -3.239  22.698  0.00  0.00    +0.210 HD
ENDBRANCH  10  11
ENDBRANCH   1  10
TORSDOF 3
ENDMDL
MODEL 5
REMARK VINA RESULT:      -4.2      5.400      6.832
REMARK  Name = 
REMARK  3 active torsions:
REMARK  status: ('A' for Active; 'I' for Inactive)
REMARK    1  A    between atoms: O_1  and  C_2
REMARK    2  A    between atoms: C_2  and  C_3
REMARK    3  A    between atoms: C_7  and  O_8
REMARK                            x       y       z     vdW  Elec       q    Type
REMARK                         _______ _______ _______ _____ _____    ______ ____
ROOT
ATOM      1  C   UNL     1       7.575  -5.009  23.918  0.00  0.00    +0.134 A 
ATOM      2  O   UNL     1       6.585  -5.431  24.803  0.00  0.00    -0.462 OA
ATOM      3  C   UNL     1       5.360  -5.797  24.297  0.00  0.00    +0.244 A 
ATOM      4  C   UNL     1       5.046  -5.800  23.000  0.00  0.00    +0.199 A 
ATOM      5  C   UNL     1       6.092  -5.394  22.032  0.00  0.00    +0.226 A 
ATOM      6  O   UNL     1       5.856  -5.393  20.829  0.00  0.00    -0.284 OA
ATOM      7  C   UNL     1       7.392  -4.987  22.588  0.00  0.00    +0.098 A 
ENDROOT
BRANCH   4   8
ATOM      8  O   UNL     1       3.799  -6.154  22.530  0.00  0.00    -0.501 OA
ATOM      9  H   UNL     1       3.274  -5.325  22.567  0.00  0.00    +0.292 HD
ENDBRANCH   4   8
BRANCH   1  10
ATOM     10  C   UNL     1       8.840  -4.575  24.603  0.00  0.00    +0.230 C 
BRANCH  10  11
ATOM     11  O   UNL     1       9.707  -5.676  24.838  0.00  0.00    -0.387 OA
ATOM     12  H   UNL     1       9.299  -6.449  24.413  0.00  0.00    +0.210 HD
ENDBRANCH  10  11
ENDBRANCH   1  10
TORSDOF 3
ENDMDL
MODEL 6
REMARK VINA RESULT:      -4.1      5.583      6.527
REMARK  Name = 
REMARK  3 active torsions:
REMARK  status: ('A' for Active; 'I' for Inactive)
REMARK    1  A    between atoms: O_1  and  C_2
REMARK    2  A    between atoms: C_2  and  C_3
REMARK    3  A    between atoms: C_7  and  O_8
REMARK                            x       y       z     vdW  Elec       q    Type
REMARK                         _______ _______ _______ _____ _____    ______ ____
ROOT
ATOM      1  C   UNL     1       7.973  -5.141  24.813  0.00  0.00    +0.134 A 
ATOM      2  O   UNL     1       8.335  -5.355  23.485  0.00  0.00    -0.462 OA
ATOM      3  C   UNL     1       7.349  -5.643  22.571  0.00  0.00    +0.244 A 
ATOM      4  C   UNL     1       6.048  -5.714  22.856  0.00  0.00    +0.199 A 
ATOM      5  C   UNL     1       5.629  -5.451  24.253  0.00  0.00    +0.226 A 
ATOM      6  O   UNL     1       4.442  -5.490  24.562  0.00  0.00    -0.284 OA
ATOM      7  C   UNL     1       6.695  -5.162  25.225  0.00  0.00    +0.098 A 
ENDROOT
BRANCH   4   8
ATOM      8  O   UNL     1       5.088  -6.026  21.916  0.00  0.00    -0.501 OA
ATOM      9  H   UNL     1       4.428  -5.305  21.984  0.00  0.00    +0.292 HD
ENDBRANCH   4   8
BRANCH   1  10
ATOM     10  C   UNL     1       9.147  -4.902  25.720  0.00  0.00    +0.230 C 
BRANCH  10  11
ATOM     11  O   UNL     1      10.280  -5.658  25.312  0.00  0.00    -0.387 OA
ATOM     12  H   UNL     1      11.062  -5.109  25.491  0.00  0.00    +0.210 HD
ENDBRANCH  10  11
ENDBRANCH   1  10
TORSDOF 3
ENDMDL
MODEL 7
REMARK VINA RESULT:      -4.1      2.109      2.889
REMARK  Name = 
REMARK  3 active torsions:
REMARK  status: ('A' for Active; 'I' for Inactive)
REMARK    1  A    between atoms: O_1  and  C_2
REMARK    2  A    between atoms: C_2  and  C_3
REMARK    3  A    between atoms: C_7  and  O_8
REMARK                            x       y       z     vdW  Elec       q    Type
REMARK                         _______ _______ _______ _____ _____    ______ ____
ROOT
ATOM      1  C   UNL     1       8.995  -0.949  25.448  0.00  0.00    +0.134 A 
ATOM      2  O   UNL     1       9.130  -2.239  24.941  0.00  0.00    -0.462 OA
ATOM      3  C   UNL     1       9.627  -2.399  23.669  0.00  0.00    +0.244 A 
ATOM      4  C   UNL     1      10.017  -1.400  22.877  0.00  0.00    +0.199 A 
ATOM      5  C   UNL     1       9.922  -0.018  23.404  0.00  0.00    +0.226 A 
ATOM      6  O   UNL     1      10.281   0.933  22.719  0.00  0.00    -0.284 OA
ATOM      7  C   UNL     1       9.371   0.141  24.759  0.00  0.00    +0.098 A 
ENDROOT
BRANCH   4   8
ATOM      8  O   UNL     1      10.491  -1.597  21.596  0.00  0.00    -0.501 OA
ATOM      9  H   UNL     1      10.144  -0.837  21.082  0.00  0.00    +0.292 HD
ENDBRANCH   4   8
BRANCH   1  10
ATOM     10  C   UNL     1       8.379  -0.909  26.819  0.00  0.00    +0.230 C 
BRANCH  10  11
ATOM     11  O   UNL     1       9.285  -0.383  27.779  0.00  0.00    -0.387 OA
ATOM     12  H   UNL     1      10.168  -0.403  27.372  0.00  0.00    +0.210 HD
ENDBRANCH  10  11
ENDBRANCH   1  10
TORSDOF 3
ENDMDL
MODEL 8
REMARK VINA RESULT:      -4.1      1.636      4.137
REMARK  Name = 
REMARK  3 active torsions:
REMARK  status: ('A' for Active; 'I' for Inactive)
REMARK    1  A    between atoms: O_1  and  C_2
REMARK    2  A    between atoms: C_2  and  C_3
REMARK    3  A    between atoms: C_7  and  O_8
REMARK                            x       y       z     vdW  Elec       q    Type
REMARK                         _______ _______ _______ _____ _____    ______ ____
ROOT
ATOM      1  C   UNL     1       8.691   0.413  22.332  0.00  0.00    +0.134 A 
ATOM      2  O   UNL     1       7.415  -0.077  22.598  0.00  0.00    -0.462 OA
ATOM      3  C   UNL     1       7.276  -1.397  22.958  0.00  0.00    +0.244 A 
ATOM      4  C   UNL     1       8.289  -2.254  23.096  0.00  0.00    +0.199 A 
ATOM      5  C   UNL     1       9.662  -1.751  22.860  0.00  0.00    +0.226 A 
ATOM      6  O   UNL     1      10.627  -2.498  22.988  0.00  0.00    -0.284 OA
ATOM      7  C   UNL     1       9.795  -0.343  22.457  0.00  0.00    +0.098 A 
ENDROOT
BRANCH   4   8
ATOM      8  O   UNL     1       8.110  -3.579  23.439  0.00  0.00    -0.501 OA
ATOM      9  H   UNL     1       7.192  -3.786  23.163  0.00  0.00    +0.292 HD
ENDBRANCH   4   8
BRANCH   1  10
ATOM     10  C   UNL     1       8.698   1.848  21.886  0.00  0.00    +0.230 C 
BRANCH  10  11
ATOM     11  O   UNL     1      10.004   2.273  21.522  0.00  0.00    -0.387 OA
ATOM     12  H   UNL     1      10.282   1.714  20.776  0.00  0.00    +0.210 HD
ENDBRANCH  10  11
ENDBRANCH   1  10
TORSDOF 3
ENDMDL
MODEL 9
REMARK VINA RESULT:      -4.1      2.258      3.363
REMARK  Name = 
REMARK  3 active torsions:
REMARK  status: ('A' for Active; 'I' for Inactive)
REMARK    1  A    between atoms: O_1  and  C_2
REMARK    2  A    between atoms: C_2  and  C_3
REMARK    3  A    between atoms: C_7  and  O_8
REMARK                            x       y       z     vdW  Elec       q    Type
REMARK                         _______ _______ _______ _____ _____    ______ ____
ROOT
ATOM      1  C   UNL     1       9.123  -3.534  25.000  0.00  0.00    +0.134 A 
ATOM      2  O   UNL     1       8.516  -2.964  26.116  0.00  0.00    -0.462 OA
ATOM      3  C   UNL     1       8.577  -1.600  26.276  0.00  0.00    +0.244 A 
ATOM      4  C   UNL     1       9.162  -0.763  25.418  0.00  0.00    +0.199 A 
ATOM      5  C   UNL     1       9.781  -1.336  24.200  0.00  0.00    +0.226 A 
ATOM      6  O   UNL     1      10.319  -0.606  23.375  0.00  0.00    -0.284 OA
ATOM      7  C   UNL     1       9.726  -2.799  24.052  0.00  0.00    +0.098 A 
ENDROOT
BRANCH   4   8
ATOM      8  O   UNL     1       9.221   0.601  25.621  0.00  0.00    -0.501 OA
ATOM      9  H   UNL     1       8.472   0.796  26.224  0.00  0.00    +0.292 HD
ENDBRANCH   4   8
BRANCH   1  10
ATOM     10  C   UNL     1       9.044  -5.035  24.980  0.00  0.00    +0.230 C 
BRANCH  10  11
ATOM     11  O   UNL     1      10.289  -5.626  25.326  0.00  0.00    -0.387 OA
ATOM     12  H   UNL     1      10.515  -6.244  24.610  0.00  0.00    +0.210 HD
ENDBRANCH  10  11
ENDBRANCH   1  10
TORSDOF 3
ENDMDL
