MODEL 1
REMARK VINA RESULT:      -7.0      0.000      0.000
REMARK  Name = 
REMARK  20 active torsions:
REMARK  status: ('A' for Active; 'I' for Inactive)
REMARK    1  A    between atoms: C_1  and  C_2
REMARK    2  A    between atoms: C_2  and  C_3
REMARK    3  A    between atoms: C_2  and  C_4
REMARK    4  A    between atoms: C_4  and  N_6
REMARK    5  A    between atoms: C_4  and  C_13
REMARK    6  A    between atoms: N_15  and  C_16
REMARK    7  A    between atoms: C_16  and  C_18
REMARK    8  A    between atoms: C_16  and  C_44
REMARK    9  A    between atoms: C_18  and  C_19
REMARK   10  A    between atoms: C_19  and  O_21
REMARK   11  A    between atoms: C_19  and  C_22
REMARK   12  A    between atoms: C_22  and  C_24
REMARK   13  A    between atoms: C_22  and  N_31
REMARK   14  A    between atoms: C_24  and  C_25
REMARK   15  A    between atoms: C_32  and  C_34
REMARK   16  A    between atoms: C_34  and  O_35
REMARK   17  A    between atoms: O_35  and  C_36
REMARK   18  A    between atoms: C_37  and  C_38
REMARK   19  A    between atoms: C_42  and  C_43
REMARK   20  A    between atoms: C_44  and  C_45
REMARK                            x       y       z     vdW  Elec       q    Type
REMARK                         _______ _______ _______ _____ _____    ______ ____
ROOT
ATOM      1  C   UNL     1       8.560   1.290  21.444  0.00  0.00    +0.055 C 
ENDROOT
BRANCH   1   2
ATOM      2  C   UNL     1       9.012  -0.050  22.075  0.00  0.00    +0.137 C 
BRANCH   2   3
ATOM      3  O   UNL     1       9.491  -0.914  21.035  0.00  0.00    -0.390 OA
ATOM      4  H   UNL     1      10.424  -1.133  21.253  0.00  0.00    +0.210 HD
ENDBRANCH   2   3
BRANCH   2   5
ATOM      5  C   UNL     1       7.988  -0.830  22.959  0.00  0.00    +0.106 C 
BRANCH   5   6
ATOM      6  N   UNL     1       8.067  -2.280  22.728  0.00  0.00    -0.307 N 
ATOM      7  H   UNL     1       8.960  -2.728  22.897  0.00  0.00    +0.149 HD
ATOM      8  C   UNL     1       6.943  -3.065  22.508  0.00  0.00    +0.251 C 
ATOM      9  O   UNL     1       5.806  -2.595  22.460  0.00  0.00    -0.272 OA
BRANCH   8  10
ATOM     10  C   UNL     1       7.237  -4.561  22.330  0.00  0.00    +0.324 C 
BRANCH  10  11
ATOM     11  O   UNL     1       6.521  -5.311  23.291  0.00  0.00    -0.482 OA
BRANCH  11  12
ATOM     12  C   UNL     1       6.663  -5.132  24.641  0.00  0.00    +0.127 A 
ATOM     13  C   UNL     1       7.838  -5.081  25.418  0.00  0.00    -0.009 A 
ATOM     14  C   UNL     1       9.254  -5.054  24.918  0.00  0.00    +0.047 C 
ATOM     15  C   UNL     1       7.721  -5.024  26.829  0.00  0.00    +0.007 A 
ATOM     16  C   UNL     1       6.491  -4.919  27.463  0.00  0.00    +0.001 A 
ATOM     17  C   UNL     1       5.341  -4.859  26.695  0.00  0.00    +0.007 A 
ATOM     18  C   UNL     1       5.413  -4.964  25.295  0.00  0.00    -0.009 A 
ATOM     19  C   UNL     1       4.117  -4.807  24.537  0.00  0.00    +0.047 C 
ENDBRANCH  11  12
ENDBRANCH  10  11
ENDBRANCH   8  10
ENDBRANCH   5   6
BRANCH   5  20
ATOM     20  C   UNL     1       8.002  -0.516  24.477  0.00  0.00    +0.060 C 
BRANCH  20  21
ATOM     21  C   UNL     1       6.718  -0.381  25.265  0.00  0.00    -0.046 A 
ATOM     22  C   UNL     1       5.942   0.784  25.174  0.00  0.00    +0.004 A 
ATOM     23  C   UNL     1       4.824   0.961  25.994  0.00  0.00    +0.000 A 
ATOM     24  C   UNL     1       4.474  -0.019  26.921  0.00  0.00    +0.000 A 
ATOM     25  C   UNL     1       5.251  -1.170  27.040  0.00  0.00    +0.000 A 
ATOM     26  C   UNL     1       6.368  -1.348  26.219  0.00  0.00    +0.004 A 
ENDBRANCH  20  21
ENDBRANCH   5  20
ENDBRANCH   2   5
ENDBRANCH   1   2
BRANCH   1  27
ATOM     27  C   UNL     1       8.393   2.609  22.274  0.00  0.00    +0.080 C 
BRANCH  27  29
ATOM     28  C   UNL     1       6.643   4.458  22.572  0.00  0.00    +0.234 C 
ATOM     29  N   UNL     1       7.025   3.134  22.555  0.00  0.00    -0.311 N 
ATOM     30  H   UNL     1       6.475   2.529  23.148  0.00  0.00    +0.149 HD
ATOM     31  O   UNL     1       7.246   5.299  21.899  0.00  0.00    -0.274 OA
BRANCH  28  32
ATOM     32  C   UNL     1       5.327   4.850  23.348  0.00  0.00    +0.166 C 
BRANCH  32  33
ATOM     33  N   UNL     1       4.054   4.618  22.615  0.00  0.00    -0.274 N 
ATOM     34  C   UNL     1       3.398   5.709  22.069  0.00  0.00    +0.303 C 
ATOM     35  O   UNL     1       3.866   6.845  22.024  0.00  0.00    -0.253 OA
ATOM     36  N   UNL     1       2.124   5.504  21.643  0.00  0.00    -0.299 N 
ATOM     37  H   UNL     1       1.658   6.336  21.301  0.00  0.00    +0.150 HD
ATOM     38  C   UNL     1       1.477   4.226  21.549  0.00  0.00    +0.107 C 
ATOM     39  C   UNL     1       1.976   3.303  22.637  0.00  0.00    +0.038 C 
ATOM     40  C   UNL     1       3.493   3.273  22.536  0.00  0.00    +0.111 C 
ENDBRANCH  32  33
BRANCH  32  42
ATOM     41  C   UNL     1       4.038   5.200  25.586  0.00  0.00    +0.009 C 
ATOM     42  C   UNL     1       5.155   4.457  24.853  0.00  0.00    +0.012 C 
ATOM     43  C   UNL     1       6.438   4.456  25.690  0.00  0.00    +0.009 C 
ENDBRANCH  32  42
ENDBRANCH  28  32
ENDBRANCH  27  29
BRANCH  27  44
ATOM     44  C   UNL     1       9.232   2.671  23.583  0.00  0.00    +0.057 C 
BRANCH  44  45
ATOM     45  C   UNL     1      10.207   3.820  23.733  0.00  0.00    -0.046 A 
ATOM     46  C   UNL     1      11.537   3.651  23.313  0.00  0.00    +0.004 A 
ATOM     47  C   UNL     1      12.422   4.734  23.287  0.00  0.00    +0.000 A 
ATOM     48  C   UNL     1      12.001   5.989  23.718  0.00  0.00    +0.000 A 
ATOM     49  C   UNL     1      10.714   6.148  24.226  0.00  0.00    +0.000 A 
ATOM     50  C   UNL     1       9.830   5.066  24.254  0.00  0.00    +0.004 A 
ENDBRANCH  44  45
ENDBRANCH  27  44
ENDBRANCH   1  27
TORSDOF 16
ENDMDL
MODEL 2
REMARK VINA RESULT:      -7.0      2.727      6.148
REMARK  Name = 
REMARK  20 active torsions:
REMARK  status: ('A' for Active; 'I' for Inactive)
REMARK    1  A    between atoms: C_1  and  C_2
REMARK    2  A    between atoms: C_2  and  C_3
REMARK    3  A    between atoms: C_2  and  C_4
REMARK    4  A    between atoms: C_4  and  N_6
REMARK    5  A    between atoms: C_4  and  C_13
REMARK    6  A    between atoms: N_15  and  C_16
REMARK    7  A    between atoms: C_16  and  C_18
REMARK    8  A    between atoms: C_16  and  C_44
REMARK    9  A    between atoms: C_18  and  C_19
REMARK   10  A    between atoms: C_19  and  O_21
REMARK   11  A    between atoms: C_19  and  C_22
REMARK   12  A    between atoms: C_22  and  C_24
REMARK   13  A    between atoms: C_22  and  N_31
REMARK   14  A    between atoms: C_24  and  C_25
REMARK   15  A    between atoms: C_32  and  C_34
REMARK   16  A    between atoms: C_34  and  O_35
REMARK   17  A    between atoms: O_35  and  C_36
REMARK   18  A    between atoms: C_37  and  C_38
REMARK   19  A    between atoms: C_42  and  C_43
REMARK   20  A    between atoms: C_44  and  C_45
REMARK                            x       y       z     vdW  Elec       q    Type
REMARK                         _______ _______ _______ _____ _____    ______ ____
ROOT
ATOM      1  C   UNL     1       7.702  -0.078  27.700  0.00  0.00    +0.055 C 
ENDROOT
BRANCH   1   2
ATOM      2  C   UNL     1       8.743  -0.867  26.869  0.00  0.00    +0.137 C 
BRANCH   2   3
ATOM      3  O   UNL     1       9.589   0.065  26.181  0.00  0.00    -0.390 OA
ATOM      4  H   UNL     1      10.458  -0.375  26.058  0.00  0.00    +0.210 HD
ENDBRANCH   2   3
BRANCH   2   5
ATOM      5  C   UNL     1       8.222  -1.934  25.854  0.00  0.00    +0.106 C 
BRANCH   5   6
ATOM      6  N   UNL     1       7.536  -3.040  26.536  0.00  0.00    -0.307 N 
ATOM      7  H   UNL     1       6.561  -2.904  26.775  0.00  0.00    +0.149 HD
ATOM      8  C   UNL     1       8.096  -4.304  26.660  0.00  0.00    +0.251 C 
ATOM      9  O   UNL     1       9.220  -4.576  26.236  0.00  0.00    -0.272 OA
BRANCH   8  10
ATOM     10  C   UNL     1       7.201  -5.330  27.370  0.00  0.00    +0.324 C 
BRANCH  10  11
ATOM     11  O   UNL     1       6.576  -6.166  26.417  0.00  0.00    -0.482 OA
BRANCH  11  12
ATOM     12  C   UNL     1       5.641  -5.719  25.524  0.00  0.00    +0.127 A 
ATOM     13  C   UNL     1       5.820  -5.196  24.228  0.00  0.00    -0.009 A 
ATOM     14  C   UNL     1       7.098  -5.149  23.438  0.00  0.00    +0.047 C 
ATOM     15  C   UNL     1       4.698  -4.667  23.544  0.00  0.00    +0.007 A 
ATOM     16  C   UNL     1       3.415  -4.735  24.069  0.00  0.00    +0.001 A 
ATOM     17  C   UNL     1       3.222  -5.347  25.295  0.00  0.00    +0.007 A 
ATOM     18  C   UNL     1       4.318  -5.838  26.026  0.00  0.00    -0.009 A 
ATOM     19  C   UNL     1       4.003  -6.562  27.313  0.00  0.00    +0.047 C 
ENDBRANCH  11  12
ENDBRANCH  10  11
ENDBRANCH   8  10
ENDBRANCH   5   6
BRANCH   5  20
ATOM     20  C   UNL     1       7.369  -1.406  24.672  0.00  0.00    +0.060 C 
BRANCH  20  21
ATOM     21  C   UNL     1       8.014  -0.847  23.424  0.00  0.00    -0.046 A 
ATOM     22  C   UNL     1       9.190  -1.413  22.910  0.00  0.00    +0.004 A 
ATOM     23  C   UNL     1       9.854  -0.821  21.832  0.00  0.00    +0.000 A 
ATOM     24  C   UNL     1       9.356   0.347  21.259  0.00  0.00    +0.000 A 
ATOM     25  C   UNL     1       8.202   0.933  21.775  0.00  0.00    +0.000 A 
ATOM     26  C   UNL     1       7.537   0.342  22.852  0.00  0.00    +0.004 A 
ENDBRANCH  20  21
ENDBRANCH   5  20
ENDBRANCH   2   5
ENDBRANCH   1   2
BRANCH   1  27
ATOM     27  C   UNL     1       6.934   1.169  27.141  0.00  0.00    +0.080 C 
BRANCH  27  29
ATOM     28  C   UNL     1       7.579   3.414  26.083  0.00  0.00    +0.234 C 
ATOM     29  N   UNL     1       7.585   2.036  26.115  0.00  0.00    -0.311 N 
ATOM     30  H   UNL     1       7.674   1.594  25.212  0.00  0.00    +0.149 HD
ATOM     31  O   UNL     1       7.461   4.070  27.122  0.00  0.00    -0.274 OA
BRANCH  28  32
ATOM     32  C   UNL     1       7.876   4.135  24.712  0.00  0.00    +0.166 C 
BRANCH  32  33
ATOM     33  N   UNL     1       9.311   4.211  24.324  0.00  0.00    -0.274 N 
ATOM     34  C   UNL     1       9.885   5.462  24.163  0.00  0.00    +0.303 C 
ATOM     35  O   UNL     1       9.331   6.520  24.456  0.00  0.00    -0.253 OA
ATOM     36  N   UNL     1      11.101   5.500  23.558  0.00  0.00    -0.299 N 
ATOM     37  H   UNL     1      11.465   6.434  23.408  0.00  0.00    +0.150 HD
ATOM     38  C   UNL     1      11.906   4.355  23.242  0.00  0.00    +0.107 C 
ATOM     39  C   UNL     1      11.028   3.173  22.904  0.00  0.00    +0.038 C 
ATOM     40  C   UNL     1      10.062   2.988  24.063  0.00  0.00    +0.111 C 
ENDBRANCH  32  33
BRANCH  32  42
ATOM     41  C   UNL     1       7.166   4.811  22.299  0.00  0.00    +0.009 C 
ATOM     42  C   UNL     1       6.999   3.825  23.454  0.00  0.00    +0.012 C 
ATOM     43  C   UNL     1       5.515   3.565  23.728  0.00  0.00    +0.009 C 
ENDBRANCH  32  42
ENDBRANCH  28  32
ENDBRANCH  27  29
BRANCH  27  44
ATOM     44  C   UNL     1       5.466   0.895  26.705  0.00  0.00    +0.057 C 
BRANCH  44  45
ATOM     45  C   UNL     1       4.747  -0.265  27.364  0.00  0.00    -0.046 A 
ATOM     46  C   UNL     1       4.422  -0.184  28.728  0.00  0.00    +0.004 A 
ATOM     47  C   UNL     1       3.621  -1.160  29.331  0.00  0.00    +0.000 A 
ATOM     48  C   UNL     1       3.168  -2.247  28.588  0.00  0.00    +0.000 A 
ATOM     49  C   UNL     1       3.562  -2.387  27.260  0.00  0.00    +0.000 A 
ATOM     50  C   UNL     1       4.364  -1.414  26.657  0.00  0.00    +0.004 A 
ENDBRANCH  44  45
ENDBRANCH  27  44
ENDBRANCH   1  27
TORSDOF 16
ENDMDL
MODEL 3
REMARK VINA RESULT:      -7.0      2.766      8.438
REMARK  Name = 
REMARK  20 active torsions:
REMARK  status: ('A' for Active; 'I' for Inactive)
REMARK    1  A    between atoms: C_1  and  C_2
REMARK    2  A    between atoms: C_2  and  C_3
REMARK    3  A    between atoms: C_2  and  C_4
REMARK    4  A    between atoms: C_4  and  N_6
REMARK    5  A    between atoms: C_4  and  C_13
REMARK    6  A    between atoms: N_15  and  C_16
REMARK    7  A    between atoms: C_16  and  C_18
REMARK    8  A    between atoms: C_16  and  C_44
REMARK    9  A    between atoms: C_18  and  C_19
REMARK   10  A    between atoms: C_19  and  O_21
REMARK   11  A    between atoms: C_19  and  C_22
REMARK   12  A    between atoms: C_22  and  C_24
REMARK   13  A    between atoms: C_22  and  N_31
REMARK   14  A    between atoms: C_24  and  C_25
REMARK   15  A    between atoms: C_32  and  C_34
REMARK   16  A    between atoms: C_34  and  O_35
REMARK   17  A    between atoms: O_35  and  C_36
REMARK   18  A    between atoms: C_37  and  C_38
REMARK   19  A    between atoms: C_42  and  C_43
REMARK   20  A    between atoms: C_44  and  C_45
REMARK                            x       y       z     vdW  Elec       q    Type
REMARK                         _______ _______ _______ _____ _____    ______ ____
ROOT
ATOM      1  C   UNL     1       8.014  -0.338  26.230  0.00  0.00    +0.055 C 
ENDROOT
BRANCH   1   2
ATOM      2  C   UNL     1       6.576  -0.057  26.729  0.00  0.00    +0.137 C 
BRANCH   2   3
ATOM      3  O   UNL     1       6.014  -1.277  27.234  0.00  0.00    -0.390 OA
ATOM      4  H   UNL     1       5.719  -1.096  28.153  0.00  0.00    +0.210 HD
ENDBRANCH   2   3
BRANCH   2   5
ATOM      5  C   UNL     1       5.567   0.601  25.736  0.00  0.00    +0.106 C 
BRANCH   5   6
ATOM      6  N   UNL     1       4.974   1.823  26.297  0.00  0.00    -0.307 N 
ATOM      7  H   UNL     1       5.566   2.644  26.350  0.00  0.00    +0.149 HD
ATOM      8  C   UNL     1       3.614   1.950  26.543  0.00  0.00    +0.251 C 
ATOM      9  O   UNL     1       2.815   1.035  26.338  0.00  0.00    -0.272 OA
BRANCH   8  10
ATOM     10  C   UNL     1       3.190   3.320  27.092  0.00  0.00    +0.324 C 
BRANCH  10  11
ATOM     11  O   UNL     1       2.612   4.095  26.060  0.00  0.00    -0.482 OA
BRANCH  11  12
ATOM     12  C   UNL     1       3.349   4.787  25.137  0.00  0.00    +0.127 A 
ATOM     13  C   UNL     1       4.391   5.713  25.337  0.00  0.00    -0.009 A 
ATOM     14  C   UNL     1       5.064   6.053  26.637  0.00  0.00    +0.047 C 
ATOM     15  C   UNL     1       4.912   6.407  24.218  0.00  0.00    +0.007 A 
ATOM     16  C   UNL     1       4.495   6.135  22.922  0.00  0.00    +0.001 A 
ATOM     17  C   UNL     1       3.549   5.147  22.714  0.00  0.00    +0.007 A 
ATOM     18  C   UNL     1       2.972   4.472  23.804  0.00  0.00    -0.009 A 
ATOM     19  C   UNL     1       2.010   3.355  23.476  0.00  0.00    +0.047 C 
ENDBRANCH  11  12
ENDBRANCH  10  11
ENDBRANCH   8  10
ENDBRANCH   5   6
BRANCH   5  20
ATOM     20  C   UNL     1       6.078   0.852  24.295  0.00  0.00    +0.060 C 
BRANCH  20  21
ATOM     21  C   UNL     1       6.607   2.205  23.871  0.00  0.00    -0.046 A 
ATOM     22  C   UNL     1       6.433   2.662  22.556  0.00  0.00    +0.004 A 
ATOM     23  C   UNL     1       7.028   3.853  22.131  0.00  0.00    +0.000 A 
ATOM     24  C   UNL     1       7.810   4.598  23.012  0.00  0.00    +0.000 A 
ATOM     25  C   UNL     1       8.011   4.142  24.314  0.00  0.00    +0.000 A 
ATOM     26  C   UNL     1       7.416   2.952  24.739  0.00  0.00    +0.004 A 
ENDBRANCH  20  21
ENDBRANCH   5  20
ENDBRANCH   2   5
ENDBRANCH   1   2
BRANCH   1  27
ATOM     27  C   UNL     1       8.467  -1.735  25.680  0.00  0.00    +0.080 C 
BRANCH  27  29
ATOM     28  C   UNL     1       7.592  -4.103  25.235  0.00  0.00    +0.234 C 
ATOM     29  N   UNL     1       7.438  -2.734  25.270  0.00  0.00    -0.311 N 
ATOM     30  H   UNL     1       6.762  -2.370  24.614  0.00  0.00    +0.149 HD
ATOM     31  O   UNL     1       8.399  -4.667  25.980  0.00  0.00    -0.274 OA
BRANCH  28  32
ATOM     32  C   UNL     1       6.610  -4.948  24.336  0.00  0.00    +0.166 C 
BRANCH  32  33
ATOM     33  N   UNL     1       5.195  -4.990  24.793  0.00  0.00    -0.274 N 
ATOM     34  C   UNL     1       4.839  -5.921  25.754  0.00  0.00    +0.303 C 
ATOM     35  O   UNL     1       5.642  -6.626  26.364  0.00  0.00    -0.253 OA
ATOM     36  N   UNL     1       3.509  -6.114  25.954  0.00  0.00    -0.299 N 
ATOM     37  H   UNL     1       3.287  -6.841  26.625  0.00  0.00    +0.150 HD
ATOM     38  C   UNL     1       2.462  -5.313  25.387  0.00  0.00    +0.107 C 
ATOM     39  C   UNL     1       2.867  -4.807  24.022  0.00  0.00    +0.038 C 
ATOM     40  C   UNL     1       4.206  -4.105  24.186  0.00  0.00    +0.111 C 
ENDBRANCH  32  33
BRANCH  32  42
ATOM     41  C   UNL     1       7.098  -6.086  22.043  0.00  0.00    +0.009 C 
ATOM     42  C   UNL     1       6.664  -4.818  22.777  0.00  0.00    +0.012 C 
ATOM     43  C   UNL     1       7.421  -3.600  22.238  0.00  0.00    +0.009 C 
ENDBRANCH  32  42
ENDBRANCH  28  32
ENDBRANCH  27  29
BRANCH  27  44
ATOM     44  C   UNL     1       9.577  -1.682  24.591  0.00  0.00    +0.057 C 
BRANCH  44  45
ATOM     45  C   UNL     1       9.667  -0.428  23.746  0.00  0.00    -0.046 A 
ATOM     46  C   UNL     1      10.390   0.676  24.231  0.00  0.00    +0.004 A 
ATOM     47  C   UNL     1      10.630   1.786  23.416  0.00  0.00    +0.000 A 
ATOM     48  C   UNL     1      10.117   1.826  22.122  0.00  0.00    +0.000 A 
ATOM     49  C   UNL     1       9.319   0.781  21.664  0.00  0.00    +0.000 A 
ATOM     50  C   UNL     1       9.077  -0.329  22.478  0.00  0.00    +0.004 A 
ENDBRANCH  44  45
ENDBRANCH  27  44
ENDBRANCH   1  27
TORSDOF 16
ENDMDL
MODEL 4
REMARK VINA RESULT:      -6.9      2.832      6.630
REMARK  Name = 
REMARK  20 active torsions:
REMARK  status: ('A' for Active; 'I' for Inactive)
REMARK    1  A    between atoms: C_1  and  C_2
REMARK    2  A    between atoms: C_2  and  C_3
REMARK    3  A    between atoms: C_2  and  C_4
REMARK    4  A    between atoms: C_4  and  N_6
REMARK    5  A    between atoms: C_4  and  C_13
REMARK    6  A    between atoms: N_15  and  C_16
REMARK    7  A    between atoms: C_16  and  C_18
REMARK    8  A    between atoms: C_16  and  C_44
REMARK    9  A    between atoms: C_18  and  C_19
REMARK   10  A    between atoms: C_19  and  O_21
REMARK   11  A    between atoms: C_19  and  C_22
REMARK   12  A    between atoms: C_22  and  C_24
REMARK   13  A    between atoms: C_22  and  N_31
REMARK   14  A    between atoms: C_24  and  C_25
REMARK   15  A    between atoms: C_32  and  C_34
REMARK   16  A    between atoms: C_34  and  O_35
REMARK   17  A    between atoms: O_35  and  C_36
REMARK   18  A    between atoms: C_37  and  C_38
REMARK   19  A    between atoms: C_42  and  C_43
REMARK   20  A    between atoms: C_44  and  C_45
REMARK                            x       y       z     vdW  Elec       q    Type
REMARK                         _______ _______ _______ _____ _____    ______ ____
ROOT
ATOM      1  C   UNL     1       7.758  -1.817  26.613  0.00  0.00    +0.055 C 
ENDROOT
BRANCH   1   2
ATOM      2  C   UNL     1       8.827  -2.796  26.069  0.00  0.00    +0.137 C 
BRANCH   2   3
ATOM      3  O   UNL     1       9.354  -2.271  24.842  0.00  0.00    -0.390 OA
ATOM      4  H   UNL     1       9.149  -1.310  24.831  0.00  0.00    +0.210 HD
ENDBRANCH   2   3
BRANCH   2   5
ATOM      5  C   UNL     1       8.420  -4.288  25.856  0.00  0.00    +0.106 C 
BRANCH   5   6
ATOM      6  N   UNL     1       7.013  -4.522  26.213  0.00  0.00    -0.307 N 
ATOM      7  H   UNL     1       6.309  -4.174  25.571  0.00  0.00    +0.149 HD
ATOM      8  C   UNL     1       6.633  -5.365  27.247  0.00  0.00    +0.251 C 
ATOM      9  O   UNL     1       7.451  -5.950  27.959  0.00  0.00    -0.272 OA
BRANCH   8  10
ATOM     10  C   UNL     1       5.115  -5.504  27.431  0.00  0.00    +0.324 C 
BRANCH  10  11
ATOM     11  O   UNL     1       4.679  -6.745  26.911  0.00  0.00    -0.482 OA
BRANCH  11  12
ATOM     12  C   UNL     1       3.398  -6.973  26.488  0.00  0.00    +0.127 A 
ATOM     13  C   UNL     1       2.207  -7.046  27.238  0.00  0.00    -0.009 A 
ATOM     14  C   UNL     1       2.034  -6.727  28.697  0.00  0.00    +0.047 C 
ATOM     15  C   UNL     1       1.011  -7.433  26.585  0.00  0.00    +0.007 A 
ATOM     16  C   UNL     1       0.956  -7.649  25.215  0.00  0.00    +0.001 A 
ATOM     17  C   UNL     1       2.102  -7.471  24.460  0.00  0.00    +0.007 A 
ATOM     18  C   UNL     1       3.319  -7.136  25.079  0.00  0.00    -0.009 A 
ATOM     19  C   UNL     1       4.495  -6.883  24.167  0.00  0.00    +0.047 C 
ENDBRANCH  11  12
ENDBRANCH  10  11
ENDBRANCH   8  10
ENDBRANCH   5   6
BRANCH   5  20
ATOM     20  C   UNL     1       8.743  -4.904  24.471  0.00  0.00    +0.060 C 
BRANCH  20  21
ATOM     21  C   UNL     1       7.727  -4.898  23.350  0.00  0.00    -0.046 A 
ATOM     22  C   UNL     1       7.503  -6.050  22.581  0.00  0.00    +0.004 A 
ATOM     23  C   UNL     1       6.659  -6.011  21.469  0.00  0.00    +0.000 A 
ATOM     24  C   UNL     1       6.033  -4.819  21.106  0.00  0.00    +0.000 A 
ATOM     25  C   UNL     1       6.266  -3.662  21.847  0.00  0.00    +0.000 A 
ATOM     26  C   UNL     1       7.110  -3.701  22.960  0.00  0.00    +0.004 A 
ENDBRANCH  20  21
ENDBRANCH   5  20
ENDBRANCH   2   5
ENDBRANCH   1   2
BRANCH   1  27
ATOM     27  C   UNL     1       7.102  -0.698  25.734  0.00  0.00    +0.080 C 
BRANCH  27  29
ATOM     28  C   UNL     1       7.705   1.559  24.678  0.00  0.00    +0.234 C 
ATOM     29  N   UNL     1       7.971   0.238  24.962  0.00  0.00    -0.311 N 
ATOM     30  H   UNL     1       8.564  -0.227  24.288  0.00  0.00    +0.149 HD
ATOM     31  O   UNL     1       6.981   2.232  25.418  0.00  0.00    -0.274 OA
BRANCH  28  32
ATOM     32  C   UNL     1       8.463   2.237  23.472  0.00  0.00    +0.166 C 
BRANCH  32  33
ATOM     33  N   UNL     1       8.441   3.725  23.454  0.00  0.00    -0.274 N 
ATOM     34  C   UNL     1       7.626   4.361  22.532  0.00  0.00    +0.303 C 
ATOM     35  O   UNL     1       6.808   3.783  21.818  0.00  0.00    -0.253 OA
ATOM     36  N   UNL     1       7.825   5.694  22.360  0.00  0.00    -0.299 N 
ATOM     37  H   UNL     1       7.248   6.114  21.640  0.00  0.00    +0.150 HD
ATOM     38  C   UNL     1       8.673   6.517  23.174  0.00  0.00    +0.107 C 
ATOM     39  C   UNL     1       9.859   5.722  23.668  0.00  0.00    +0.038 C 
ATOM     40  C   UNL     1       9.311   4.478  24.350  0.00  0.00    +0.111 C 
ENDBRANCH  32  33
BRANCH  32  42
ATOM     41  C   UNL     1       9.863   0.689  21.913  0.00  0.00    +0.009 C 
ATOM     42  C   UNL     1       9.875   1.719  23.041  0.00  0.00    +0.012 C 
ATOM     43  C   UNL     1      10.789   1.257  24.181  0.00  0.00    +0.009 C 
ENDBRANCH  32  42
ENDBRANCH  28  32
ENDBRANCH  27  29
BRANCH  27  44
ATOM     44  C   UNL     1       5.944  -1.181  24.814  0.00  0.00    +0.057 C 
BRANCH  44  45
ATOM     45  C   UNL     1       4.784  -1.899  25.470  0.00  0.00    -0.046 A 
ATOM     46  C   UNL     1       4.313  -1.448  26.715  0.00  0.00    +0.004 A 
ATOM     47  C   UNL     1       3.147  -1.982  27.275  0.00  0.00    +0.000 A 
ATOM     48  C   UNL     1       2.460  -2.999  26.617  0.00  0.00    +0.000 A 
ATOM     49  C   UNL     1       2.969  -3.519  25.430  0.00  0.00    +0.000 A 
ATOM     50  C   UNL     1       4.135  -2.989  24.871  0.00  0.00    +0.004 A 
ENDBRANCH  44  45
ENDBRANCH  27  44
ENDBRANCH   1  27
TORSDOF 16
ENDMDL
MODEL 5
REMARK VINA RESULT:      -6.8      2.334      5.644
REMARK  Name = 
REMARK  20 active torsions:
REMARK  status: ('A' for Active; 'I' for Inactive)
REMARK    1  A    between atoms: C_1  and  C_2
REMARK    2  A    between atoms: C_2  and  C_3
REMARK    3  A    between atoms: C_2  and  C_4
REMARK    4  A    between atoms: C_4  and  N_6
REMARK    5  A    between atoms: C_4  and  C_13
REMARK    6  A    between atoms: N_15  and  C_16
REMARK    7  A    between atoms: C_16  and  C_18
REMARK    8  A    between atoms: C_16  and  C_44
REMARK    9  A    between atoms: C_18  and  C_19
REMARK   10  A    between atoms: C_19  and  O_21
REMARK   11  A    between atoms: C_19  and  C_22
REMARK   12  A    between atoms: C_22  and  C_24
REMARK   13  A    between atoms: C_22  and  N_31
REMARK   14  A    between atoms: C_24  and  C_25
REMARK   15  A    between atoms: C_32  and  C_34
REMARK   16  A    between atoms: C_34  and  O_35
REMARK   17  A    between atoms: O_35  and  C_36
REMARK   18  A    between atoms: C_37  and  C_38
REMARK   19  A    between atoms: C_42  and  C_43
REMARK   20  A    between atoms: C_44  and  C_45
REMARK                            x       y       z     vdW  Elec       q    Type
REMARK                         _______ _______ _______ _____ _____    ______ ____
ROOT
ATOM      1  C   UNL     1       5.045   1.243  27.098  0.00  0.00    +0.055 C 
ENDROOT
BRANCH   1   2
ATOM      2  C   UNL     1       6.297   0.382  27.395  0.00  0.00    +0.137 C 
BRANCH   2   3
ATOM      3  O   UNL     1       7.398   1.253  27.691  0.00  0.00    -0.390 OA
ATOM      4  H   UNL     1       8.133   0.685  28.011  0.00  0.00    +0.210 HD
ENDBRANCH   2   3
BRANCH   2   5
ATOM      5  C   UNL     1       6.742  -0.664  26.325  0.00  0.00    +0.106 C 
BRANCH   5   6
ATOM      6  N   UNL     1       5.940  -1.893  26.401  0.00  0.00    -0.307 N 
ATOM      7  H   UNL     1       4.994  -1.851  26.041  0.00  0.00    +0.149 HD
ATOM      8  C   UNL     1       6.487  -3.123  26.735  0.00  0.00    +0.251 C 
ATOM      9  O   UNL     1       7.677  -3.264  27.021  0.00  0.00    -0.272 OA
BRANCH   8  10
ATOM     10  C   UNL     1       5.489  -4.290  26.719  0.00  0.00    +0.324 C 
BRANCH  10  11
ATOM     11  O   UNL     1       5.758  -5.140  25.622  0.00  0.00    -0.482 OA
BRANCH  11  12
ATOM     12  C   UNL     1       6.169  -4.681  24.400  0.00  0.00    +0.127 A 
ATOM     13  C   UNL     1       7.465  -4.648  23.848  0.00  0.00    -0.009 A 
ATOM     14  C   UNL     1       8.710  -5.265  24.419  0.00  0.00    +0.047 C 
ATOM     15  C   UNL     1       7.662  -3.993  22.607  0.00  0.00    +0.007 A 
ATOM     16  C   UNL     1       6.605  -3.469  21.874  0.00  0.00    +0.001 A 
ATOM     17  C   UNL     1       5.318  -3.598  22.365  0.00  0.00    +0.007 A 
ATOM     18  C   UNL     1       5.089  -4.196  23.616  0.00  0.00    -0.009 A 
ATOM     19  C   UNL     1       3.647  -4.366  24.031  0.00  0.00    +0.047 C 
ENDBRANCH  11  12
ENDBRANCH  10  11
ENDBRANCH   8  10
ENDBRANCH   5   6
BRANCH   5  20
ATOM     20  C   UNL     1       6.835  -0.161  24.861  0.00  0.00    +0.060 C 
BRANCH  20  21
ATOM     21  C   UNL     1       7.969  -0.582  23.954  0.00  0.00    -0.046 A 
ATOM     22  C   UNL     1       9.088  -1.253  24.471  0.00  0.00    +0.004 A 
ATOM     23  C   UNL     1      10.190  -1.531  23.658  0.00  0.00    +0.000 A 
ATOM     24  C   UNL     1      10.192  -1.136  22.321  0.00  0.00    +0.000 A 
ATOM     25  C   UNL     1       9.097  -0.447  21.802  0.00  0.00    +0.000 A 
ATOM     26  C   UNL     1       7.995  -0.170  22.614  0.00  0.00    +0.004 A 
ENDBRANCH  20  21
ENDBRANCH   5  20
ENDBRANCH   2   5
ENDBRANCH   1   2
BRANCH   1  27
ATOM     27  C   UNL     1       5.129   2.744  26.651  0.00  0.00    +0.080 C 
BRANCH  27  29
ATOM     28  C   UNL     1       7.105   4.094  25.734  0.00  0.00    +0.234 C 
ATOM     29  N   UNL     1       6.114   3.147  25.605  0.00  0.00    -0.311 N 
ATOM     30  H   UNL     1       5.775   3.016  24.662  0.00  0.00    +0.149 HD
ATOM     31  O   UNL     1       7.592   4.354  26.838  0.00  0.00    -0.274 OA
BRANCH  28  32
ATOM     32  C   UNL     1       7.713   4.730  24.424  0.00  0.00    +0.166 C 
BRANCH  32  33
ATOM     33  N   UNL     1       9.135   4.392  24.146  0.00  0.00    -0.274 N 
ATOM     34  C   UNL     1      10.015   5.425  23.866  0.00  0.00    +0.303 C 
ATOM     35  O   UNL     1       9.737   6.618  23.971  0.00  0.00    -0.253 OA
ATOM     36  N   UNL     1      11.227   5.072  23.361  0.00  0.00    -0.299 N 
ATOM     37  H   UNL     1      11.823   5.855  23.118  0.00  0.00    +0.150 HD
ATOM     38  C   UNL     1      11.726   3.730  23.265  0.00  0.00    +0.107 C 
ATOM     39  C   UNL     1      10.592   2.763  23.018  0.00  0.00    +0.038 C 
ATOM     40  C   UNL     1       9.560   2.997  24.111  0.00  0.00    +0.111 C 
ENDBRANCH  32  33
BRANCH  32  42
ATOM     41  C   UNL     1       7.079   3.471  22.233  0.00  0.00    +0.009 C 
ATOM     42  C   UNL     1       6.892   4.721  23.092  0.00  0.00    +0.012 C 
ATOM     43  C   UNL     1       7.005   5.984  22.234  0.00  0.00    +0.009 C 
ENDBRANCH  32  42
ENDBRANCH  28  32
ENDBRANCH  27  29
BRANCH  27  44
ATOM     44  C   UNL     1       3.760   3.411  26.335  0.00  0.00    +0.057 C 
BRANCH  44  45
ATOM     45  C   UNL     1       3.522   3.876  24.913  0.00  0.00    -0.046 A 
ATOM     46  C   UNL     1       3.435   5.253  24.646  0.00  0.00    +0.004 A 
ATOM     47  C   UNL     1       3.378   5.724  23.331  0.00  0.00    +0.000 A 
ATOM     48  C   UNL     1       3.365   4.825  22.268  0.00  0.00    +0.000 A 
ATOM     49  C   UNL     1       3.355   3.456  22.522  0.00  0.00    +0.000 A 
ATOM     50  C   UNL     1       3.411   2.984  23.837  0.00  0.00    +0.004 A 
ENDBRANCH  44  45
ENDBRANCH  27  44
ENDBRANCH   1  27
TORSDOF 16
ENDMDL
MODEL 6
REMARK VINA RESULT:      -6.8      2.429      4.182
REMARK  Name = 
REMARK  20 active torsions:
REMARK  status: ('A' for Active; 'I' for Inactive)
REMARK    1  A    between atoms: C_1  and  C_2
REMARK    2  A    between atoms: C_2  and  C_3
REMARK    3  A    between atoms: C_2  and  C_4
REMARK    4  A    between atoms: C_4  and  N_6
REMARK    5  A    between atoms: C_4  and  C_13
REMARK    6  A    between atoms: N_15  and  C_16
REMARK    7  A    between atoms: C_16  and  C_18
REMARK    8  A    between atoms: C_16  and  C_44
REMARK    9  A    between atoms: C_18  and  C_19
REMARK   10  A    between atoms: C_19  and  O_21
REMARK   11  A    between atoms: C_19  and  C_22
REMARK   12  A    between atoms: C_22  and  C_24
REMARK   13  A    between atoms: C_22  and  N_31
REMARK   14  A    between atoms: C_24  and  C_25
REMARK   15  A    between atoms: C_32  and  C_34
REMARK   16  A    between atoms: C_34  and  O_35
REMARK   17  A    between atoms: O_35  and  C_36
REMARK   18  A    between atoms: C_37  and  C_38
REMARK   19  A    between atoms: C_42  and  C_43
REMARK   20  A    between atoms: C_44  and  C_45
REMARK                            x       y       z     vdW  Elec       q    Type
REMARK                         _______ _______ _______ _____ _____    ______ ____
ROOT
ATOM      1  C   UNL     1       6.445   1.251  27.096  0.00  0.00    +0.055 C 
ENDROOT
BRANCH   1   2
ATOM      2  C   UNL     1       5.670  -0.089  27.139  0.00  0.00    +0.137 C 
BRANCH   2   3
ATOM      3  O   UNL     1       4.815  -0.092  28.291  0.00  0.00    -0.390 OA
ATOM      4  H   UNL     1       4.826  -1.006  28.652  0.00  0.00    +0.210 HD
ENDBRANCH   2   3
BRANCH   2   5
ATOM      5  C   UNL     1       6.492  -1.417  27.105  0.00  0.00    +0.106 C 
BRANCH   5   6
ATOM      6  N   UNL     1       5.724  -2.513  26.498  0.00  0.00    -0.307 N 
ATOM      7  H   UNL     1       5.931  -2.744  25.533  0.00  0.00    +0.149 HD
ATOM      8  C   UNL     1       4.911  -3.358  27.240  0.00  0.00    +0.251 C 
ATOM      9  O   UNL     1       4.752  -3.227  28.454  0.00  0.00    -0.272 OA
BRANCH   8  10
ATOM     10  C   UNL     1       4.228  -4.464  26.424  0.00  0.00    +0.324 C 
BRANCH  10  11
ATOM     11  O   UNL     1       5.199  -5.355  25.911  0.00  0.00    -0.482 OA
BRANCH  11  12
ATOM     12  C   UNL     1       5.682  -5.285  24.633  0.00  0.00    +0.127 A 
ATOM     13  C   UNL     1       4.979  -5.230  23.413  0.00  0.00    -0.009 A 
ATOM     14  C   UNL     1       3.496  -5.075  23.228  0.00  0.00    +0.047 C 
ATOM     15  C   UNL     1       5.708  -5.301  22.200  0.00  0.00    +0.007 A 
ATOM     16  C   UNL     1       7.096  -5.326  22.175  0.00  0.00    +0.001 A 
ATOM     17  C   UNL     1       7.791  -5.269  23.370  0.00  0.00    +0.007 A 
ATOM     18  C   UNL     1       7.101  -5.249  24.595  0.00  0.00    -0.009 A 
ATOM     19  C   UNL     1       7.941  -5.105  25.842  0.00  0.00    +0.047 C 
ENDBRANCH  11  12
ENDBRANCH  10  11
ENDBRANCH   8  10
ENDBRANCH   5   6
BRANCH   5  20
ATOM     20  C   UNL     1       7.912  -1.337  26.490  0.00  0.00    +0.060 C 
BRANCH  20  21
ATOM     21  C   UNL     1       8.131  -1.440  24.997  0.00  0.00    -0.046 A 
ATOM     22  C   UNL     1       7.058  -1.293  24.105  0.00  0.00    +0.004 A 
ATOM     23  C   UNL     1       7.236  -1.512  22.736  0.00  0.00    +0.000 A 
ATOM     24  C   UNL     1       8.484  -1.887  22.243  0.00  0.00    +0.000 A 
ATOM     25  C   UNL     1       9.552  -2.060  23.121  0.00  0.00    +0.000 A 
ATOM     26  C   UNL     1       9.375  -1.840  24.490  0.00  0.00    +0.004 A 
ENDBRANCH  20  21
ENDBRANCH   5  20
ENDBRANCH   2   5
ENDBRANCH   1   2
BRANCH   1  27
ATOM     27  C   UNL     1       6.379   2.234  25.878  0.00  0.00    +0.080 C 
BRANCH  27  29
ATOM     28  C   UNL     1       4.110   3.202  25.177  0.00  0.00    +0.234 C 
ATOM     29  N   UNL     1       5.318   3.284  25.834  0.00  0.00    -0.311 N 
ATOM     30  H   UNL     1       5.676   4.222  25.943  0.00  0.00    +0.149 HD
ATOM     31  O   UNL     1       3.576   2.108  24.970  0.00  0.00    -0.274 OA
BRANCH  28  32
ATOM     32  C   UNL     1       3.351   4.540  24.830  0.00  0.00    +0.166 C 
BRANCH  32  33
ATOM     33  N   UNL     1       2.896   4.674  23.420  0.00  0.00    -0.274 N 
ATOM     34  C   UNL     1       3.723   5.325  22.519  0.00  0.00    +0.303 C 
ATOM     35  O   UNL     1       4.874   5.679  22.769  0.00  0.00    -0.253 OA
ATOM     36  N   UNL     1       3.175   5.663  21.323  0.00  0.00    -0.299 N 
ATOM     37  H   UNL     1       3.793   6.186  20.712  0.00  0.00    +0.150 HD
ATOM     38  C   UNL     1       1.884   5.246  20.855  0.00  0.00    +0.107 C 
ATOM     39  C   UNL     1       0.925   5.106  22.014  0.00  0.00    +0.038 C 
ATOM     40  C   UNL     1       1.581   4.180  23.027  0.00  0.00    +0.111 C 
ENDBRANCH  32  33
BRANCH  32  42
ATOM     41  C   UNL     1       2.136   6.618  25.826  0.00  0.00    +0.009 C 
ATOM     42  C   UNL     1       2.254   5.095  25.799  0.00  0.00    +0.012 C 
ATOM     43  C   UNL     1       2.281   4.533  27.224  0.00  0.00    +0.009 C 
ENDBRANCH  32  42
ENDBRANCH  28  32
ENDBRANCH  27  29
BRANCH  27  44
ATOM     44  C   UNL     1       7.738   2.879  25.480  0.00  0.00    +0.057 C 
BRANCH  44  45
ATOM     45  C   UNL     1       8.456   2.308  24.275  0.00  0.00    -0.046 A 
ATOM     46  C   UNL     1       7.786   2.249  23.041  0.00  0.00    +0.004 A 
ATOM     47  C   UNL     1       8.465   1.880  21.876  0.00  0.00    +0.000 A 
ATOM     48  C   UNL     1       9.810   1.526  21.935  0.00  0.00    +0.000 A 
ATOM     49  C   UNL     1      10.460   1.489  23.166  0.00  0.00    +0.000 A 
ATOM     50  C   UNL     1       9.782   1.856  24.332  0.00  0.00    +0.004 A 
ENDBRANCH  44  45
ENDBRANCH  27  44
ENDBRANCH   1  27
TORSDOF 16
ENDMDL
MODEL 7
REMARK VINA RESULT:      -6.7      3.013      9.466
REMARK  Name = 
REMARK  20 active torsions:
REMARK  status: ('A' for Active; 'I' for Inactive)
REMARK    1  A    between atoms: C_1  and  C_2
REMARK    2  A    between atoms: C_2  and  C_3
REMARK    3  A    between atoms: C_2  and  C_4
REMARK    4  A    between atoms: C_4  and  N_6
REMARK    5  A    between atoms: C_4  and  C_13
REMARK    6  A    between atoms: N_15  and  C_16
REMARK    7  A    between atoms: C_16  and  C_18
REMARK    8  A    between atoms: C_16  and  C_44
REMARK    9  A    between atoms: C_18  and  C_19
REMARK   10  A    between atoms: C_19  and  O_21
REMARK   11  A    between atoms: C_19  and  C_22
REMARK   12  A    between atoms: C_22  and  C_24
REMARK   13  A    between atoms: C_22  and  N_31
REMARK   14  A    between atoms: C_24  and  C_25
REMARK   15  A    between atoms: C_32  and  C_34
REMARK   16  A    between atoms: C_34  and  O_35
REMARK   17  A    between atoms: O_35  and  C_36
REMARK   18  A    between atoms: C_37  and  C_38
REMARK   19  A    between atoms: C_42  and  C_43
REMARK   20  A    between atoms: C_44  and  C_45
REMARK                            x       y       z     vdW  Elec       q    Type
REMARK                         _______ _______ _______ _____ _____    ______ ____
ROOT
ATOM      1  C   UNL     1       6.892  -1.352  26.207  0.00  0.00    +0.055 C 
ENDROOT
BRANCH   1   2
ATOM      2  C   UNL     1       5.534  -0.610  26.160  0.00  0.00    +0.137 C 
BRANCH   2   3
ATOM      3  O   UNL     1       4.493  -1.565  25.909  0.00  0.00    -0.390 OA
ATOM      4  H   UNL     1       3.687  -1.054  25.678  0.00  0.00    +0.210 HD
ENDBRANCH   2   3
BRANCH   2   5
ATOM      5  C   UNL     1       5.382   0.588  25.169  0.00  0.00    +0.106 C 
BRANCH   5   6
ATOM      6  N   UNL     1       5.663   1.873  25.825  0.00  0.00    -0.307 N 
ATOM      7  H   UNL     1       6.562   1.972  26.284  0.00  0.00    +0.149 HD
ATOM      8  C   UNL     1       4.860   2.991  25.654  0.00  0.00    +0.251 C 
ATOM      9  O   UNL     1       3.838   2.975  24.966  0.00  0.00    -0.272 OA
BRANCH   8  10
ATOM     10  C   UNL     1       5.349   4.246  26.393  0.00  0.00    +0.324 C 
BRANCH  10  11
ATOM     11  O   UNL     1       5.530   5.306  25.475  0.00  0.00    -0.482 OA
BRANCH  11  12
ATOM     12  C   UNL     1       6.754   5.680  24.993  0.00  0.00    +0.127 A 
ATOM     13  C   UNL     1       7.890   6.137  25.692  0.00  0.00    -0.009 A 
ATOM     14  C   UNL     1       8.083   6.173  27.181  0.00  0.00    +0.047 C 
ATOM     15  C   UNL     1       9.006   6.599  24.952  0.00  0.00    +0.007 A 
ATOM     16  C   UNL     1       9.054   6.527  23.567  0.00  0.00    +0.001 A 
ATOM     17  C   UNL     1       7.983   5.977  22.885  0.00  0.00    +0.007 A 
ATOM     18  C   UNL     1       6.837   5.555  23.580  0.00  0.00    -0.009 A 
ATOM     19  C   UNL     1       5.753   4.894  22.762  0.00  0.00    +0.047 C 
ENDBRANCH  11  12
ENDBRANCH  10  11
ENDBRANCH   8  10
ENDBRANCH   5   6
BRANCH   5  20
ATOM     20  C   UNL     1       6.151   0.479  23.828  0.00  0.00    +0.060 C 
BRANCH  20  21
ATOM     21  C   UNL     1       7.444   1.230  23.597  0.00  0.00    -0.046 A 
ATOM     22  C   UNL     1       8.294   1.538  24.670  0.00  0.00    +0.004 A 
ATOM     23  C   UNL     1       9.423   2.338  24.477  0.00  0.00    +0.000 A 
ATOM     24  C   UNL     1       9.713   2.847  23.213  0.00  0.00    +0.000 A 
ATOM     25  C   UNL     1       8.864   2.569  22.143  0.00  0.00    +0.000 A 
ATOM     26  C   UNL     1       7.735   1.768  22.335  0.00  0.00    +0.004 A 
ENDBRANCH  20  21
ENDBRANCH   5  20
ENDBRANCH   2   5
ENDBRANCH   1   2
BRANCH   1  27
ATOM     27  C   UNL     1       7.067  -2.839  25.744  0.00  0.00    +0.080 C 
BRANCH  27  29
ATOM     28  C   UNL     1       6.382  -5.243  26.316  0.00  0.00    +0.234 C 
ATOM     29  N   UNL     1       6.141  -3.887  26.266  0.00  0.00    -0.311 N 
ATOM     30  H   UNL     1       5.166  -3.635  26.195  0.00  0.00    +0.149 HD
ATOM     31  O   UNL     1       7.535  -5.678  26.389  0.00  0.00    -0.274 OA
BRANCH  28  32
ATOM     32  C   UNL     1       5.150  -6.221  26.429  0.00  0.00    +0.166 C 
BRANCH  32  33
ATOM     33  N   UNL     1       4.406  -6.171  27.717  0.00  0.00    -0.274 N 
ATOM     34  C   UNL     1       4.830  -6.982  28.756  0.00  0.00    +0.303 C 
ATOM     35  O   UNL     1       5.868  -7.641  28.739  0.00  0.00    -0.253 OA
ATOM     36  N   UNL     1       3.984  -7.112  29.812  0.00  0.00    -0.299 N 
ATOM     37  H   UNL     1       4.303  -7.755  30.527  0.00  0.00    +0.150 HD
ATOM     38  C   UNL     1       2.788  -6.345  30.015  0.00  0.00    +0.107 C 
ATOM     39  C   UNL     1       2.153  -6.001  28.688  0.00  0.00    +0.038 C 
ATOM     40  C   UNL     1       3.223  -5.327  27.842  0.00  0.00    +0.111 C 
ENDBRANCH  32  33
BRANCH  32  42
ATOM     41  C   UNL     1       3.332  -7.656  25.237  0.00  0.00    +0.009 C 
ATOM     42  C   UNL     1       4.146  -6.363  25.238  0.00  0.00    +0.012 C 
ATOM     43  C   UNL     1       4.725  -6.092  23.846  0.00  0.00    +0.009 C 
ENDBRANCH  32  42
ENDBRANCH  28  32
ENDBRANCH  27  29
BRANCH  27  44
ATOM     44  C   UNL     1       7.228  -3.034  24.209  0.00  0.00    +0.057 C 
BRANCH  44  45
ATOM     45  C   UNL     1       8.393  -2.339  23.535  0.00  0.00    -0.046 A 
ATOM     46  C   UNL     1       8.323  -2.058  22.160  0.00  0.00    +0.004 A 
ATOM     47  C   UNL     1       9.304  -1.279  21.539  0.00  0.00    +0.000 A 
ATOM     48  C   UNL     1      10.387  -0.805  22.274  0.00  0.00    +0.000 A 
ATOM     49  C   UNL     1      10.518  -1.156  23.615  0.00  0.00    +0.000 A 
ATOM     50  C   UNL     1       9.539  -1.936  24.237  0.00  0.00    +0.004 A 
ENDBRANCH  44  45
ENDBRANCH  27  44
ENDBRANCH   1  27
TORSDOF 16
ENDMDL
MODEL 8
REMARK VINA RESULT:      -6.6      3.306      7.373
REMARK  Name = 
REMARK  20 active torsions:
REMARK  status: ('A' for Active; 'I' for Inactive)
REMARK    1  A    between atoms: C_1  and  C_2
REMARK    2  A    between atoms: C_2  and  C_3
REMARK    3  A    between atoms: C_2  and  C_4
REMARK    4  A    between atoms: C_4  and  N_6
REMARK    5  A    between atoms: C_4  and  C_13
REMARK    6  A    between atoms: N_15  and  C_16
REMARK    7  A    between atoms: C_16  and  C_18
REMARK    8  A    between atoms: C_16  and  C_44
REMARK    9  A    between atoms: C_18  and  C_19
REMARK   10  A    between atoms: C_19  and  O_21
REMARK   11  A    between atoms: C_19  and  C_22
REMARK   12  A    between atoms: C_22  and  C_24
REMARK   13  A    between atoms: C_22  and  N_31
REMARK   14  A    between atoms: C_24  and  C_25
REMARK   15  A    between atoms: C_32  and  C_34
REMARK   16  A    between atoms: C_34  and  O_35
REMARK   17  A    between atoms: O_35  and  C_36
REMARK   18  A    between atoms: C_37  and  C_38
REMARK   19  A    between atoms: C_42  and  C_43
REMARK   20  A    between atoms: C_44  and  C_45
REMARK                            x       y       z     vdW  Elec       q    Type
REMARK                         _______ _______ _______ _____ _____    ______ ____
ROOT
ATOM      1  C   UNL     1       8.097  -0.503  26.942  0.00  0.00    +0.055 C 
ENDROOT
BRANCH   1   2
ATOM      2  C   UNL     1       7.123   0.688  27.118  0.00  0.00    +0.137 C 
BRANCH   2   3
ATOM      3  O   UNL     1       6.728   0.764  28.495  0.00  0.00    -0.390 OA
ATOM      4  H   UNL     1       7.092   1.604  28.851  0.00  0.00    +0.210 HD
ENDBRANCH   2   3
BRANCH   2   5
ATOM      5  C   UNL     1       5.850   0.739  26.215  0.00  0.00    +0.106 C 
BRANCH   5   6
ATOM      6  N   UNL     1       4.716   0.042  26.837  0.00  0.00    -0.307 N 
ATOM      7  H   UNL     1       4.152   0.570  27.493  0.00  0.00    +0.149 HD
ATOM      8  C   UNL     1       4.274  -1.201  26.406  0.00  0.00    +0.251 C 
ATOM      9  O   UNL     1       4.823  -1.819  25.493  0.00  0.00    -0.272 OA
BRANCH   8  10
ATOM     10  C   UNL     1       3.050  -1.739  27.161  0.00  0.00    +0.324 C 
BRANCH  10  11
ATOM     11  O   UNL     1       2.827  -3.092  26.816  0.00  0.00    -0.482 OA
BRANCH  11  12
ATOM     12  C   UNL     1       2.459  -4.047  27.723  0.00  0.00    +0.127 A 
ATOM     13  C   UNL     1       2.841  -4.196  29.071  0.00  0.00    -0.009 A 
ATOM     14  C   UNL     1       3.641  -3.229  29.898  0.00  0.00    +0.047 C 
ATOM     15  C   UNL     1       2.430  -5.355  29.774  0.00  0.00    +0.007 A 
ATOM     16  C   UNL     1       1.585  -6.300  29.207  0.00  0.00    +0.001 A 
ATOM     17  C   UNL     1       1.121  -6.100  27.919  0.00  0.00    +0.007 A 
ATOM     18  C   UNL     1       1.547  -4.987  27.173  0.00  0.00    -0.009 A 
ATOM     19  C   UNL     1       0.924  -4.809  25.809  0.00  0.00    +0.047 C 
ENDBRANCH  11  12
ENDBRANCH  10  11
ENDBRANCH   8  10
ENDBRANCH   5   6
BRANCH   5  20
ATOM     20  C   UNL     1       5.420   2.138  25.704  0.00  0.00    +0.060 C 
BRANCH  20  21
ATOM     21  C   UNL     1       6.180   2.842  24.601  0.00  0.00    -0.046 A 
ATOM     22  C   UNL     1       7.101   3.856  24.902  0.00  0.00    +0.004 A 
ATOM     23  C   UNL     1       7.710   4.591  23.881  0.00  0.00    +0.000 A 
ATOM     24  C   UNL     1       7.400   4.328  22.548  0.00  0.00    +0.000 A 
ATOM     25  C   UNL     1       6.468   3.340  22.237  0.00  0.00    +0.000 A 
ATOM     26  C   UNL     1       5.860   2.604  23.257  0.00  0.00    +0.004 A 
ENDBRANCH  20  21
ENDBRANCH   5  20
ENDBRANCH   2   5
ENDBRANCH   1   2
BRANCH   1  27
ATOM     27  C   UNL     1       8.294  -1.247  25.577  0.00  0.00    +0.080 C 
BRANCH  27  29
ATOM     28  C   UNL     1       8.312  -3.591  24.537  0.00  0.00    +0.234 C 
ATOM     29  N   UNL     1       7.836  -2.661  25.435  0.00  0.00    -0.311 N 
ATOM     30  H   UNL     1       6.879  -2.805  25.723  0.00  0.00    +0.149 HD
ATOM     31  O   UNL     1       9.464  -3.515  24.099  0.00  0.00    -0.274 OA
BRANCH  28  32
ATOM     32  C   UNL     1       7.408  -4.838  24.196  0.00  0.00    +0.166 C 
BRANCH  32  33
ATOM     33  N   UNL     1       6.543  -5.327  25.304  0.00  0.00    -0.274 N 
ATOM     34  C   UNL     1       7.138  -5.647  26.514  0.00  0.00    +0.303 C 
ATOM     35  O   UNL     1       8.316  -5.422  26.786  0.00  0.00    -0.253 OA
ATOM     36  N   UNL     1       6.375  -6.333  27.405  0.00  0.00    -0.299 N 
ATOM     37  H   UNL     1       6.860  -6.597  28.255  0.00  0.00    +0.150 HD
ATOM     38  C   UNL     1       4.970  -6.590  27.268  0.00  0.00    +0.107 C 
ATOM     39  C   UNL     1       4.604  -6.752  25.811  0.00  0.00    +0.038 C 
ATOM     40  C   UNL     1       5.114  -5.517  25.083  0.00  0.00    +0.111 C 
ENDBRANCH  32  33
BRANCH  32  42
ATOM     41  C   UNL     1       7.115  -5.962  21.865  0.00  0.00    +0.009 C 
ATOM     42  C   UNL     1       6.626  -4.895  22.843  0.00  0.00    +0.012 C 
ATOM     43  C   UNL     1       6.440  -3.554  22.126  0.00  0.00    +0.009 C 
ENDBRANCH  32  42
ENDBRANCH  28  32
ENDBRANCH  27  29
BRANCH  27  44
ATOM     44  C   UNL     1       7.843  -0.447  24.322  0.00  0.00    +0.057 C 
BRANCH  44  45
ATOM     45  C   UNL     1       8.858   0.475  23.679  0.00  0.00    -0.046 A 
ATOM     46  C   UNL     1       8.926   0.551  22.277  0.00  0.00    +0.004 A 
ATOM     47  C   UNL     1       9.735   1.504  21.652  0.00  0.00    +0.000 A 
ATOM     48  C   UNL     1      10.517   2.366  22.416  0.00  0.00    +0.000 A 
ATOM     49  C   UNL     1      10.531   2.238  23.803  0.00  0.00    +0.000 A 
ATOM     50  C   UNL     1       9.724   1.284  24.429  0.00  0.00    +0.004 A 
ENDBRANCH  44  45
ENDBRANCH  27  44
ENDBRANCH   1  27
TORSDOF 16
ENDMDL
MODEL 9
REMARK VINA RESULT:      -6.6      3.799      8.976
REMARK  Name = 
REMARK  20 active torsions:
REMARK  status: ('A' for Active; 'I' for Inactive)
REMARK    1  A    between atoms: C_1  and  C_2
REMARK    2  A    between atoms: C_2  and  C_3
REMARK    3  A    between atoms: C_2  and  C_4
REMARK    4  A    between atoms: C_4  and  N_6
REMARK    5  A    between atoms: C_4  and  C_13
REMARK    6  A    between atoms: N_15  and  C_16
REMARK    7  A    between atoms: C_16  and  C_18
REMARK    8  A    between atoms: C_16  and  C_44
REMARK    9  A    between atoms: C_18  and  C_19
REMARK   10  A    between atoms: C_19  and  O_21
REMARK   11  A    between atoms: C_19  and  C_22
REMARK   12  A    between atoms: C_22  and  C_24
REMARK   13  A    between atoms: C_22  and  N_31
REMARK   14  A    between atoms: C_24  and  C_25
REMARK   15  A    between atoms: C_32  and  C_34
REMARK   16  A    between atoms: C_34  and  O_35
REMARK   17  A    between atoms: O_35  and  C_36
REMARK   18  A    between atoms: C_37  and  C_38
REMARK   19  A    between atoms: C_42  and  C_43
REMARK   20  A    between atoms: C_44  and  C_45
REMARK                            x       y       z     vdW  Elec       q    Type
REMARK                         _______ _______ _______ _____ _____    ______ ____
ROOT
ATOM      1  C   UNL     1       7.344  -5.560  27.288  0.00  0.00    +0.055 C 
ENDROOT
BRANCH   1   2
ATOM      2  C   UNL     1       8.524  -5.089  26.402  0.00  0.00    +0.137 C 
BRANCH   2   3
ATOM      3  O   UNL     1       9.607  -4.684  27.251  0.00  0.00    -0.390 OA
ATOM      4  H   UNL     1      10.433  -4.788  26.729  0.00  0.00    +0.210 HD
ENDBRANCH   2   3
BRANCH   2   5
ATOM      5  C   UNL     1       8.252  -3.971  25.346  0.00  0.00    +0.106 C 
BRANCH   5   6
ATOM      6  N   UNL     1       8.847  -2.689  25.751  0.00  0.00    -0.307 N 
ATOM      7  H   UNL     1       9.851  -2.666  25.887  0.00  0.00    +0.149 HD
ATOM      8  C   UNL     1       8.135  -1.497  25.737  0.00  0.00    +0.251 C 
ATOM      9  O   UNL     1       6.948  -1.438  25.416  0.00  0.00    -0.272 OA
BRANCH   8  10
ATOM     10  C   UNL     1       8.949  -0.264  26.156  0.00  0.00    +0.324 C 
BRANCH  10  11
ATOM     11  O   UNL     1       9.830   0.108  25.115  0.00  0.00    -0.482 OA
BRANCH  11  12
ATOM     12  C   UNL     1       9.421   0.753  23.979  0.00  0.00    +0.127 A 
ATOM     13  C   UNL     1       8.836   2.026  23.835  0.00  0.00    -0.009 A 
ATOM     14  C   UNL     1       8.662   3.070  24.903  0.00  0.00    +0.047 C 
ATOM     15  C   UNL     1       8.368   2.422  22.558  0.00  0.00    +0.007 A 
ATOM     16  C   UNL     1       8.553   1.636  21.429  0.00  0.00    +0.001 A 
ATOM     17  C   UNL     1       9.225   0.433  21.550  0.00  0.00    +0.007 A 
ATOM     18  C   UNL     1       9.660  -0.017  22.809  0.00  0.00    -0.009 A 
ATOM     19  C   UNL     1      10.454  -1.300  22.832  0.00  0.00    +0.047 C 
ENDBRANCH  11  12
ENDBRANCH  10  11
ENDBRANCH   8  10
ENDBRANCH   5   6
BRANCH   5  20
ATOM     20  C   UNL     1       8.615  -4.303  23.877  0.00  0.00    +0.060 C 
BRANCH  20  21
ATOM     21  C   UNL     1       7.544  -4.567  22.842  0.00  0.00    -0.046 A 
ATOM     22  C   UNL     1       7.428  -5.829  22.238  0.00  0.00    +0.004 A 
ATOM     23  C   UNL     1       6.522  -6.038  21.195  0.00  0.00    +0.000 A 
ATOM     24  C   UNL     1       5.728  -4.989  20.736  0.00  0.00    +0.000 A 
ATOM     25  C   UNL     1       5.852  -3.725  21.310  0.00  0.00    +0.000 A 
ATOM     26  C   UNL     1       6.756  -3.515  22.354  0.00  0.00    +0.004 A 
ENDBRANCH  20  21
ENDBRANCH   5  20
ENDBRANCH   2   5
ENDBRANCH   1   2
BRANCH   1  27
ATOM     27  C   UNL     1       5.856  -5.561  26.795  0.00  0.00    +0.080 C 
BRANCH  27  29
ATOM     28  C   UNL     1       4.169  -4.268  28.228  0.00  0.00    +0.234 C 
ATOM     29  N   UNL     1       4.972  -4.402  27.117  0.00  0.00    -0.311 N 
ATOM     30  H   UNL     1       4.649  -3.903  26.301  0.00  0.00    +0.149 HD
ATOM     31  O   UNL     1       4.450  -4.841  29.285  0.00  0.00    -0.274 OA
BRANCH  28  32
ATOM     32  C   UNL     1       2.968  -3.248  28.169  0.00  0.00    +0.166 C 
BRANCH  32  33
ATOM     33  N   UNL     1       3.345  -1.820  27.990  0.00  0.00    -0.274 N 
ATOM     34  C   UNL     1       3.738  -1.393  26.732  0.00  0.00    +0.303 C 
ATOM     35  O   UNL     1       3.661  -2.079  25.715  0.00  0.00    -0.253 OA
ATOM     36  N   UNL     1       4.323  -0.169  26.659  0.00  0.00    -0.299 N 
ATOM     37  H   UNL     1       4.646   0.086  25.732  0.00  0.00    +0.150 HD
ATOM     38  C   UNL     1       4.402   0.778  27.734  0.00  0.00    +0.107 C 
ATOM     39  C   UNL     1       4.517   0.060  29.059  0.00  0.00    +0.038 C 
ATOM     40  C   UNL     1       3.356  -0.919  29.138  0.00  0.00    +0.111 C 
ENDBRANCH  32  33
BRANCH  32  42
ATOM     41  C   UNL     1       0.445  -2.796  27.703  0.00  0.00    +0.009 C 
ATOM     42  C   UNL     1       1.700  -3.575  27.312  0.00  0.00    +0.012 C 
ATOM     43  C   UNL     1       1.378  -5.063  27.145  0.00  0.00    +0.009 C 
ENDBRANCH  32  42
ENDBRANCH  28  32
ENDBRANCH  27  29
BRANCH  27  44
ATOM     44  C   UNL     1       5.661  -5.938  25.298  0.00  0.00    +0.057 C 
BRANCH  44  45
ATOM     45  C   UNL     1       4.247  -6.204  24.823  0.00  0.00    -0.046 A 
ATOM     46  C   UNL     1       3.638  -5.295  23.941  0.00  0.00    +0.004 A 
ATOM     47  C   UNL     1       2.401  -5.587  23.358  0.00  0.00    +0.000 A 
ATOM     48  C   UNL     1       1.740  -6.769  23.678  0.00  0.00    +0.000 A 
ATOM     49  C   UNL     1       2.289  -7.633  24.623  0.00  0.00    +0.000 A 
ATOM     50  C   UNL     1       3.524  -7.341  25.208  0.00  0.00    +0.004 A 
ENDBRANCH  44  45
ENDBRANCH  27  44
ENDBRANCH   1  27
TORSDOF 16
ENDMDL
