MODEL 1
REMARK VINA RESULT:      -4.7      0.000      0.000
REMARK  Name = 
REMARK  14 active torsions:
REMARK  status: ('A' for Active; 'I' for Inactive)
REMARK    1  A    between atoms: O_1  and  C_2
REMARK    2  A    between atoms: C_2  and  C_3
REMARK    3  A    between atoms: C_3  and  O_5
REMARK    4  A    between atoms: C_3  and  C_6
REMARK    5  A    between atoms: C_6  and  O_8
REMARK    6  A    between atoms: C_6  and  C_9
REMARK    7  A    between atoms: C_9  and  O_11
REMARK    8  A    between atoms: C_9  and  C_12
REMARK    9  A    between atoms: C_12  and  O_14
REMARK   10  A    between atoms: C_12  and  C_15
REMARK   11  A    between atoms: C_15  and  O_16
REMARK   12  A    between atoms: O_16  and  P_17
REMARK   13  A    between atoms: P_17  and  O_18
REMARK   14  A    between atoms: P_17  and  O_19
REMARK                            x       y       z     vdW  Elec       q    Type
REMARK                         _______ _______ _______ _____ _____    ______ ____
ROOT
ATOM      1  C   UNL     1       9.497  -1.941  23.325  0.00  0.00    +0.176 C 
ENDROOT
BRANCH   1   2
ATOM      2  O   UNL     1       9.176  -1.446  24.641  0.00  0.00    -0.386 OA
ATOM      3  H   UNL     1       8.550  -2.050  25.070  0.00  0.00    +0.210 HD
ENDBRANCH   1   2
BRANCH   1   4
ATOM      4  C   UNL     1      10.011  -0.781  22.422  0.00  0.00    +0.176 C 
BRANCH   4   5
ATOM      5  O   UNL     1       9.426  -0.862  21.106  0.00  0.00    -0.386 OA
ATOM      6  H   UNL     1       8.524  -1.211  21.173  0.00  0.00    +0.210 HD
ENDBRANCH   4   5
BRANCH   4   7
ATOM      7  C   UNL     1       9.735   0.612  23.025  0.00  0.00    +0.171 C 
BRANCH   7   8
ATOM      8  O   UNL     1       8.329   0.781  23.281  0.00  0.00    -0.387 OA
ATOM      9  H   UNL     1       7.887   0.389  22.500  0.00  0.00    +0.210 HD
ENDBRANCH   7   8
BRANCH   7  10
ATOM     10  C   UNL     1      10.221   1.760  22.139  0.00  0.00    +0.189 C 
BRANCH  10  11
ATOM     11  O   UNL     1       9.158   2.097  21.236  0.00  0.00    -0.392 OA
ATOM     12  H   UNL     1       8.331   2.025  21.742  0.00  0.00    +0.210 HD
ENDBRANCH  10  11
ENDBRANCH   7  10
ENDBRANCH   4   7
ENDBRANCH   1   4
BRANCH   1  13
ATOM     13  C   UNL     1       8.264  -2.641  22.720  0.00  0.00    +0.172 C 
BRANCH  13  14
ATOM     14  O   UNL     1       7.138  -1.741  22.733  0.00  0.00    -0.387 OA
ATOM     15  H   UNL     1       7.106  -1.386  23.643  0.00  0.00    +0.210 HD
ENDBRANCH  13  14
BRANCH  13  16
ATOM     16  C   UNL     1       7.854  -3.945  23.409  0.00  0.00    +0.206 C 
BRANCH  16  17
ATOM     17  O   UNL     1       9.012  -4.376  24.129  0.00  0.00    -0.284 OA
BRANCH  17  18
ATOM     18  P   UNL     1       8.817  -4.919  25.612  0.00  0.00    +0.472 P 
ATOM     19  O   UNL     1       7.707  -5.877  25.870  0.00  0.00    -0.228 OA
BRANCH  18  20
ATOM     20  O   UNL     1       8.891  -3.635  26.550  0.00  0.00    -0.303 OA
ATOM     21  H   UNL     1       9.232  -3.879  27.430  0.00  0.00    +0.222 HD
ENDBRANCH  18  20
BRANCH  18  22
ATOM     22  O   UNL     1      10.242  -5.566  25.939  0.00  0.00    -0.303 OA
ATOM     23  H   UNL     1      10.957  -5.027  25.550  0.00  0.00    +0.222 HD
ENDBRANCH  18  22
ENDBRANCH  17  18
ENDBRANCH  16  17
ENDBRANCH  13  16
ENDBRANCH   1  13
TORSDOF 14
ENDMDL
MODEL 2
REMARK VINA RESULT:      -4.6      2.363      3.009
REMARK  Name = 
REMARK  14 active torsions:
REMARK  status: ('A' for Active; 'I' for Inactive)
REMARK    1  A    between atoms: O_1  and  C_2
REMARK    2  A    between atoms: C_2  and  C_3
REMARK    3  A    between atoms: C_3  and  O_5
REMARK    4  A    between atoms: C_3  and  C_6
REMARK    5  A    between atoms: C_6  and  O_8
REMARK    6  A    between atoms: C_6  and  C_9
REMARK    7  A    between atoms: C_9  and  O_11
REMARK    8  A    between atoms: C_9  and  C_12
REMARK    9  A    between atoms: C_12  and  O_14
REMARK   10  A    between atoms: C_12  and  C_15
REMARK   11  A    between atoms: C_15  and  O_16
REMARK   12  A    between atoms: O_16  and  P_17
REMARK   13  A    between atoms: P_17  and  O_18
REMARK   14  A    between atoms: P_17  and  O_19
REMARK                            x       y       z     vdW  Elec       q    Type
REMARK                         _______ _______ _______ _____ _____    ______ ____
ROOT
ATOM      1  C   UNL     1       9.846  -0.870  24.195  0.00  0.00    +0.176 C 
ENDROOT
BRANCH   1   2
ATOM      2  O   UNL     1       8.613  -0.923  24.941  0.00  0.00    -0.386 OA
ATOM      3  H   UNL     1       7.936  -1.379  24.417  0.00  0.00    +0.210 HD
ENDBRANCH   1   2
BRANCH   1   4
ATOM      4  C   UNL     1       9.861   0.376  23.262  0.00  0.00    +0.176 C 
BRANCH   4   5
ATOM      5  O   UNL     1       8.609   0.499  22.557  0.00  0.00    -0.386 OA
ATOM      6  H   UNL     1       8.718   1.104  21.806  0.00  0.00    +0.210 HD
ENDBRANCH   4   5
BRANCH   4   7
ATOM      7  C   UNL     1      10.158   1.687  24.020  0.00  0.00    +0.171 C 
BRANCH   7   8
ATOM      8  O   UNL     1       9.237   1.856  25.113  0.00  0.00    -0.387 OA
ATOM      9  H   UNL     1       8.985   0.945  25.368  0.00  0.00    +0.210 HD
ENDBRANCH   7   8
BRANCH   7  10
ATOM     10  C   UNL     1      10.102   2.926  23.127  0.00  0.00    +0.189 C 
BRANCH  10  11
ATOM     11  O   UNL     1      10.411   2.516  21.788  0.00  0.00    -0.392 OA
ATOM     12  H   UNL     1      11.014   1.757  21.862  0.00  0.00    +0.210 HD
ENDBRANCH  10  11
ENDBRANCH   7  10
ENDBRANCH   4   7
ENDBRANCH   1   4
BRANCH   1  13
ATOM     13  C   UNL     1      10.031  -2.184  23.408  0.00  0.00    +0.172 C 
BRANCH  13  14
ATOM     14  O   UNL     1      10.374  -1.887  22.039  0.00  0.00    -0.387 OA
ATOM     15  H   UNL     1      10.874  -1.048  22.078  0.00  0.00    +0.210 HD
ENDBRANCH  13  14
BRANCH  13  16
ATOM     16  C   UNL     1       8.822  -3.122  23.417  0.00  0.00    +0.206 C 
BRANCH  16  17
ATOM     17  O   UNL     1       7.937  -2.612  22.416  0.00  0.00    -0.284 OA
BRANCH  17  18
ATOM     18  P   UNL     1       6.394  -2.471  22.779  0.00  0.00    +0.472 P 
ATOM     19  O   UNL     1       5.400  -3.143  21.897  0.00  0.00    -0.228 OA
BRANCH  18  20
ATOM     20  O   UNL     1       6.163  -0.923  23.073  0.00  0.00    -0.303 OA
ATOM     21  H   UNL     1       5.363  -0.609  22.615  0.00  0.00    +0.222 HD
ENDBRANCH  18  20
BRANCH  18  22
ATOM     22  O   UNL     1       6.332  -3.035  24.274  0.00  0.00    -0.303 OA
ATOM     23  H   UNL     1       6.992  -3.743  24.397  0.00  0.00    +0.222 HD
ENDBRANCH  18  22
ENDBRANCH  17  18
ENDBRANCH  16  17
ENDBRANCH  13  16
ENDBRANCH   1  13
TORSDOF 14
ENDMDL
MODEL 3
REMARK VINA RESULT:      -4.6      2.393      4.081
REMARK  Name = 
REMARK  14 active torsions:
REMARK  status: ('A' for Active; 'I' for Inactive)
REMARK    1  A    between atoms: O_1  and  C_2
REMARK    2  A    between atoms: C_2  and  C_3
REMARK    3  A    between atoms: C_3  and  O_5
REMARK    4  A    between atoms: C_3  and  C_6
REMARK    5  A    between atoms: C_6  and  O_8
REMARK    6  A    between atoms: C_6  and  C_9
REMARK    7  A    between atoms: C_9  and  O_11
REMARK    8  A    between atoms: C_9  and  C_12
REMARK    9  A    between atoms: C_12  and  O_14
REMARK   10  A    between atoms: C_12  and  C_15
REMARK   11  A    between atoms: C_15  and  O_16
REMARK   12  A    between atoms: O_16  and  P_17
REMARK   13  A    between atoms: P_17  and  O_18
REMARK   14  A    between atoms: P_17  and  O_19
REMARK                            x       y       z     vdW  Elec       q    Type
REMARK                         _______ _______ _______ _____ _____    ______ ____
ROOT
ATOM      1  C   UNL     1       9.855   1.624  23.473  0.00  0.00    +0.176 C 
ENDROOT
BRANCH   1   2
ATOM      2  O   UNL     1       8.486   1.458  23.899  0.00  0.00    -0.386 OA
ATOM      3  H   UNL     1       8.448   0.816  24.624  0.00  0.00    +0.210 HD
ENDBRANCH   1   2
BRANCH   1   4
ATOM      4  C   UNL     1      10.305   3.101  23.666  0.00  0.00    +0.176 C 
BRANCH   4   5
ATOM      5  O   UNL     1      11.106   3.539  22.549  0.00  0.00    -0.386 OA
ATOM      6  H   UNL     1      10.620   3.391  21.724  0.00  0.00    +0.210 HD
ENDBRANCH   4   5
BRANCH   4   7
ATOM      7  C   UNL     1       9.118   4.067  23.861  0.00  0.00    +0.171 C 
BRANCH   7   8
ATOM      8  O   UNL     1       8.321   4.133  22.666  0.00  0.00    -0.387 OA
ATOM      9  H   UNL     1       7.399   4.210  22.987  0.00  0.00    +0.210 HD
ENDBRANCH   7   8
BRANCH   7  10
ATOM     10  C   UNL     1       9.550   5.482  24.250  0.00  0.00    +0.189 C 
BRANCH  10  11
ATOM     11  O   UNL     1       9.906   6.178  23.048  0.00  0.00    -0.392 OA
ATOM     12  H   UNL     1      10.654   5.694  22.659  0.00  0.00    +0.210 HD
ENDBRANCH  10  11
ENDBRANCH   7  10
ENDBRANCH   4   7
ENDBRANCH   1   4
BRANCH   1  13
ATOM     13  C   UNL     1      10.001   1.160  22.009  0.00  0.00    +0.172 C 
BRANCH  13  14
ATOM     14  O   UNL     1       9.118   1.926  21.166  0.00  0.00    -0.387 OA
ATOM     15  H   UNL     1       9.687   2.602  20.748  0.00  0.00    +0.210 HD
ENDBRANCH  13  14
BRANCH  13  16
ATOM     16  C   UNL     1       9.736  -0.328  21.769  0.00  0.00    +0.206 C 
BRANCH  16  17
ATOM     17  O   UNL     1      10.198  -0.992  22.949  0.00  0.00    -0.284 OA
BRANCH  17  18
ATOM     18  P   UNL     1       9.343  -2.214  23.507  0.00  0.00    +0.472 P 
ATOM     19  O   UNL     1      10.071  -3.360  24.119  0.00  0.00    -0.228 OA
BRANCH  18  20
ATOM     20  O   UNL     1       8.292  -2.558  22.363  0.00  0.00    -0.303 OA
ATOM     21  H   UNL     1       8.558  -3.370  21.894  0.00  0.00    +0.222 HD
ENDBRANCH  18  20
BRANCH  18  22
ATOM     22  O   UNL     1       8.367  -1.508  24.557  0.00  0.00    -0.303 OA
ATOM     23  H   UNL     1       7.477  -1.905  24.514  0.00  0.00    +0.222 HD
ENDBRANCH  18  22
ENDBRANCH  17  18
ENDBRANCH  16  17
ENDBRANCH  13  16
ENDBRANCH   1  13
TORSDOF 14
ENDMDL
MODEL 4
REMARK VINA RESULT:      -4.6      1.454      2.334
REMARK  Name = 
REMARK  14 active torsions:
REMARK  status: ('A' for Active; 'I' for Inactive)
REMARK    1  A    between atoms: O_1  and  C_2
REMARK    2  A    between atoms: C_2  and  C_3
REMARK    3  A    between atoms: C_3  and  O_5
REMARK    4  A    between atoms: C_3  and  C_6
REMARK    5  A    between atoms: C_6  and  O_8
REMARK    6  A    between atoms: C_6  and  C_9
REMARK    7  A    between atoms: C_9  and  O_11
REMARK    8  A    between atoms: C_9  and  C_12
REMARK    9  A    between atoms: C_12  and  O_14
REMARK   10  A    between atoms: C_12  and  C_15
REMARK   11  A    between atoms: C_15  and  O_16
REMARK   12  A    between atoms: O_16  and  P_17
REMARK   13  A    between atoms: P_17  and  O_18
REMARK   14  A    between atoms: P_17  and  O_19
REMARK                            x       y       z     vdW  Elec       q    Type
REMARK                         _______ _______ _______ _____ _____    ______ ____
ROOT
ATOM      1  C   UNL     1       7.821  -1.369  24.119  0.00  0.00    +0.176 C 
ENDROOT
BRANCH   1   2
ATOM      2  O   UNL     1       7.348  -2.588  23.508  0.00  0.00    -0.386 OA
ATOM      3  H   UNL     1       7.873  -2.778  22.716  0.00  0.00    +0.210 HD
ENDBRANCH   1   2
BRANCH   1   4
ATOM      4  C   UNL     1       9.242  -1.016  23.591  0.00  0.00    +0.176 C 
BRANCH   4   5
ATOM      5  O   UNL     1      10.150  -2.117  23.796  0.00  0.00    -0.386 OA
ATOM      6  H   UNL     1      10.665  -1.966  24.604  0.00  0.00    +0.210 HD
ENDBRANCH   4   5
BRANCH   4   7
ATOM      7  C   UNL     1       9.243  -0.616  22.101  0.00  0.00    +0.171 C 
BRANCH   7   8
ATOM      8  O   UNL     1      10.073  -1.511  21.340  0.00  0.00    -0.387 OA
ATOM      9  H   UNL     1       9.591  -2.363  21.349  0.00  0.00    +0.210 HD
ENDBRANCH   7   8
BRANCH   7  10
ATOM     10  C   UNL     1       9.711   0.821  21.863  0.00  0.00    +0.189 C 
BRANCH  10  11
ATOM     11  O   UNL     1       8.816   1.423  20.918  0.00  0.00    -0.392 OA
ATOM     12  H   UNL     1       8.530   2.267  21.307  0.00  0.00    +0.210 HD
ENDBRANCH  10  11
ENDBRANCH   7  10
ENDBRANCH   4   7
ENDBRANCH   1   4
BRANCH   1  13
ATOM     13  C   UNL     1       7.794  -1.517  25.654  0.00  0.00    +0.172 C 
BRANCH  13  14
ATOM     14  O   UNL     1       9.009  -0.982  26.216  0.00  0.00    -0.387 OA
ATOM     15  H   UNL     1       8.863  -0.977  27.182  0.00  0.00    +0.210 HD
ENDBRANCH  13  14
BRANCH  13  16
ATOM     16  C   UNL     1       7.608  -2.947  26.166  0.00  0.00    +0.206 C 
BRANCH  16  17
ATOM     17  O   UNL     1       8.889  -3.569  26.032  0.00  0.00    -0.284 OA
BRANCH  17  18
ATOM     18  P   UNL     1       8.946  -5.062  25.482  0.00  0.00    +0.472 P 
ATOM     19  O   UNL     1       8.586  -5.300  24.057  0.00  0.00    -0.228 OA
BRANCH  18  20
ATOM     20  O   UNL     1       8.197  -5.948  26.572  0.00  0.00    -0.303 OA
ATOM     21  H   UNL     1       7.839  -5.381  27.279  0.00  0.00    +0.222 HD
ENDBRANCH  18  20
BRANCH  18  22
ATOM     22  O   UNL     1      10.456  -5.490  25.788  0.00  0.00    -0.303 OA
ATOM     23  H   UNL     1      10.932  -4.763  26.232  0.00  0.00    +0.222 HD
ENDBRANCH  18  22
ENDBRANCH  17  18
ENDBRANCH  16  17
ENDBRANCH  13  16
ENDBRANCH   1  13
TORSDOF 14
ENDMDL
MODEL 5
REMARK VINA RESULT:      -4.6      2.243      5.337
REMARK  Name = 
REMARK  14 active torsions:
REMARK  status: ('A' for Active; 'I' for Inactive)
REMARK    1  A    between atoms: O_1  and  C_2
REMARK    2  A    between atoms: C_2  and  C_3
REMARK    3  A    between atoms: C_3  and  O_5
REMARK    4  A    between atoms: C_3  and  C_6
REMARK    5  A    between atoms: C_6  and  O_8
REMARK    6  A    between atoms: C_6  and  C_9
REMARK    7  A    between atoms: C_9  and  O_11
REMARK    8  A    between atoms: C_9  and  C_12
REMARK    9  A    between atoms: C_12  and  O_14
REMARK   10  A    between atoms: C_12  and  C_15
REMARK   11  A    between atoms: C_15  and  O_16
REMARK   12  A    between atoms: O_16  and  P_17
REMARK   13  A    between atoms: P_17  and  O_18
REMARK   14  A    between atoms: P_17  and  O_19
REMARK                            x       y       z     vdW  Elec       q    Type
REMARK                         _______ _______ _______ _____ _____    ______ ____
ROOT
ATOM      1  C   UNL     1       8.276  -2.284  22.509  0.00  0.00    +0.176 C 
ENDROOT
BRANCH   1   2
ATOM      2  O   UNL     1       7.198  -1.490  23.046  0.00  0.00    -0.386 OA
ATOM      3  H   UNL     1       7.497  -1.039  23.850  0.00  0.00    +0.210 HD
ENDBRANCH   1   2
BRANCH   1   4
ATOM      4  C   UNL     1       9.001  -3.053  23.651  0.00  0.00    +0.176 C 
BRANCH   4   5
ATOM      5  O   UNL     1       9.356  -2.157  24.724  0.00  0.00    -0.386 OA
ATOM      6  H   UNL     1       8.585  -1.623  24.969  0.00  0.00    +0.210 HD
ENDBRANCH   4   5
BRANCH   4   7
ATOM      7  C   UNL     1       8.163  -4.222  24.210  0.00  0.00    +0.171 C 
BRANCH   7   8
ATOM      8  O   UNL     1       6.991  -3.725  24.882  0.00  0.00    -0.387 OA
ATOM      9  H   UNL     1       7.014  -2.757  24.736  0.00  0.00    +0.210 HD
ENDBRANCH   7   8
BRANCH   7  10
ATOM     10  C   UNL     1       8.944  -5.119  25.171  0.00  0.00    +0.189 C 
BRANCH  10  11
ATOM     11  O   UNL     1      10.334  -5.015  24.836  0.00  0.00    -0.392 OA
ATOM     12  H   UNL     1      10.715  -5.902  24.955  0.00  0.00    +0.210 HD
ENDBRANCH  10  11
ENDBRANCH   7  10
ENDBRANCH   4   7
ENDBRANCH   1   4
BRANCH   1  13
ATOM     13  C   UNL     1       9.242  -1.378  21.718  0.00  0.00    +0.172 C 
BRANCH  13  14
ATOM     14  O   UNL     1      10.603  -1.772  21.980  0.00  0.00    -0.387 OA
ATOM     15  H   UNL     1      11.048  -0.961  22.296  0.00  0.00    +0.210 HD
ENDBRANCH  13  14
BRANCH  13  16
ATOM     16  C   UNL     1       9.105   0.120  22.000  0.00  0.00    +0.206 C 
BRANCH  16  17
ATOM     17  O   UNL     1      10.137   0.427  22.942  0.00  0.00    -0.284 OA
BRANCH  17  18
ATOM     18  P   UNL     1       9.741   1.233  24.256  0.00  0.00    +0.472 P 
ATOM     19  O   UNL     1       9.773   2.721  24.204  0.00  0.00    -0.228 OA
BRANCH  18  20
ATOM     20  O   UNL     1      10.541   0.537  25.442  0.00  0.00    -0.303 OA
ATOM     21  H   UNL     1      10.451  -0.432  25.387  0.00  0.00    +0.222 HD
ENDBRANCH  18  20
BRANCH  18  22
ATOM     22  O   UNL     1       8.272   0.686  24.573  0.00  0.00    -0.303 OA
ATOM     23  H   UNL     1       7.793   0.500  23.744  0.00  0.00    +0.222 HD
ENDBRANCH  18  22
ENDBRANCH  17  18
ENDBRANCH  16  17
ENDBRANCH  13  16
ENDBRANCH   1  13
TORSDOF 14
ENDMDL
MODEL 6
REMARK VINA RESULT:      -4.6      1.371      2.390
REMARK  Name = 
REMARK  14 active torsions:
REMARK  status: ('A' for Active; 'I' for Inactive)
REMARK    1  A    between atoms: O_1  and  C_2
REMARK    2  A    between atoms: C_2  and  C_3
REMARK    3  A    between atoms: C_3  and  O_5
REMARK    4  A    between atoms: C_3  and  C_6
REMARK    5  A    between atoms: C_6  and  O_8
REMARK    6  A    between atoms: C_6  and  C_9
REMARK    7  A    between atoms: C_9  and  O_11
REMARK    8  A    between atoms: C_9  and  C_12
REMARK    9  A    between atoms: C_12  and  O_14
REMARK   10  A    between atoms: C_12  and  C_15
REMARK   11  A    between atoms: C_15  and  O_16
REMARK   12  A    between atoms: O_16  and  P_17
REMARK   13  A    between atoms: P_17  and  O_18
REMARK   14  A    between atoms: P_17  and  O_19
REMARK                            x       y       z     vdW  Elec       q    Type
REMARK                         _______ _______ _______ _____ _____    ______ ____
ROOT
ATOM      1  C   UNL     1      10.190  -0.081  23.549  0.00  0.00    +0.176 C 
ENDROOT
BRANCH   1   2
ATOM      2  O   UNL     1      10.261  -0.391  24.956  0.00  0.00    -0.386 OA
ATOM      3  H   UNL     1       9.365  -0.445  25.321  0.00  0.00    +0.210 HD
ENDBRANCH   1   2
BRANCH   1   4
ATOM      4  C   UNL     1       8.936   0.792  23.250  0.00  0.00    +0.176 C 
BRANCH   4   5
ATOM      5  O   UNL     1       8.141   0.966  24.440  0.00  0.00    -0.386 OA
ATOM      6  H   UNL     1       7.230   0.684  24.265  0.00  0.00    +0.210 HD
ENDBRANCH   4   5
BRANCH   4   7
ATOM      7  C   UNL     1       9.296   2.172  22.662  0.00  0.00    +0.171 C 
BRANCH   7   8
ATOM      8  O   UNL     1      10.048   2.021  21.445  0.00  0.00    -0.387 OA
ATOM      9  H   UNL     1       9.636   2.652  20.819  0.00  0.00    +0.210 HD
ENDBRANCH   7   8
BRANCH   7  10
ATOM     10  C   UNL     1      10.087   3.052  23.630  0.00  0.00    +0.189 C 
BRANCH  10  11
ATOM     11  O   UNL     1      11.153   3.667  22.893  0.00  0.00    -0.392 OA
ATOM     12  H   UNL     1      11.579   4.299  23.497  0.00  0.00    +0.210 HD
ENDBRANCH  10  11
ENDBRANCH   7  10
ENDBRANCH   4   7
ENDBRANCH   1   4
BRANCH   1  13
ATOM     13  C   UNL     1      10.194  -1.388  22.731  0.00  0.00    +0.172 C 
BRANCH  13  14
ATOM     14  O   UNL     1       9.862  -1.104  21.357  0.00  0.00    -0.387 OA
ATOM     15  H   UNL     1      10.201  -0.201  21.195  0.00  0.00    +0.210 HD
ENDBRANCH  13  14
BRANCH  13  16
ATOM     16  C   UNL     1       9.252  -2.479  23.245  0.00  0.00    +0.206 C 
BRANCH  16  17
ATOM     17  O   UNL     1      10.043  -3.284  24.124  0.00  0.00    -0.284 OA
BRANCH  17  18
ATOM     18  P   UNL     1       9.308  -4.400  24.988  0.00  0.00    +0.472 P 
ATOM     19  O   UNL     1       8.399  -3.958  26.080  0.00  0.00    -0.228 OA
BRANCH  18  20
ATOM     20  O   UNL     1      10.437  -5.454  25.374  0.00  0.00    -0.303 OA
ATOM     21  H   UNL     1      10.652  -6.015  24.607  0.00  0.00    +0.222 HD
ENDBRANCH  18  20
BRANCH  18  22
ATOM     22  O   UNL     1       8.528  -5.245  23.877  0.00  0.00    -0.303 OA
ATOM     23  H   UNL     1       7.838  -5.796  24.293  0.00  0.00    +0.222 HD
ENDBRANCH  18  22
ENDBRANCH  17  18
ENDBRANCH  16  17
ENDBRANCH  13  16
ENDBRANCH   1  13
TORSDOF 14
ENDMDL
MODEL 7
REMARK VINA RESULT:      -4.5      2.477      3.423
REMARK  Name = 
REMARK  14 active torsions:
REMARK  status: ('A' for Active; 'I' for Inactive)
REMARK    1  A    between atoms: O_1  and  C_2
REMARK    2  A    between atoms: C_2  and  C_3
REMARK    3  A    between atoms: C_3  and  O_5
REMARK    4  A    between atoms: C_3  and  C_6
REMARK    5  A    between atoms: C_6  and  O_8
REMARK    6  A    between atoms: C_6  and  C_9
REMARK    7  A    between atoms: C_9  and  O_11
REMARK    8  A    between atoms: C_9  and  C_12
REMARK    9  A    between atoms: C_12  and  O_14
REMARK   10  A    between atoms: C_12  and  C_15
REMARK   11  A    between atoms: C_15  and  O_16
REMARK   12  A    between atoms: O_16  and  P_17
REMARK   13  A    between atoms: P_17  and  O_18
REMARK   14  A    between atoms: P_17  and  O_19
REMARK                            x       y       z     vdW  Elec       q    Type
REMARK                         _______ _______ _______ _____ _____    ______ ____
ROOT
ATOM      1  C   UNL     1       8.299  -2.573  23.619  0.00  0.00    +0.176 C 
ENDROOT
BRANCH   1   2
ATOM      2  O   UNL     1       7.884  -2.750  22.248  0.00  0.00    -0.386 OA
ATOM      3  H   UNL     1       8.300  -2.072  21.694  0.00  0.00    +0.210 HD
ENDBRANCH   1   2
BRANCH   1   4
ATOM      4  C   UNL     1       9.621  -1.755  23.683  0.00  0.00    +0.176 C 
BRANCH   4   5
ATOM      5  O   UNL     1      10.604  -2.304  22.781  0.00  0.00    -0.386 OA
ATOM      6  H   UNL     1      10.538  -1.862  21.921  0.00  0.00    +0.210 HD
ENDBRANCH   4   5
BRANCH   4   7
ATOM      7  C   UNL     1       9.413  -0.259  23.370  0.00  0.00    +0.171 C 
BRANCH   7   8
ATOM      8  O   UNL     1       8.010   0.060  23.343  0.00  0.00    -0.387 OA
ATOM      9  H   UNL     1       7.979   1.038  23.317  0.00  0.00    +0.210 HD
ENDBRANCH   7   8
BRANCH   7  10
ATOM     10  C   UNL     1      10.048   0.176  22.049  0.00  0.00    +0.189 C 
BRANCH  10  11
ATOM     11  O   UNL     1       9.428  -0.576  20.996  0.00  0.00    -0.392 OA
ATOM     12  H   UNL     1       9.713  -0.169  20.160  0.00  0.00    +0.210 HD
ENDBRANCH  10  11
ENDBRANCH   7  10
ENDBRANCH   4   7
ENDBRANCH   1   4
BRANCH   1  13
ATOM     13  C   UNL     1       8.438  -3.951  24.298  0.00  0.00    +0.172 C 
BRANCH  13  14
ATOM     14  O   UNL     1       9.831  -4.244  24.524  0.00  0.00    -0.387 OA
ATOM     15  H   UNL     1       9.848  -4.798  25.329  0.00  0.00    +0.210 HD
ENDBRANCH  13  14
BRANCH  13  16
ATOM     16  C   UNL     1       7.812  -5.119  23.532  0.00  0.00    +0.206 C 
BRANCH  16  17
ATOM     17  O   UNL     1       6.398  -4.917  23.618  0.00  0.00    -0.284 OA
BRANCH  17  18
ATOM     18  P   UNL     1       5.483  -5.503  22.456  0.00  0.00    +0.472 P 
ATOM     19  O   UNL     1       4.011  -5.551  22.676  0.00  0.00    -0.228 OA
BRANCH  18  20
ATOM     20  O   UNL     1       6.186  -6.856  21.999  0.00  0.00    -0.303 OA
ATOM     21  H   UNL     1       6.081  -7.540  22.686  0.00  0.00    +0.222 HD
ENDBRANCH  18  20
BRANCH  18  22
ATOM     22  O   UNL     1       5.862  -4.576  21.210  0.00  0.00    -0.303 OA
ATOM     23  H   UNL     1       5.470  -4.932  20.390  0.00  0.00    +0.222 HD
ENDBRANCH  18  22
ENDBRANCH  17  18
ENDBRANCH  16  17
ENDBRANCH  13  16
ENDBRANCH   1  13
TORSDOF 14
ENDMDL
MODEL 8
REMARK VINA RESULT:      -4.5      2.508      5.857
REMARK  Name = 
REMARK  14 active torsions:
REMARK  status: ('A' for Active; 'I' for Inactive)
REMARK    1  A    between atoms: O_1  and  C_2
REMARK    2  A    between atoms: C_2  and  C_3
REMARK    3  A    between atoms: C_3  and  O_5
REMARK    4  A    between atoms: C_3  and  C_6
REMARK    5  A    between atoms: C_6  and  O_8
REMARK    6  A    between atoms: C_6  and  C_9
REMARK    7  A    between atoms: C_9  and  O_11
REMARK    8  A    between atoms: C_9  and  C_12
REMARK    9  A    between atoms: C_12  and  O_14
REMARK   10  A    between atoms: C_12  and  C_15
REMARK   11  A    between atoms: C_15  and  O_16
REMARK   12  A    between atoms: O_16  and  P_17
REMARK   13  A    between atoms: P_17  and  O_18
REMARK   14  A    between atoms: P_17  and  O_19
REMARK                            x       y       z     vdW  Elec       q    Type
REMARK                         _______ _______ _______ _____ _____    ______ ____
ROOT
ATOM      1  C   UNL     1       8.518  -1.346  23.378  0.00  0.00    +0.176 C 
ENDROOT
BRANCH   1   2
ATOM      2  O   UNL     1       9.546  -0.975  24.320  0.00  0.00    -0.386 OA
ATOM      3  H   UNL     1      10.330  -0.668  23.840  0.00  0.00    +0.210 HD
ENDBRANCH   1   2
BRANCH   1   4
ATOM      4  C   UNL     1       8.021  -2.793  23.663  0.00  0.00    +0.176 C 
BRANCH   4   5
ATOM      5  O   UNL     1       7.872  -3.532  22.433  0.00  0.00    -0.386 OA
ATOM      6  H   UNL     1       8.683  -4.033  22.256  0.00  0.00    +0.210 HD
ENDBRANCH   4   5
BRANCH   4   7
ATOM      7  C   UNL     1       8.950  -3.566  24.621  0.00  0.00    +0.171 C 
BRANCH   7   8
ATOM      8  O   UNL     1      10.298  -3.573  24.119  0.00  0.00    -0.387 OA
ATOM      9  H   UNL     1      10.645  -2.681  24.326  0.00  0.00    +0.210 HD
ENDBRANCH   7   8
BRANCH   7  10
ATOM     10  C   UNL     1       8.502  -5.008  24.864  0.00  0.00    +0.189 C 
BRANCH  10  11
ATOM     11  O   UNL     1       9.652  -5.854  24.724  0.00  0.00    -0.392 OA
ATOM     12  H   UNL     1       9.592  -6.522  25.429  0.00  0.00    +0.210 HD
ENDBRANCH  10  11
ENDBRANCH   7  10
ENDBRANCH   4   7
ENDBRANCH   1   4
BRANCH   1  13
ATOM     13  C   UNL     1       9.055  -1.191  21.940  0.00  0.00    +0.172 C 
BRANCH  13  14
ATOM     14  O   UNL     1      10.350  -1.814  21.835  0.00  0.00    -0.387 OA
ATOM     15  H   UNL     1      10.832  -1.289  21.166  0.00  0.00    +0.210 HD
ENDBRANCH  13  14
BRANCH  13  16
ATOM     16  C   UNL     1       9.164   0.251  21.440  0.00  0.00    +0.206 C 
BRANCH  16  17
ATOM     17  O   UNL     1       8.666   1.064  22.506  0.00  0.00    -0.284 OA
BRANCH  17  18
ATOM     18  P   UNL     1       9.488   2.367  22.905  0.00  0.00    +0.472 P 
ATOM     19  O   UNL     1       8.728   3.578  23.321  0.00  0.00    -0.228 OA
BRANCH  18  20
ATOM     20  O   UNL     1      10.572   2.558  21.755  0.00  0.00    -0.303 OA
ATOM     21  H   UNL     1      10.728   1.713  21.294  0.00  0.00    +0.222 HD
ENDBRANCH  18  20
BRANCH  18  22
ATOM     22  O   UNL     1      10.439   1.837  24.077  0.00  0.00    -0.303 OA
ATOM     23  H   UNL     1      10.956   1.067  23.772  0.00  0.00    +0.222 HD
ENDBRANCH  18  22
ENDBRANCH  17  18
ENDBRANCH  16  17
ENDBRANCH  13  16
ENDBRANCH   1  13
TORSDOF 14
ENDMDL
MODEL 9
REMARK VINA RESULT:      -4.5      2.193      2.923
REMARK  Name = 
REMARK  14 active torsions:
REMARK  status: ('A' for Active; 'I' for Inactive)
REMARK    1  A    between atoms: O_1  and  C_2
REMARK    2  A    between atoms: C_2  and  C_3
REMARK    3  A    between atoms: C_3  and  O_5
REMARK    4  A    between atoms: C_3  and  C_6
REMARK    5  A    between atoms: C_6  and  O_8
REMARK    6  A    between atoms: C_6  and  C_9
REMARK    7  A    between atoms: C_9  and  O_11
REMARK    8  A    between atoms: C_9  and  C_12
REMARK    9  A    between atoms: C_12  and  O_14
REMARK   10  A    between atoms: C_12  and  C_15
REMARK   11  A    between atoms: C_15  and  O_16
REMARK   12  A    between atoms: O_16  and  P_17
REMARK   13  A    between atoms: P_17  and  O_18
REMARK   14  A    between atoms: P_17  and  O_19
REMARK                            x       y       z     vdW  Elec       q    Type
REMARK                         _______ _______ _______ _____ _____    ______ ____
ROOT
ATOM      1  C   UNL     1       9.399  -2.082  23.416  0.00  0.00    +0.176 C 
ENDROOT
BRANCH   1   2
ATOM      2  O   UNL     1       8.962  -1.601  24.705  0.00  0.00    -0.386 OA
ATOM      3  H   UNL     1       8.208  -1.004  24.589  0.00  0.00    +0.210 HD
ENDBRANCH   1   2
BRANCH   1   4
ATOM      4  C   UNL     1       9.950  -0.905  22.559  0.00  0.00    +0.176 C 
BRANCH   4   5
ATOM      5  O   UNL     1       9.480  -1.003  21.198  0.00  0.00    -0.386 OA
ATOM      6  H   UNL     1       9.634  -1.901  20.866  0.00  0.00    +0.210 HD
ENDBRANCH   4   5
BRANCH   4   7
ATOM      7  C   UNL     1       9.581   0.478  23.135  0.00  0.00    +0.171 C 
BRANCH   7   8
ATOM      8  O   UNL     1       8.155   0.669  23.111  0.00  0.00    -0.387 OA
ATOM      9  H   UNL     1       7.874   0.329  22.237  0.00  0.00    +0.210 HD
ENDBRANCH   7   8
BRANCH   7  10
ATOM     10  C   UNL     1      10.251   1.637  22.396  0.00  0.00    +0.189 C 
BRANCH  10  11
ATOM     11  O   UNL     1       9.428   1.974  21.271  0.00  0.00    -0.392 OA
ATOM     12  H   UNL     1       9.489   2.939  21.162  0.00  0.00    +0.210 HD
ENDBRANCH  10  11
ENDBRANCH   7  10
ENDBRANCH   4   7
ENDBRANCH   1   4
BRANCH   1  13
ATOM     13  C   UNL     1       8.235  -2.813  22.716  0.00  0.00    +0.172 C 
BRANCH  13  14
ATOM     14  O   UNL     1       7.092  -1.939  22.630  0.00  0.00    -0.387 OA
ATOM     15  H   UNL     1       6.320  -2.510  22.810  0.00  0.00    +0.210 HD
ENDBRANCH  13  14
BRANCH  13  16
ATOM     16  C   UNL     1       7.799  -4.123  23.376  0.00  0.00    +0.206 C 
BRANCH  16  17
ATOM     17  O   UNL     1       7.473  -5.004  22.298  0.00  0.00    -0.284 OA
BRANCH  17  18
ATOM     18  P   UNL     1       5.936  -5.245  21.963  0.00  0.00    +0.472 P 
ATOM     19  O   UNL     1       4.981  -4.127  22.199  0.00  0.00    -0.228 OA
BRANCH  18  20
ATOM     20  O   UNL     1       5.572  -6.651  22.615  0.00  0.00    -0.303 OA
ATOM     21  H   UNL     1       6.380  -7.178  22.754  0.00  0.00    +0.222 HD
ENDBRANCH  18  20
BRANCH  18  22
ATOM     22  O   UNL     1       5.975  -5.671  20.423  0.00  0.00    -0.303 OA
ATOM     23  H   UNL     1       5.306  -6.358  20.244  0.00  0.00    +0.222 HD
ENDBRANCH  18  22
ENDBRANCH  17  18
ENDBRANCH  16  17
ENDBRANCH  13  16
ENDBRANCH   1  13
TORSDOF 14
ENDMDL
