MODEL 1
REMARK VINA RESULT:      -5.2      0.000      0.000
REMARK  Name = 
REMARK  8 active torsions:
REMARK  status: ('A' for Active; 'I' for Inactive)
REMARK    1  A    between atoms: O_1  and  C_2
REMARK    2  A    between atoms: C_5  and  C_7
REMARK    3  A    between atoms: C_7  and  O_8
REMARK    4  A    between atoms: O_8  and  P_9
REMARK    5  A    between atoms: P_9  and  O_10
REMARK    6  A    between atoms: P_9  and  O_11
REMARK    7  A    between atoms: C_13  and  O_15
REMARK    8  A    between atoms: C_16  and  O_18
REMARK                            x       y       z     vdW  Elec       q    Type
REMARK                         _______ _______ _______ _____ _____    ______ ____
ROOT
ATOM      1  C   UNL     1       9.131   0.177  22.229  0.00  0.00    +0.279 C 
ATOM      2  C   UNL     1       8.720   0.698  23.613  0.00  0.00    +0.201 C 
ATOM      3  C   UNL     1       9.489  -0.184  24.593  0.00  0.00    +0.179 C 
ATOM      4  C   UNL     1      10.145  -1.256  23.722  0.00  0.00    +0.179 C 
ATOM      5  O   UNL     1      10.270  -0.658  22.415  0.00  0.00    -0.341 OA
ENDROOT
BRANCH   1   6
ATOM      6  O   UNL     1       9.485   1.237  21.359  0.00  0.00    -0.365 OA
ATOM      7  H   UNL     1      10.427   1.393  21.534  0.00  0.00    +0.213 HD
ENDBRANCH   1   6
BRANCH   2   8
ATOM      8  O   UNL     1       7.312   0.556  23.817  0.00  0.00    -0.384 OA
ATOM      9  H   UNL     1       6.879   0.989  23.058  0.00  0.00    +0.210 HD
ENDBRANCH   2   8
BRANCH   3  10
ATOM     10  O   UNL     1      10.486   0.602  25.257  0.00  0.00    -0.386 OA
ATOM     11  H   UNL     1      10.044   1.112  25.961  0.00  0.00    +0.210 HD
ENDBRANCH   3  10
BRANCH   4  12
ATOM     12  C   UNL     1       9.300  -2.533  23.630  0.00  0.00    +0.206 C 
BRANCH  12  13
ATOM     13  O   UNL     1      10.035  -3.617  24.195  0.00  0.00    -0.284 OA
BRANCH  13  14
ATOM     14  P   UNL     1       9.099  -4.673  25.195  0.00  0.00    +0.472 P 
ATOM     15  O   UNL     1       8.260  -5.617  26.090  0.00  0.00    -0.228 OA
BRANCH  14  16
ATOM     16  O   UNL     1      10.448  -5.569  25.401  0.00  0.00    -0.303 OA
ATOM     17  H   UNL     1      10.366  -5.949  26.299  0.00  0.00    +0.222 HD
ENDBRANCH  14  16
BRANCH  14  18
ATOM     18  O   UNL     1       8.593  -5.351  23.791  0.00  0.00    -0.303 OA
ATOM     19  H   UNL     1       8.678  -6.320  23.814  0.00  0.00    +0.222 HD
ENDBRANCH  14  18
ENDBRANCH  13  14
ENDBRANCH  12  13
ENDBRANCH   4  12
TORSDOF 8
ENDMDL
MODEL 2
REMARK VINA RESULT:      -5.2      2.707      5.586
REMARK  Name = 
REMARK  8 active torsions:
REMARK  status: ('A' for Active; 'I' for Inactive)
REMARK    1  A    between atoms: O_1  and  C_2
REMARK    2  A    between atoms: C_5  and  C_7
REMARK    3  A    between atoms: C_7  and  O_8
REMARK    4  A    between atoms: O_8  and  P_9
REMARK    5  A    between atoms: P_9  and  O_10
REMARK    6  A    between atoms: P_9  and  O_11
REMARK    7  A    between atoms: C_13  and  O_15
REMARK    8  A    between atoms: C_16  and  O_18
REMARK                            x       y       z     vdW  Elec       q    Type
REMARK                         _______ _______ _______ _____ _____    ______ ____
ROOT
ATOM      1  C   UNL     1       9.021  -5.096  25.307  0.00  0.00    +0.279 C 
ATOM      2  C   UNL     1       7.727  -5.171  26.129  0.00  0.00    +0.201 C 
ATOM      3  C   UNL     1       6.619  -4.881  25.119  0.00  0.00    +0.179 C 
ATOM      4  C   UNL     1       7.354  -4.488  23.837  0.00  0.00    +0.179 C 
ATOM      5  O   UNL     1       8.648  -5.118  23.934  0.00  0.00    -0.341 OA
ENDROOT
BRANCH   1   6
ATOM      6  O   UNL     1       9.864  -6.203  25.565  0.00  0.00    -0.365 OA
ATOM      7  H   UNL     1      10.132  -6.098  26.492  0.00  0.00    +0.213 HD
ENDBRANCH   1   6
BRANCH   2   8
ATOM      8  O   UNL     1       7.720  -4.188  27.168  0.00  0.00    -0.384 OA
ATOM      9  H   UNL     1       6.783  -3.981  27.345  0.00  0.00    +0.210 HD
ENDBRANCH   2   8
BRANCH   3  10
ATOM     10  O   UNL     1       5.845  -6.068  24.910  0.00  0.00    -0.386 OA
ATOM     11  H   UNL     1       5.954  -6.637  25.694  0.00  0.00    +0.210 HD
ENDBRANCH   3  10
BRANCH   4  12
ATOM     12  C   UNL     1       7.524  -2.969  23.703  0.00  0.00    +0.206 C 
BRANCH  12  13
ATOM     13  O   UNL     1       8.373  -2.694  22.590  0.00  0.00    -0.284 OA
BRANCH  13  14
ATOM     14  P   UNL     1       9.577  -1.489  22.889  0.00  0.00    +0.472 P 
ATOM     15  O   UNL     1      10.655  -0.410  23.157  0.00  0.00    -0.228 OA
BRANCH  14  16
ATOM     16  O   UNL     1       9.919  -1.527  21.293  0.00  0.00    -0.303 OA
ATOM     17  H   UNL     1      10.169  -2.454  21.109  0.00  0.00    +0.222 HD
ENDBRANCH  14  16
BRANCH  14  18
ATOM     18  O   UNL     1      10.533  -2.738  23.352  0.00  0.00    -0.303 OA
ATOM     19  H   UNL     1      10.240  -3.114  24.199  0.00  0.00    +0.222 HD
ENDBRANCH  14  18
ENDBRANCH  13  14
ENDBRANCH  12  13
ENDBRANCH   4  12
TORSDOF 8
ENDMDL
MODEL 3
REMARK VINA RESULT:      -5.1      1.799      2.716
REMARK  Name = 
REMARK  8 active torsions:
REMARK  status: ('A' for Active; 'I' for Inactive)
REMARK    1  A    between atoms: O_1  and  C_2
REMARK    2  A    between atoms: C_5  and  C_7
REMARK    3  A    between atoms: C_7  and  O_8
REMARK    4  A    between atoms: O_8  and  P_9
REMARK    5  A    between atoms: P_9  and  O_10
REMARK    6  A    between atoms: P_9  and  O_11
REMARK    7  A    between atoms: C_13  and  O_15
REMARK    8  A    between atoms: C_16  and  O_18
REMARK                            x       y       z     vdW  Elec       q    Type
REMARK                         _______ _______ _______ _____ _____    ______ ____
ROOT
ATOM      1  C   UNL     1       7.068  -1.236  23.429  0.00  0.00    +0.279 C 
ATOM      2  C   UNL     1       8.583  -1.079  23.618  0.00  0.00    +0.201 C 
ATOM      3  C   UNL     1       9.187  -2.211  22.790  0.00  0.00    +0.179 C 
ATOM      4  C   UNL     1       7.987  -3.040  22.328  0.00  0.00    +0.179 C 
ATOM      5  O   UNL     1       6.870  -2.126  22.336  0.00  0.00    -0.341 OA
ENDROOT
BRANCH   1   6
ATOM      6  O   UNL     1       6.453   0.002  23.120  0.00  0.00    -0.365 OA
ATOM      7  H   UNL     1       6.488   0.059  22.152  0.00  0.00    +0.213 HD
ENDBRANCH   1   6
BRANCH   2   8
ATOM      8  O   UNL     1       8.946  -1.224  24.994  0.00  0.00    -0.384 OA
ATOM      9  H   UNL     1       9.808  -1.681  25.004  0.00  0.00    +0.210 HD
ENDBRANCH   2   8
BRANCH   3  10
ATOM     10  O   UNL     1       9.877  -1.657  21.663  0.00  0.00    -0.386 OA
ATOM     11  H   UNL     1       9.603  -2.155  20.871  0.00  0.00    +0.210 HD
ENDBRANCH   3  10
BRANCH   4  12
ATOM     12  C   UNL     1       7.698  -4.221  23.264  0.00  0.00    +0.206 C 
BRANCH  12  13
ATOM     13  O   UNL     1       8.793  -4.375  24.166  0.00  0.00    -0.284 OA
BRANCH  13  14
ATOM     14  P   UNL     1       8.371  -5.080  25.688  0.00  0.00    +0.472 P 
ATOM     15  O   UNL     1       7.993  -5.712  27.050  0.00  0.00    -0.228 OA
BRANCH  14  16
ATOM     16  O   UNL     1       8.808  -3.672  26.389  0.00  0.00    -0.303 OA
ATOM     17  H   UNL     1       7.990  -3.330  26.804  0.00  0.00    +0.222 HD
ENDBRANCH  14  16
BRANCH  14  18
ATOM     18  O   UNL     1       9.855  -5.774  25.637  0.00  0.00    -0.303 OA
ATOM     19  H   UNL     1       9.792  -6.744  25.597  0.00  0.00    +0.222 HD
ENDBRANCH  14  18
ENDBRANCH  13  14
ENDBRANCH  12  13
ENDBRANCH   4  12
TORSDOF 8
ENDMDL
MODEL 4
REMARK VINA RESULT:      -5.0      3.548      5.288
REMARK  Name = 
REMARK  8 active torsions:
REMARK  status: ('A' for Active; 'I' for Inactive)
REMARK    1  A    between atoms: O_1  and  C_2
REMARK    2  A    between atoms: C_5  and  C_7
REMARK    3  A    between atoms: C_7  and  O_8
REMARK    4  A    between atoms: O_8  and  P_9
REMARK    5  A    between atoms: P_9  and  O_10
REMARK    6  A    between atoms: P_9  and  O_11
REMARK    7  A    between atoms: C_13  and  O_15
REMARK    8  A    between atoms: C_16  and  O_18
REMARK                            x       y       z     vdW  Elec       q    Type
REMARK                         _______ _______ _______ _____ _____    ______ ____
ROOT
ATOM      1  C   UNL     1       9.120  -5.320  25.220  0.00  0.00    +0.279 C 
ATOM      2  C   UNL     1       8.953  -3.813  24.980  0.00  0.00    +0.201 C 
ATOM      3  C   UNL     1       7.531  -3.510  25.444  0.00  0.00    +0.179 C 
ATOM      4  C   UNL     1       6.921  -4.879  25.751  0.00  0.00    +0.179 C 
ATOM      5  O   UNL     1       8.043  -5.734  26.054  0.00  0.00    -0.341 OA
ENDROOT
BRANCH   1   6
ATOM      6  O   UNL     1      10.339  -5.608  25.880  0.00  0.00    -0.365 OA
ATOM      7  H   UNL     1      10.141  -5.493  26.823  0.00  0.00    +0.213 HD
ENDBRANCH   1   6
BRANCH   2   8
ATOM      8  O   UNL     1       9.100  -3.495  23.594  0.00  0.00    -0.384 OA
ATOM      9  H   UNL     1       8.410  -3.997  23.122  0.00  0.00    +0.210 HD
ENDBRANCH   2   8
BRANCH   3  10
ATOM     10  O   UNL     1       7.580  -2.706  26.629  0.00  0.00    -0.386 OA
ATOM     11  H   UNL     1       8.485  -2.356  26.715  0.00  0.00    +0.210 HD
ENDBRANCH   3  10
BRANCH   4  12
ATOM     12  C   UNL     1       6.139  -5.450  24.561  0.00  0.00    +0.206 C 
BRANCH  12  13
ATOM     13  O   UNL     1       6.070  -4.461  23.534  0.00  0.00    -0.284 OA
BRANCH  13  14
ATOM     14  P   UNL     1       6.020  -5.100  21.928  0.00  0.00    +0.472 P 
ATOM     15  O   UNL     1       5.975  -5.672  20.490  0.00  0.00    -0.228 OA
BRANCH  14  16
ATOM     16  O   UNL     1       5.138  -6.341  22.519  0.00  0.00    -0.303 OA
ATOM     17  H   UNL     1       4.298  -6.317  22.018  0.00  0.00    +0.222 HD
ENDBRANCH  14  16
BRANCH  14  18
ATOM     18  O   UNL     1       7.507  -5.708  22.257  0.00  0.00    -0.303 OA
ATOM     19  H   UNL     1       7.642  -6.568  21.824  0.00  0.00    +0.222 HD
ENDBRANCH  14  18
ENDBRANCH  13  14
ENDBRANCH  12  13
ENDBRANCH   4  12
TORSDOF 8
ENDMDL
MODEL 5
REMARK VINA RESULT:      -5.0      4.123      6.240
REMARK  Name = 
REMARK  8 active torsions:
REMARK  status: ('A' for Active; 'I' for Inactive)
REMARK    1  A    between atoms: O_1  and  C_2
REMARK    2  A    between atoms: C_5  and  C_7
REMARK    3  A    between atoms: C_7  and  O_8
REMARK    4  A    between atoms: O_8  and  P_9
REMARK    5  A    between atoms: P_9  and  O_10
REMARK    6  A    between atoms: P_9  and  O_11
REMARK    7  A    between atoms: C_13  and  O_15
REMARK    8  A    between atoms: C_16  and  O_18
REMARK                            x       y       z     vdW  Elec       q    Type
REMARK                         _______ _______ _______ _____ _____    ______ ____
ROOT
ATOM      1  C   UNL     1       9.070   0.215  21.780  0.00  0.00    +0.279 C 
ATOM      2  C   UNL     1      10.202   1.093  22.331  0.00  0.00    +0.201 C 
ATOM      3  C   UNL     1       9.809   1.350  23.784  0.00  0.00    +0.179 C 
ATOM      4  C   UNL     1       8.406   0.756  23.920  0.00  0.00    +0.179 C 
ATOM      5  O   UNL     1       8.323  -0.258  22.897  0.00  0.00    -0.341 OA
ENDROOT
BRANCH   1   6
ATOM      6  O   UNL     1       9.577  -0.900  21.071  0.00  0.00    -0.365 OA
ATOM      7  H   UNL     1       9.030  -1.646  21.363  0.00  0.00    +0.213 HD
ENDBRANCH   1   6
BRANCH   2   8
ATOM      8  O   UNL     1      10.287   2.329  21.616  0.00  0.00    -0.384 OA
ATOM      9  H   UNL     1       9.579   2.900  21.968  0.00  0.00    +0.210 HD
ENDBRANCH   2   8
BRANCH   3  10
ATOM     10  O   UNL     1      10.727   0.670  24.650  0.00  0.00    -0.386 OA
ATOM     11  H   UNL     1      10.206   0.174  25.307  0.00  0.00    +0.210 HD
ENDBRANCH   3  10
BRANCH   4  12
ATOM     12  C   UNL     1       7.306   1.803  23.704  0.00  0.00    +0.206 C 
BRANCH  12  13
ATOM     13  O   UNL     1       7.800   3.082  24.098  0.00  0.00    -0.284 OA
BRANCH  13  14
ATOM     14  P   UNL     1       7.424   4.363  22.998  0.00  0.00    +0.472 P 
ATOM     15  O   UNL     1       7.088   5.510  22.013  0.00  0.00    -0.228 OA
BRANCH  14  16
ATOM     16  O   UNL     1       7.377   3.243  21.811  0.00  0.00    -0.303 OA
ATOM     17  H   UNL     1       7.562   2.392  22.257  0.00  0.00    +0.222 HD
ENDBRANCH  14  16
BRANCH  14  18
ATOM     18  O   UNL     1       9.039   4.648  22.972  0.00  0.00    -0.303 OA
ATOM     19  H   UNL     1       9.370   4.726  22.061  0.00  0.00    +0.222 HD
ENDBRANCH  14  18
ENDBRANCH  13  14
ENDBRANCH  12  13
ENDBRANCH   4  12
TORSDOF 8
ENDMDL
MODEL 6
REMARK VINA RESULT:      -4.9      1.774      3.120
REMARK  Name = 
REMARK  8 active torsions:
REMARK  status: ('A' for Active; 'I' for Inactive)
REMARK    1  A    between atoms: O_1  and  C_2
REMARK    2  A    between atoms: C_5  and  C_7
REMARK    3  A    between atoms: C_7  and  O_8
REMARK    4  A    between atoms: O_8  and  P_9
REMARK    5  A    between atoms: P_9  and  O_10
REMARK    6  A    between atoms: P_9  and  O_11
REMARK    7  A    between atoms: C_13  and  O_15
REMARK    8  A    between atoms: C_16  and  O_18
REMARK                            x       y       z     vdW  Elec       q    Type
REMARK                         _______ _______ _______ _____ _____    ______ ____
ROOT
ATOM      1  C   UNL     1       9.399  -0.919  24.473  0.00  0.00    +0.279 C 
ATOM      2  C   UNL     1      10.066  -1.820  23.424  0.00  0.00    +0.201 C 
ATOM      3  C   UNL     1       9.121  -1.770  22.226  0.00  0.00    +0.179 C 
ATOM      4  C   UNL     1       7.900  -0.996  22.724  0.00  0.00    +0.179 C 
ATOM      5  O   UNL     1       8.389  -0.172  23.803  0.00  0.00    -0.341 OA
ENDROOT
BRANCH   1   6
ATOM      6  O   UNL     1      10.326  -0.014  25.044  0.00  0.00    -0.365 OA
ATOM      7  H   UNL     1      11.192  -0.427  24.901  0.00  0.00    +0.213 HD
ENDBRANCH   1   6
BRANCH   2   8
ATOM      8  O   UNL     1      10.189  -3.162  23.903  0.00  0.00    -0.384 OA
ATOM      9  H   UNL     1      10.381  -3.096  24.858  0.00  0.00    +0.210 HD
ENDBRANCH   2   8
BRANCH   3  10
ATOM     10  O   UNL     1       9.756  -1.068  21.150  0.00  0.00    -0.386 OA
ATOM     11  H   UNL     1       9.319  -0.201  21.061  0.00  0.00    +0.210 HD
ENDBRANCH   3  10
BRANCH   4  12
ATOM     12  C   UNL     1       6.791  -1.922  23.238  0.00  0.00    +0.206 C 
BRANCH  12  13
ATOM     13  O   UNL     1       7.095  -3.264  22.859  0.00  0.00    -0.284 OA
BRANCH  13  14
ATOM     14  P   UNL     1       6.679  -4.453  24.044  0.00  0.00    +0.472 P 
ATOM     15  O   UNL     1       6.306  -5.517  25.104  0.00  0.00    -0.228 OA
BRANCH  14  16
ATOM     16  O   UNL     1       7.379  -3.491  25.162  0.00  0.00    -0.303 OA
ATOM     17  H   UNL     1       7.044  -3.815  26.022  0.00  0.00    +0.222 HD
ENDBRANCH  14  16
BRANCH  14  18
ATOM     18  O   UNL     1       8.029  -5.239  23.549  0.00  0.00    -0.303 OA
ATOM     19  H   UNL     1       8.749  -5.148  24.196  0.00  0.00    +0.222 HD
ENDBRANCH  14  18
ENDBRANCH  13  14
ENDBRANCH  12  13
ENDBRANCH   4  12
TORSDOF 8
ENDMDL
MODEL 7
REMARK VINA RESULT:      -4.9      2.502      2.859
REMARK  Name = 
REMARK  8 active torsions:
REMARK  status: ('A' for Active; 'I' for Inactive)
REMARK    1  A    between atoms: O_1  and  C_2
REMARK    2  A    between atoms: C_5  and  C_7
REMARK    3  A    between atoms: C_7  and  O_8
REMARK    4  A    between atoms: O_8  and  P_9
REMARK    5  A    between atoms: P_9  and  O_10
REMARK    6  A    between atoms: P_9  and  O_11
REMARK    7  A    between atoms: C_13  and  O_15
REMARK    8  A    between atoms: C_16  and  O_18
REMARK                            x       y       z     vdW  Elec       q    Type
REMARK                         _______ _______ _______ _____ _____    ______ ____
ROOT
ATOM      1  C   UNL     1       9.692   1.144  22.291  0.00  0.00    +0.279 C 
ATOM      2  C   UNL     1       8.406   1.571  23.012  0.00  0.00    +0.201 C 
ATOM      3  C   UNL     1       8.550   0.993  24.418  0.00  0.00    +0.179 C 
ATOM      4  C   UNL     1       9.813   0.132  24.358  0.00  0.00    +0.179 C 
ATOM      5  O   UNL     1      10.602   0.692  23.289  0.00  0.00    -0.341 OA
ENDROOT
BRANCH   1   6
ATOM      6  O   UNL     1      10.283   2.228  21.599  0.00  0.00    -0.365 OA
ATOM      7  H   UNL     1      10.472   2.886  22.287  0.00  0.00    +0.213 HD
ENDBRANCH   1   6
BRANCH   2   8
ATOM      8  O   UNL     1       7.252   1.025  22.368  0.00  0.00    -0.384 OA
ATOM      9  H   UNL     1       7.496   0.125  22.082  0.00  0.00    +0.210 HD
ENDBRANCH   2   8
BRANCH   3  10
ATOM     10  O   UNL     1       8.716   2.063  25.356  0.00  0.00    -0.386 OA
ATOM     11  H   UNL     1       9.094   2.823  24.877  0.00  0.00    +0.210 HD
ENDBRANCH   3  10
BRANCH   4  12
ATOM     12  C   UNL     1       9.502  -1.341  24.060  0.00  0.00    +0.206 C 
BRANCH  12  13
ATOM     13  O   UNL     1       8.096  -1.552  24.181  0.00  0.00    -0.284 OA
BRANCH  13  14
ATOM     14  P   UNL     1       7.432  -2.634  23.007  0.00  0.00    +0.472 P 
ATOM     15  O   UNL     1       6.838  -3.603  21.956  0.00  0.00    -0.228 OA
BRANCH  14  16
ATOM     16  O   UNL     1       8.390  -1.915  21.897  0.00  0.00    -0.303 OA
ATOM     17  H   UNL     1       9.169  -1.602  22.398  0.00  0.00    +0.222 HD
ENDBRANCH  14  16
BRANCH  14  18
ATOM     18  O   UNL     1       6.176  -1.583  22.932  0.00  0.00    -0.303 OA
ATOM     19  H   UNL     1       5.741  -1.613  22.063  0.00  0.00    +0.222 HD
ENDBRANCH  14  18
ENDBRANCH  13  14
ENDBRANCH  12  13
ENDBRANCH   4  12
TORSDOF 8
ENDMDL
MODEL 8
REMARK VINA RESULT:      -4.9      1.225      2.310
REMARK  Name = 
REMARK  8 active torsions:
REMARK  status: ('A' for Active; 'I' for Inactive)
REMARK    1  A    between atoms: O_1  and  C_2
REMARK    2  A    between atoms: C_5  and  C_7
REMARK    3  A    between atoms: C_7  and  O_8
REMARK    4  A    between atoms: O_8  and  P_9
REMARK    5  A    between atoms: P_9  and  O_10
REMARK    6  A    between atoms: P_9  and  O_11
REMARK    7  A    between atoms: C_13  and  O_15
REMARK    8  A    between atoms: C_16  and  O_18
REMARK                            x       y       z     vdW  Elec       q    Type
REMARK                         _______ _______ _______ _____ _____    ______ ____
ROOT
ATOM      1  C   UNL     1      10.278  -0.562  23.601  0.00  0.00    +0.279 C 
ATOM      2  C   UNL     1       9.328  -0.280  22.429  0.00  0.00    +0.201 C 
ATOM      3  C   UNL     1       8.047  -1.027  22.792  0.00  0.00    +0.179 C 
ATOM      4  C   UNL     1       8.402  -1.824  24.048  0.00  0.00    +0.179 C 
ATOM      5  O   UNL     1       9.493  -1.102  24.658  0.00  0.00    -0.341 OA
ENDROOT
BRANCH   1   6
ATOM      6  O   UNL     1      10.901   0.623  24.060  0.00  0.00    -0.365 OA
ATOM      7  H   UNL     1      10.351   1.342  23.708  0.00  0.00    +0.213 HD
ENDBRANCH   1   6
BRANCH   2   8
ATOM      8  O   UNL     1       9.863  -0.783  21.201  0.00  0.00    -0.384 OA
ATOM      9  H   UNL     1      10.452  -0.087  20.853  0.00  0.00    +0.210 HD
ENDBRANCH   2   8
BRANCH   3  10
ATOM     10  O   UNL     1       7.010  -0.079  23.076  0.00  0.00    -0.386 OA
ATOM     11  H   UNL     1       7.051   0.132  24.027  0.00  0.00    +0.210 HD
ENDBRANCH   3  10
BRANCH   4  12
ATOM     12  C   UNL     1       8.844  -3.257  23.724  0.00  0.00    +0.206 C 
BRANCH  12  13
ATOM     13  O   UNL     1       9.518  -3.801  24.858  0.00  0.00    -0.284 OA
BRANCH  13  14
ATOM     14  P   UNL     1       8.598  -4.967  25.745  0.00  0.00    +0.472 P 
ATOM     15  O   UNL     1       7.774  -6.010  26.539  0.00  0.00    -0.228 OA
BRANCH  14  16
ATOM     16  O   UNL     1       9.475  -4.562  27.062  0.00  0.00    -0.303 OA
ATOM     17  H   UNL     1       9.664  -3.608  26.958  0.00  0.00    +0.222 HD
ENDBRANCH  14  16
BRANCH  14  18
ATOM     18  O   UNL     1       9.631  -6.075  25.120  0.00  0.00    -0.303 OA
ATOM     19  H   UNL     1       9.718  -6.847  25.704  0.00  0.00    +0.222 HD
ENDBRANCH  14  18
ENDBRANCH  13  14
ENDBRANCH  12  13
ENDBRANCH   4  12
TORSDOF 8
ENDMDL
MODEL 9
REMARK VINA RESULT:      -4.8      1.419      1.888
REMARK  Name = 
REMARK  8 active torsions:
REMARK  status: ('A' for Active; 'I' for Inactive)
REMARK    1  A    between atoms: O_1  and  C_2
REMARK    2  A    between atoms: C_5  and  C_7
REMARK    3  A    between atoms: C_7  and  O_8
REMARK    4  A    between atoms: O_8  and  P_9
REMARK    5  A    between atoms: P_9  and  O_10
REMARK    6  A    between atoms: P_9  and  O_11
REMARK    7  A    between atoms: C_13  and  O_15
REMARK    8  A    between atoms: C_16  and  O_18
REMARK                            x       y       z     vdW  Elec       q    Type
REMARK                         _______ _______ _______ _____ _____    ______ ____
ROOT
ATOM      1  C   UNL     1       9.415  -1.631  22.684  0.00  0.00    +0.279 C 
ATOM      2  C   UNL     1       9.105  -0.254  23.287  0.00  0.00    +0.201 C 
ATOM      3  C   UNL     1       9.130  -0.487  24.795  0.00  0.00    +0.179 C 
ATOM      4  C   UNL     1       9.275  -2.001  24.954  0.00  0.00    +0.179 C 
ATOM      5  O   UNL     1       9.909  -2.450  23.738  0.00  0.00    -0.341 OA
ENDROOT
BRANCH   1   6
ATOM      6  O   UNL     1      10.406  -1.545  21.676  0.00  0.00    -0.365 OA
ATOM      7  H   UNL     1      10.703  -2.460  21.545  0.00  0.00    +0.213 HD
ENDBRANCH   1   6
BRANCH   2   8
ATOM      8  O   UNL     1       7.815   0.207  22.878  0.00  0.00    -0.384 OA
ATOM      9  H   UNL     1       7.931   1.133  22.594  0.00  0.00    +0.210 HD
ENDBRANCH   2   8
BRANCH   3  10
ATOM     10  O   UNL     1      10.261   0.187  25.360  0.00  0.00    -0.386 OA
ATOM     11  H   UNL     1      10.143   0.210  26.327  0.00  0.00    +0.210 HD
ENDBRANCH   3  10
BRANCH   4  12
ATOM     12  C   UNL     1       7.922  -2.703  25.124  0.00  0.00    +0.206 C 
BRANCH  12  13
ATOM     13  O   UNL     1       8.118  -4.114  25.042  0.00  0.00    -0.284 OA
BRANCH  13  14
ATOM     14  P   UNL     1       7.746  -4.973  26.496  0.00  0.00    +0.472 P 
ATOM     15  O   UNL     1       7.413  -5.742  27.798  0.00  0.00    -0.228 OA
BRANCH  14  16
ATOM     16  O   UNL     1       8.922  -6.033  26.095  0.00  0.00    -0.303 OA
ATOM     17  H   UNL     1       8.618  -6.894  26.446  0.00  0.00    +0.222 HD
ENDBRANCH  14  16
BRANCH  14  18
ATOM     18  O   UNL     1       6.529  -5.654  25.635  0.00  0.00    -0.303 OA
ATOM     19  H   UNL     1       6.037  -4.986  25.128  0.00  0.00    +0.222 HD
ENDBRANCH  14  18
ENDBRANCH  13  14
ENDBRANCH  12  13
ENDBRANCH   4  12
TORSDOF 8
ENDMDL
