MODEL 1
REMARK VINA RESULT:      -6.0      0.000      0.000
REMARK  Name = 
REMARK  2 active torsions:
REMARK  status: ('A' for Active; 'I' for Inactive)
REMARK    1  A    between atoms: C_5  and  N_6
REMARK    2  A    between atoms: N_9  and  C_10
REMARK                            x       y       z     vdW  Elec       q    Type
REMARK                         _______ _______ _______ _____ _____    ______ ____
ROOT
ATOM      1  N   UNL     1       8.079  -1.095  22.897  0.00  0.00    -0.269 N 
ATOM      2  H   UNL     1       7.100  -0.961  22.696  0.00  0.00    +0.156 HD
ATOM      3  C   UNL     1       8.480  -2.392  23.137  0.00  0.00    +0.304 C 
ATOM      4  N   UNL     1       7.447  -3.296  22.954  0.00  0.00    -0.296 N 
ATOM      5  H   UNL     1       6.694  -3.042  22.334  0.00  0.00    +0.151 HD
ATOM      6  O   UNL     1       9.593  -2.759  23.499  0.00  0.00    -0.253 OA
ENDROOT
BRANCH   1  11
ATOM      7  I   UNL     1      11.323   4.284  23.360  0.00  0.00    -0.044 I 
ATOM      8  C   UNL     1      10.329   2.465  23.208  0.00  0.00    +0.013 A 
ATOM      9  C   UNL     1       9.786   1.864  24.341  0.00  0.00    +0.016 A 
ATOM     10  C   UNL     1       9.070   0.666  24.219  0.00  0.00    +0.024 A 
ATOM     11  C   UNL     1       8.882   0.067  22.965  0.00  0.00    +0.035 A 
ATOM     12  C   UNL     1       9.475   0.662  21.848  0.00  0.00    +0.024 A 
ATOM     13  C   UNL     1      10.191   1.858  21.965  0.00  0.00    +0.016 A 
ENDBRANCH   1  11
BRANCH   4  14
ATOM     14  C   UNL     1       7.639  -4.708  23.277  0.00  0.00    +0.074 C 
ATOM     15  C   UNL     1       7.193  -5.661  22.154  0.00  0.00    +0.022 C 
ATOM     16  C   UNL     1       5.704  -6.013  22.150  0.00  0.00    +0.002 C 
ATOM     17  C   UNL     1       5.171  -6.354  23.536  0.00  0.00    +0.000 C 
ATOM     18  C   UNL     1       5.491  -5.246  24.529  0.00  0.00    +0.002 C 
ATOM     19  C   UNL     1       6.998  -5.041  24.628  0.00  0.00    +0.022 C 
ENDBRANCH   4  14
TORSDOF 2
ENDMDL
MODEL 2
REMARK VINA RESULT:      -5.7      3.826      7.548
REMARK  Name = 
REMARK  2 active torsions:
REMARK  status: ('A' for Active; 'I' for Inactive)
REMARK    1  A    between atoms: C_5  and  N_6
REMARK    2  A    between atoms: N_9  and  C_10
REMARK                            x       y       z     vdW  Elec       q    Type
REMARK                         _______ _______ _______ _____ _____    ______ ____
ROOT
ATOM      1  N   UNL     1       6.720  -2.511  24.227  0.00  0.00    -0.269 N 
ATOM      2  H   UNL     1       6.276  -1.636  24.464  0.00  0.00    +0.156 HD
ATOM      3  C   UNL     1       8.028  -2.435  23.799  0.00  0.00    +0.304 C 
ATOM      4  N   UNL     1       8.523  -1.145  23.872  0.00  0.00    -0.296 N 
ATOM      5  H   UNL     1       8.108  -0.510  24.536  0.00  0.00    +0.151 HD
ATOM      6  O   UNL     1       8.711  -3.358  23.369  0.00  0.00    -0.253 OA
ENDROOT
BRANCH   1  11
ATOM      7  I   UNL     1       2.823  -7.441  24.646  0.00  0.00    -0.044 I 
ATOM      8  C   UNL     1       4.166  -5.866  24.464  0.00  0.00    +0.013 A 
ATOM      9  C   UNL     1       4.002  -4.914  23.460  0.00  0.00    +0.016 A 
ATOM     10  C   UNL     1       4.880  -3.826  23.380  0.00  0.00    +0.024 A 
ATOM     11  C   UNL     1       5.920  -3.674  24.310  0.00  0.00    +0.035 A 
ATOM     12  C   UNL     1       6.095  -4.664  25.280  0.00  0.00    +0.024 A 
ATOM     13  C   UNL     1       5.221  -5.753  25.363  0.00  0.00    +0.016 A 
ENDBRANCH   1  11
BRANCH   4  14
ATOM     14  C   UNL     1       9.853  -0.837  23.349  0.00  0.00    +0.074 C 
ATOM     15  C   UNL     1      10.587   0.258  24.145  0.00  0.00    +0.022 C 
ATOM     16  C   UNL     1      10.253   1.694  23.740  0.00  0.00    +0.002 C 
ATOM     17  C   UNL     1      10.234   1.897  22.229  0.00  0.00    +0.000 C 
ATOM     18  C   UNL     1       9.314   0.888  21.558  0.00  0.00    +0.002 C 
ATOM     19  C   UNL     1       9.781  -0.533  21.849  0.00  0.00    +0.022 C 
ENDBRANCH   4  14
TORSDOF 2
ENDMDL
MODEL 3
REMARK VINA RESULT:      -5.5      1.276      2.125
REMARK  Name = 
REMARK  2 active torsions:
REMARK  status: ('A' for Active; 'I' for Inactive)
REMARK    1  A    between atoms: C_5  and  N_6
REMARK    2  A    between atoms: N_9  and  C_10
REMARK                            x       y       z     vdW  Elec       q    Type
REMARK                         _______ _______ _______ _____ _____    ______ ____
ROOT
ATOM      1  N   UNL     1       8.904  -1.315  22.786  0.00  0.00    -0.269 N 
ATOM      2  H   UNL     1       9.574  -2.059  22.658  0.00  0.00    +0.156 HD
ATOM      3  C   UNL     1       7.575  -1.668  22.688  0.00  0.00    +0.304 C 
ATOM      4  N   UNL     1       7.412  -3.033  22.523  0.00  0.00    -0.296 N 
ATOM      5  H   UNL     1       8.136  -3.646  22.865  0.00  0.00    +0.151 HD
ATOM      6  O   UNL     1       6.613  -0.908  22.708  0.00  0.00    -0.253 OA
ENDROOT
BRANCH   1  11
ATOM      7  I   UNL     1      11.530   4.376  23.405  0.00  0.00    -0.044 I 
ATOM      8  C   UNL     1      10.587   2.533  23.227  0.00  0.00    +0.013 A 
ATOM      9  C   UNL     1      10.150   2.084  21.983  0.00  0.00    +0.016 A 
ATOM     10  C   UNL     1       9.565   0.816  21.865  0.00  0.00    +0.024 A 
ATOM     11  C   UNL     1       9.424  -0.015  22.985  0.00  0.00    +0.035 A 
ATOM     12  C   UNL     1       9.826   0.473  24.231  0.00  0.00    +0.024 A 
ATOM     13  C   UNL     1      10.410   1.738  24.354  0.00  0.00    +0.016 A 
ENDBRANCH   1  11
BRANCH   4  14
ATOM     14  C   UNL     1       6.084  -3.591  22.278  0.00  0.00    +0.074 C 
ATOM     15  C   UNL     1       5.269  -3.823  23.564  0.00  0.00    +0.022 C 
ATOM     16  C   UNL     1       5.538  -5.151  24.275  0.00  0.00    +0.002 C 
ATOM     17  C   UNL     1       5.590  -6.337  23.320  0.00  0.00    +0.000 C 
ATOM     18  C   UNL     1       6.582  -6.084  22.194  0.00  0.00    +0.002 C 
ATOM     19  C   UNL     1       6.182  -4.844  21.403  0.00  0.00    +0.022 C 
ENDBRANCH   4  14
TORSDOF 2
ENDMDL
MODEL 4
REMARK VINA RESULT:      -5.4      1.945      2.279
REMARK  Name = 
REMARK  2 active torsions:
REMARK  status: ('A' for Active; 'I' for Inactive)
REMARK    1  A    between atoms: C_5  and  N_6
REMARK    2  A    between atoms: N_9  and  C_10
REMARK                            x       y       z     vdW  Elec       q    Type
REMARK                         _______ _______ _______ _____ _____    ______ ____
ROOT
ATOM      1  N   UNL     1       8.265  -0.272  22.665  0.00  0.00    -0.269 N 
ATOM      2  H   UNL     1       8.884  -0.703  21.994  0.00  0.00    +0.156 HD
ATOM      3  C   UNL     1       7.372  -1.110  23.297  0.00  0.00    +0.304 C 
ATOM      4  N   UNL     1       7.569  -2.436  22.948  0.00  0.00    -0.296 N 
ATOM      5  H   UNL     1       8.486  -2.718  22.638  0.00  0.00    +0.151 HD
ATOM      6  O   UNL     1       6.473  -0.778  24.062  0.00  0.00    -0.253 OA
ENDROOT
BRANCH   1  11
ATOM      7  I   UNL     1       8.574   5.928  23.726  0.00  0.00    -0.044 I 
ATOM      8  C   UNL     1       8.529   3.893  23.308  0.00  0.00    +0.013 A 
ATOM      9  C   UNL     1       9.313   3.007  24.044  0.00  0.00    +0.016 A 
ATOM     10  C   UNL     1       9.233   1.631  23.792  0.00  0.00    +0.024 A 
ATOM     11  C   UNL     1       8.362   1.130  22.813  0.00  0.00    +0.035 A 
ATOM     12  C   UNL     1       7.620   2.040  22.055  0.00  0.00    +0.024 A 
ATOM     13  C   UNL     1       7.696   3.415  22.303  0.00  0.00    +0.016 A 
ENDBRANCH   1  11
BRANCH   4  14
ATOM     14  C   UNL     1       6.645  -3.466  23.420  0.00  0.00    +0.074 C 
ATOM     15  C   UNL     1       7.347  -4.759  23.874  0.00  0.00    +0.022 C 
ATOM     16  C   UNL     1       7.662  -5.756  22.758  0.00  0.00    +0.002 C 
ATOM     17  C   UNL     1       6.499  -5.957  21.793  0.00  0.00    +0.000 C 
ATOM     18  C   UNL     1       6.013  -4.623  21.244  0.00  0.00    +0.002 C 
ATOM     19  C   UNL     1       5.549  -3.719  22.380  0.00  0.00    +0.022 C 
ENDBRANCH   4  14
TORSDOF 2
ENDMDL
MODEL 5
REMARK VINA RESULT:      -5.4      1.663      1.984
REMARK  Name = 
REMARK  2 active torsions:
REMARK  status: ('A' for Active; 'I' for Inactive)
REMARK    1  A    between atoms: C_5  and  N_6
REMARK    2  A    between atoms: N_9  and  C_10
REMARK                            x       y       z     vdW  Elec       q    Type
REMARK                         _______ _______ _______ _____ _____    ______ ____
ROOT
ATOM      1  N   UNL     1       8.473  -0.109  24.452  0.00  0.00    -0.269 N 
ATOM      2  H   UNL     1       8.436  -0.531  25.367  0.00  0.00    +0.156 HD
ATOM      3  C   UNL     1       8.146  -0.926  23.391  0.00  0.00    +0.304 C 
ATOM      4  N   UNL     1       7.723  -2.176  23.810  0.00  0.00    -0.296 N 
ATOM      5  H   UNL     1       7.327  -2.262  24.733  0.00  0.00    +0.151 HD
ATOM      6  O   UNL     1       8.226  -0.645  22.199  0.00  0.00    -0.253 OA
ENDROOT
BRANCH   1  11
ATOM      7  I   UNL     1      10.071   5.963  23.955  0.00  0.00    -0.044 I 
ATOM      8  C   UNL     1       9.601   3.952  24.187  0.00  0.00    +0.013 A 
ATOM      9  C   UNL     1       8.456   3.574  24.886  0.00  0.00    +0.016 A 
ATOM     10  C   UNL     1       8.118   2.218  24.988  0.00  0.00    +0.024 A 
ATOM     11  C   UNL     1       8.913   1.233  24.384  0.00  0.00    +0.035 A 
ATOM     12  C   UNL     1      10.081   1.631  23.728  0.00  0.00    +0.024 A 
ATOM     13  C   UNL     1      10.423   2.983  23.623  0.00  0.00    +0.016 A 
ENDBRANCH   1  11
BRANCH   4  14
ATOM     14  C   UNL     1       7.446  -3.225  22.831  0.00  0.00    +0.074 C 
ATOM     15  C   UNL     1       6.029  -3.150  22.235  0.00  0.00    +0.022 C 
ATOM     16  C   UNL     1       4.937  -3.833  23.061  0.00  0.00    +0.002 C 
ATOM     17  C   UNL     1       5.351  -5.207  23.574  0.00  0.00    +0.000 C 
ATOM     18  C   UNL     1       6.671  -5.131  24.327  0.00  0.00    +0.002 C 
ATOM     19  C   UNL     1       7.772  -4.603  23.417  0.00  0.00    +0.022 C 
ENDBRANCH   4  14
TORSDOF 2
ENDMDL
MODEL 6
REMARK VINA RESULT:      -5.4      2.100      2.679
REMARK  Name = 
REMARK  2 active torsions:
REMARK  status: ('A' for Active; 'I' for Inactive)
REMARK    1  A    between atoms: C_5  and  N_6
REMARK    2  A    between atoms: N_9  and  C_10
REMARK                            x       y       z     vdW  Elec       q    Type
REMARK                         _______ _______ _______ _____ _____    ______ ____
ROOT
ATOM      1  N   UNL     1       9.119  -0.055  25.129  0.00  0.00    -0.269 N 
ATOM      2  H   UNL     1       9.545  -0.313  26.006  0.00  0.00    +0.156 HD
ATOM      3  C   UNL     1       8.622  -1.089  24.365  0.00  0.00    +0.304 C 
ATOM      4  N   UNL     1       8.723  -2.308  25.014  0.00  0.00    -0.296 N 
ATOM      5  H   UNL     1       8.750  -2.312  26.022  0.00  0.00    +0.151 HD
ATOM      6  O   UNL     1       8.163  -1.005  23.231  0.00  0.00    -0.253 OA
ENDROOT
BRANCH   1  11
ATOM      7  I   UNL     1       9.631   6.073  23.769  0.00  0.00    -0.044 I 
ATOM      8  C   UNL     1       9.402   4.044  24.153  0.00  0.00    +0.013 A 
ATOM      9  C   UNL     1      10.313   3.124  23.639  0.00  0.00    +0.016 A 
ATOM     10  C   UNL     1      10.181   1.764  23.950  0.00  0.00    +0.024 A 
ATOM     11  C   UNL     1       9.147   1.316  24.785  0.00  0.00    +0.035 A 
ATOM     12  C   UNL     1       8.218   2.249  25.252  0.00  0.00    +0.024 A 
ATOM     13  C   UNL     1       8.344   3.608  24.944  0.00  0.00    +0.016 A 
ENDBRANCH   1  11
BRANCH   4  14
ATOM     14  C   UNL     1       8.362  -3.542  24.320  0.00  0.00    +0.074 C 
ATOM     15  C   UNL     1       6.843  -3.729  24.149  0.00  0.00    +0.022 C 
ATOM     16  C   UNL     1       6.125  -4.359  25.343  0.00  0.00    +0.002 C 
ATOM     17  C   UNL     1       6.863  -5.565  25.913  0.00  0.00    +0.000 C 
ATOM     18  C   UNL     1       8.307  -5.212  26.239  0.00  0.00    +0.002 C 
ATOM     19  C   UNL     1       9.036  -4.747  24.984  0.00  0.00    +0.022 C 
ENDBRANCH   4  14
TORSDOF 2
ENDMDL
MODEL 7
REMARK VINA RESULT:      -5.3      1.454      1.472
REMARK  Name = 
REMARK  2 active torsions:
REMARK  status: ('A' for Active; 'I' for Inactive)
REMARK    1  A    between atoms: C_5  and  N_6
REMARK    2  A    between atoms: N_9  and  C_10
REMARK                            x       y       z     vdW  Elec       q    Type
REMARK                         _______ _______ _______ _____ _____    ______ ____
ROOT
ATOM      1  N   UNL     1       6.981  -0.457  23.038  0.00  0.00    -0.269 N 
ATOM      2  H   UNL     1       5.989  -0.521  23.206  0.00  0.00    +0.156 HD
ATOM      3  C   UNL     1       7.628  -1.638  22.745  0.00  0.00    +0.304 C 
ATOM      4  N   UNL     1       6.746  -2.700  22.642  0.00  0.00    -0.296 N 
ATOM      5  H   UNL     1       5.788  -2.504  22.395  0.00  0.00    +0.151 HD
ATOM      6  O   UNL     1       8.837  -1.797  22.610  0.00  0.00    -0.253 OA
ENDROOT
BRANCH   1  11
ATOM      7  I   UNL     1       9.367   5.286  24.036  0.00  0.00    -0.044 I 
ATOM      8  C   UNL     1       8.653   3.371  23.662  0.00  0.00    +0.013 A 
ATOM      9  C   UNL     1       8.764   2.377  24.633  0.00  0.00    +0.016 A 
ATOM     10  C   UNL     1       8.230   1.104  24.392  0.00  0.00    +0.024 A 
ATOM     11  C   UNL     1       7.572   0.819  23.186  0.00  0.00    +0.035 A 
ATOM     12  C   UNL     1       7.514   1.816  22.208  0.00  0.00    +0.024 A 
ATOM     13  C   UNL     1       8.046   3.088  22.444  0.00  0.00    +0.016 A 
ENDBRANCH   1  11
BRANCH   4  14
ATOM     14  C   UNL     1       7.249  -4.060  22.456  0.00  0.00    +0.074 C 
ATOM     15  C   UNL     1       6.364  -4.922  21.538  0.00  0.00    +0.022 C 
ATOM     16  C   UNL     1       5.184  -5.608  22.228  0.00  0.00    +0.002 C 
ATOM     17  C   UNL     1       5.563  -6.257  23.554  0.00  0.00    +0.000 C 
ATOM     18  C   UNL     1       6.253  -5.255  24.469  0.00  0.00    +0.002 C 
ATOM     19  C   UNL     1       7.520  -4.720  23.812  0.00  0.00    +0.022 C 
ENDBRANCH   4  14
TORSDOF 2
ENDMDL
MODEL 8
REMARK VINA RESULT:      -5.0      3.752      5.705
REMARK  Name = 
REMARK  2 active torsions:
REMARK  status: ('A' for Active; 'I' for Inactive)
REMARK    1  A    between atoms: C_5  and  N_6
REMARK    2  A    between atoms: N_9  and  C_10
REMARK                            x       y       z     vdW  Elec       q    Type
REMARK                         _______ _______ _______ _____ _____    ______ ____
ROOT
ATOM      1  N   UNL     1       5.442  -5.642  22.953  0.00  0.00    -0.269 N 
ATOM      2  H   UNL     1       5.646  -6.539  22.539  0.00  0.00    +0.156 HD
ATOM      3  C   UNL     1       4.156  -5.462  23.415  0.00  0.00    +0.304 C 
ATOM      4  N   UNL     1       3.399  -6.616  23.304  0.00  0.00    -0.296 N 
ATOM      5  H   UNL     1       3.878  -7.503  23.297  0.00  0.00    +0.151 HD
ATOM      6  O   UNL     1       3.675  -4.422  23.854  0.00  0.00    -0.253 OA
ENDROOT
BRANCH   1  11
ATOM      7  I   UNL     1       9.980  -1.290  23.316  0.00  0.00    -0.044 I 
ATOM      8  C   UNL     1       8.526  -2.762  23.128  0.00  0.00    +0.013 A 
ATOM      9  C   UNL     1       8.545  -3.879  23.961  0.00  0.00    +0.016 A 
ATOM     10  C   UNL     1       7.528  -4.839  23.864  0.00  0.00    +0.024 A 
ATOM     11  C   UNL     1       6.481  -4.684  22.944  0.00  0.00    +0.035 A 
ATOM     12  C   UNL     1       6.507  -3.580  22.087  0.00  0.00    +0.024 A 
ATOM     13  C   UNL     1       7.520  -2.620  22.179  0.00  0.00    +0.016 A 
ENDBRANCH   1  11
BRANCH   4  14
ATOM     14  C   UNL     1       1.974  -6.595  23.628  0.00  0.00    +0.074 C 
ATOM     15  C   UNL     1       1.583  -7.583  24.743  0.00  0.00    +0.022 C 
ATOM     16  C   UNL     1       1.309  -9.014  24.278  0.00  0.00    +0.002 C 
ATOM     17  C   UNL     1       0.443  -9.078  23.026  0.00  0.00    +0.000 C 
ATOM     18  C   UNL     1       1.034  -8.222  21.914  0.00  0.00    +0.002 C 
ATOM     19  C   UNL     1       1.133  -6.769  22.360  0.00  0.00    +0.022 C 
ENDBRANCH   4  14
TORSDOF 2
ENDMDL
MODEL 9
REMARK VINA RESULT:      -4.9      2.592      3.426
REMARK  Name = 
REMARK  2 active torsions:
REMARK  status: ('A' for Active; 'I' for Inactive)
REMARK    1  A    between atoms: C_5  and  N_6
REMARK    2  A    between atoms: N_9  and  C_10
REMARK                            x       y       z     vdW  Elec       q    Type
REMARK                         _______ _______ _______ _____ _____    ______ ____
ROOT
ATOM      1  N   UNL     1       8.267   0.194  23.657  0.00  0.00    -0.269 N 
ATOM      2  H   UNL     1       8.947  -0.241  23.052  0.00  0.00    +0.156 HD
ATOM      3  C   UNL     1       7.607  -0.641  24.533  0.00  0.00    +0.304 C 
ATOM      4  N   UNL     1       8.090  -1.937  24.477  0.00  0.00    -0.296 N 
ATOM      5  H   UNL     1       9.037  -2.081  24.163  0.00  0.00    +0.151 HD
ATOM      6  O   UNL     1       6.679  -0.337  25.275  0.00  0.00    -0.253 OA
ENDROOT
BRANCH   1  11
ATOM      7  I   UNL     1       7.443   6.323  22.464  0.00  0.00    -0.044 I 
ATOM      8  C   UNL     1       7.653   4.307  22.921  0.00  0.00    +0.013 A 
ATOM      9  C   UNL     1       7.019   3.341  22.142  0.00  0.00    +0.016 A 
ATOM     10  C   UNL     1       7.211   1.982  22.424  0.00  0.00    +0.024 A 
ATOM     11  C   UNL     1       8.047   1.579  23.477  0.00  0.00    +0.035 A 
ATOM     12  C   UNL     1       8.635   2.565  24.273  0.00  0.00    +0.024 A 
ATOM     13  C   UNL     1       8.446   3.923  23.996  0.00  0.00    +0.016 A 
ENDBRANCH   1  11
BRANCH   4  14
ATOM     14  C   UNL     1       7.439  -2.998  25.242  0.00  0.00    +0.074 C 
ATOM     15  C   UNL     1       8.224  -3.420  26.497  0.00  0.00    +0.022 C 
ATOM     16  C   UNL     1       9.321  -4.460  26.262  0.00  0.00    +0.002 C 
ATOM     17  C   UNL     1       8.870  -5.608  25.367  0.00  0.00    +0.000 C 
ATOM     18  C   UNL     1       8.294  -5.082  24.060  0.00  0.00    +0.002 C 
ATOM     19  C   UNL     1       7.095  -4.181  24.332  0.00  0.00    +0.022 C 
ENDBRANCH   4  14
TORSDOF 2
ENDMDL
