MODEL 1
REMARK VINA RESULT:      -6.8      0.000      0.000
REMARK  Name = 
REMARK  4 active torsions:
REMARK  status: ('A' for Active; 'I' for Inactive)
REMARK    1  A    between atoms: O_1  and  C_2
REMARK    2  A    between atoms: C_2  and  C_4
REMARK    3  A    between atoms: C_5  and  O_6
REMARK    4  A    between atoms: C_9  and  C_11
REMARK                            x       y       z     vdW  Elec       q    Type
REMARK                         _______ _______ _______ _____ _____    ______ ____
ROOT
ATOM      1  C   UNL     1      11.184   4.784  23.595  0.00  0.00    +0.101 A 
ATOM      2  C   UNL     1      11.151   3.383  23.509  0.00  0.00    +0.027 A 
ATOM      3  C   UNL     1       9.991   2.648  23.824  0.00  0.00    -0.014 A 
ATOM      4  C   UNL     1       8.854   3.387  24.209  0.00  0.00    +0.012 A 
ATOM      5  C   UNL     1       8.877   4.786  24.288  0.00  0.00    +0.047 A 
ATOM      6  C   UNL     1      10.048   5.476  24.006  0.00  0.00    +0.131 A 
ENDROOT
BRANCH   3   7
ATOM      7  C   UNL     1       9.968   1.164  23.741  0.00  0.00    +0.018 A 
ATOM      8  C   UNL     1       9.929   0.362  24.902  0.00  0.00    +0.014 A 
ATOM      9  C   UNL     1       9.879  -1.035  24.823  0.00  0.00    +0.039 A 
ATOM     10  C   UNL     1       9.856  -1.655  23.581  0.00  0.00    +0.126 A 
ATOM     11  F   UNL     1       9.788  -2.990  23.509  0.00  0.00    -0.205 F 
ATOM     12  C   UNL     1       9.899  -0.909  22.418  0.00  0.00    +0.077 A 
ATOM     13  C   UNL     1       9.965   0.481  22.506  0.00  0.00    +0.134 A 
ATOM     14  F   UNL     1      10.043   1.160  21.352  0.00  0.00    -0.205 F 
ENDBRANCH   3   7
BRANCH   1  15
ATOM     15  C   UNL     1      12.454   5.466  23.247  0.00  0.00    +0.340 C 
ATOM     16  O   UNL     1      12.950   5.434  22.135  0.00  0.00    -0.245 OA
BRANCH  15  17
ATOM     17  O   UNL     1      13.006   6.126  24.289  0.00  0.00    -0.477 OA
ATOM     18  H   UNL     1      13.984   6.184  24.256  0.00  0.00    +0.295 HD
ENDBRANCH  15  17
ENDBRANCH   1  15
BRANCH   6  19
ATOM     19  O   UNL     1      10.018   6.836  24.147  0.00  0.00    -0.506 OA
ATOM     20  H   UNL     1      10.751   7.103  24.738  0.00  0.00    +0.292 HD
ENDBRANCH   6  19
TORSDOF 4
ENDMDL
MODEL 2
REMARK VINA RESULT:      -6.7      5.233      7.424
REMARK  Name = 
REMARK  4 active torsions:
REMARK  status: ('A' for Active; 'I' for Inactive)
REMARK    1  A    between atoms: O_1  and  C_2
REMARK    2  A    between atoms: C_2  and  C_4
REMARK    3  A    between atoms: C_5  and  O_6
REMARK    4  A    between atoms: C_9  and  C_11
REMARK                            x       y       z     vdW  Elec       q    Type
REMARK                         _______ _______ _______ _____ _____    ______ ____
ROOT
ATOM      1  C   UNL     1       8.830  -3.806  24.473  0.00  0.00    +0.101 A 
ATOM      2  C   UNL     1       9.220  -2.458  24.432  0.00  0.00    +0.027 A 
ATOM      3  C   UNL     1       8.760  -1.583  23.429  0.00  0.00    -0.014 A 
ATOM      4  C   UNL     1       7.869  -2.119  22.476  0.00  0.00    +0.012 A 
ATOM      5  C   UNL     1       7.470  -3.461  22.515  0.00  0.00    +0.047 A 
ATOM      6  C   UNL     1       7.971  -4.305  23.496  0.00  0.00    +0.131 A 
ENDROOT
BRANCH   3   7
ATOM      7  C   UNL     1       9.186  -0.160  23.388  0.00  0.00    +0.018 A 
ATOM      8  C   UNL     1       9.118   0.663  24.532  0.00  0.00    +0.014 A 
ATOM      9  C   UNL     1       9.546   1.997  24.500  0.00  0.00    +0.039 A 
ATOM     10  C   UNL     1      10.061   2.527  23.325  0.00  0.00    +0.126 A 
ATOM     11  F   UNL     1      10.487   3.796  23.303  0.00  0.00    -0.205 F 
ATOM     12  C   UNL     1      10.140   1.759  22.178  0.00  0.00    +0.077 A 
ATOM     13  C   UNL     1       9.697   0.438  22.215  0.00  0.00    +0.134 A 
ATOM     14  F   UNL     1       9.759  -0.257  21.069  0.00  0.00    -0.205 F 
ENDBRANCH   3   7
BRANCH   1  15
ATOM     15  C   UNL     1       9.373  -4.649  25.566  0.00  0.00    +0.340 C 
ATOM     16  O   UNL     1       9.123  -4.462  26.743  0.00  0.00    -0.245 OA
BRANCH  15  17
ATOM     17  O   UNL     1      10.172  -5.644  25.124  0.00  0.00    -0.477 OA
ATOM     18  H   UNL     1      10.406  -6.306  25.809  0.00  0.00    +0.295 HD
ENDBRANCH  15  17
ENDBRANCH   1  15
BRANCH   6  19
ATOM     19  O   UNL     1       7.578  -5.613  23.452  0.00  0.00    -0.506 OA
ATOM     20  H   UNL     1       8.302  -6.167  23.811  0.00  0.00    +0.292 HD
ENDBRANCH   6  19
TORSDOF 4
ENDMDL
MODEL 3
REMARK VINA RESULT:      -6.4      5.527      7.947
REMARK  Name = 
REMARK  4 active torsions:
REMARK  status: ('A' for Active; 'I' for Inactive)
REMARK    1  A    between atoms: O_1  and  C_2
REMARK    2  A    between atoms: C_2  and  C_4
REMARK    3  A    between atoms: C_5  and  O_6
REMARK    4  A    between atoms: C_9  and  C_11
REMARK                            x       y       z     vdW  Elec       q    Type
REMARK                         _______ _______ _______ _____ _____    ______ ____
ROOT
ATOM      1  C   UNL     1       7.625  -3.771  26.327  0.00  0.00    +0.101 A 
ATOM      2  C   UNL     1       7.942  -2.632  25.570  0.00  0.00    +0.027 A 
ATOM      3  C   UNL     1       9.044  -2.606  24.693  0.00  0.00    -0.014 A 
ATOM      4  C   UNL     1       9.805  -3.789  24.593  0.00  0.00    +0.012 A 
ATOM      5  C   UNL     1       9.491  -4.932  25.338  0.00  0.00    +0.047 A 
ATOM      6  C   UNL     1       8.419  -4.911  26.220  0.00  0.00    +0.131 A 
ENDROOT
BRANCH   3   7
ATOM      7  C   UNL     1       9.378  -1.391  23.905  0.00  0.00    +0.018 A 
ATOM      8  C   UNL     1      10.016  -0.281  24.497  0.00  0.00    +0.014 A 
ATOM      9  C   UNL     1      10.356   0.852  23.746  0.00  0.00    +0.039 A 
ATOM     10  C   UNL     1      10.074   0.890  22.389  0.00  0.00    +0.126 A 
ATOM     11  F   UNL     1      10.417   1.966  21.671  0.00  0.00    -0.205 F 
ATOM     12  C   UNL     1       9.443  -0.173  21.768  0.00  0.00    +0.077 A 
ATOM     13  C   UNL     1       9.093  -1.290  22.525  0.00  0.00    +0.134 A 
ATOM     14  F   UNL     1       8.450  -2.280  21.889  0.00  0.00    -0.205 F 
ENDBRANCH   3   7
BRANCH   1  15
ATOM     15  C   UNL     1       6.448  -3.698  27.225  0.00  0.00    +0.340 C 
ATOM     16  O   UNL     1       6.248  -4.484  28.134  0.00  0.00    -0.245 OA
BRANCH  15  17
ATOM     17  O   UNL     1       5.620  -2.671  26.934  0.00  0.00    -0.477 OA
ATOM     18  H   UNL     1       5.402  -2.588  25.981  0.00  0.00    +0.295 HD
ENDBRANCH  15  17
ENDBRANCH   1  15
BRANCH   6  19
ATOM     19  O   UNL     1       8.192  -6.044  26.952  0.00  0.00    -0.506 OA
ATOM     20  H   UNL     1       8.221  -6.815  26.348  0.00  0.00    +0.292 HD
ENDBRANCH   6  19
TORSDOF 4
ENDMDL
MODEL 4
REMARK VINA RESULT:      -6.3      5.365      7.594
REMARK  Name = 
REMARK  4 active torsions:
REMARK  status: ('A' for Active; 'I' for Inactive)
REMARK    1  A    between atoms: O_1  and  C_2
REMARK    2  A    between atoms: C_2  and  C_4
REMARK    3  A    between atoms: C_5  and  O_6
REMARK    4  A    between atoms: C_9  and  C_11
REMARK                            x       y       z     vdW  Elec       q    Type
REMARK                         _______ _______ _______ _____ _____    ______ ____
ROOT
ATOM      1  C   UNL     1       6.919  -3.234  22.767  0.00  0.00    +0.101 A 
ATOM      2  C   UNL     1       7.395  -1.914  22.718  0.00  0.00    +0.027 A 
ATOM      3  C   UNL     1       8.558  -1.518  23.408  0.00  0.00    -0.014 A 
ATOM      4  C   UNL     1       9.237  -2.517  24.135  0.00  0.00    +0.012 A 
ATOM      5  C   UNL     1       8.773  -3.838  24.182  0.00  0.00    +0.047 A 
ATOM      6  C   UNL     1       7.603  -4.185  23.520  0.00  0.00    +0.131 A 
ENDROOT
BRANCH   3   7
ATOM      7  C   UNL     1       9.048  -0.116  23.359  0.00  0.00    +0.018 A 
ATOM      8  C   UNL     1       8.999   0.721  24.494  0.00  0.00    +0.014 A 
ATOM      9  C   UNL     1       9.487   2.034  24.455  0.00  0.00    +0.039 A 
ATOM     10  C   UNL     1      10.043   2.528  23.284  0.00  0.00    +0.126 A 
ATOM     11  F   UNL     1      10.527   3.776  23.256  0.00  0.00    -0.205 F 
ATOM     12  C   UNL     1      10.106   1.745  22.146  0.00  0.00    +0.077 A 
ATOM     13  C   UNL     1       9.603   0.445  22.189  0.00  0.00    +0.134 A 
ATOM     14  F   UNL     1       9.651  -0.263  21.051  0.00  0.00    -0.205 F 
ENDBRANCH   3   7
BRANCH   1  15
ATOM     15  C   UNL     1       5.684  -3.550  22.010  0.00  0.00    +0.340 C 
ATOM     16  O   UNL     1       5.620  -3.534  20.795  0.00  0.00    -0.245 OA
BRANCH  15  17
ATOM     17  O   UNL     1       4.636  -3.857  22.806  0.00  0.00    -0.477 OA
ATOM     18  H   UNL     1       4.439  -4.816  22.860  0.00  0.00    +0.295 HD
ENDBRANCH  15  17
ENDBRANCH   1  15
BRANCH   6  19
ATOM     19  O   UNL     1       7.179  -5.479  23.643  0.00  0.00    -0.506 OA
ATOM     20  H   UNL     1       6.644  -5.706  22.854  0.00  0.00    +0.292 HD
ENDBRANCH   6  19
TORSDOF 4
ENDMDL
MODEL 5
REMARK VINA RESULT:      -6.3      3.056      4.826
REMARK  Name = 
REMARK  4 active torsions:
REMARK  status: ('A' for Active; 'I' for Inactive)
REMARK    1  A    between atoms: O_1  and  C_2
REMARK    2  A    between atoms: C_2  and  C_4
REMARK    3  A    between atoms: C_5  and  O_6
REMARK    4  A    between atoms: C_9  and  C_11
REMARK                            x       y       z     vdW  Elec       q    Type
REMARK                         _______ _______ _______ _____ _____    ______ ____
ROOT
ATOM      1  C   UNL     1       9.176   1.114  23.461  0.00  0.00    +0.101 A 
ATOM      2  C   UNL     1       8.657  -0.056  24.039  0.00  0.00    +0.027 A 
ATOM      3  C   UNL     1       8.548  -1.257  23.312  0.00  0.00    -0.014 A 
ATOM      4  C   UNL     1       9.007  -1.238  21.978  0.00  0.00    +0.012 A 
ATOM      5  C   UNL     1       9.533  -0.077  21.397  0.00  0.00    +0.047 A 
ATOM      6  C   UNL     1       9.592   1.100  22.132  0.00  0.00    +0.131 A 
ENDROOT
BRANCH   3   7
ATOM      7  C   UNL     1       7.988  -2.488  23.928  0.00  0.00    +0.018 A 
ATOM      8  C   UNL     1       6.597  -2.667  24.081  0.00  0.00    +0.014 A 
ATOM      9  C   UNL     1       6.068  -3.840  24.636  0.00  0.00    +0.039 A 
ATOM     10  C   UNL     1       6.921  -4.857  25.038  0.00  0.00    +0.126 A 
ATOM     11  F   UNL     1       6.411  -5.984  25.551  0.00  0.00    -0.205 F 
ATOM     12  C   UNL     1       8.291  -4.722  24.914  0.00  0.00    +0.077 A 
ATOM     13  C   UNL     1       8.810  -3.546  24.375  0.00  0.00    +0.134 A 
ATOM     14  F   UNL     1      10.146  -3.444  24.308  0.00  0.00    -0.205 F 
ENDBRANCH   3   7
BRANCH   1  15
ATOM     15  C   UNL     1       9.245   2.329  24.308  0.00  0.00    +0.340 C 
ATOM     16  O   UNL     1       9.847   3.338  23.985  0.00  0.00    -0.245 OA
BRANCH  15  17
ATOM     17  O   UNL     1       8.574   2.205  25.473  0.00  0.00    -0.477 OA
ATOM     18  H   UNL     1       8.326   3.058  25.888  0.00  0.00    +0.295 HD
ENDBRANCH  15  17
ENDBRANCH   1  15
BRANCH   6  19
ATOM     19  O   UNL     1      10.073   2.208  21.493  0.00  0.00    -0.506 OA
ATOM     20  H   UNL     1      10.612   2.724  22.129  0.00  0.00    +0.292 HD
ENDBRANCH   6  19
TORSDOF 4
ENDMDL
MODEL 6
REMARK VINA RESULT:      -6.1      3.730      5.628
REMARK  Name = 
REMARK  4 active torsions:
REMARK  status: ('A' for Active; 'I' for Inactive)
REMARK    1  A    between atoms: O_1  and  C_2
REMARK    2  A    between atoms: C_2  and  C_4
REMARK    3  A    between atoms: C_5  and  O_6
REMARK    4  A    between atoms: C_9  and  C_11
REMARK                            x       y       z     vdW  Elec       q    Type
REMARK                         _______ _______ _______ _____ _____    ______ ____
ROOT
ATOM      1  C   UNL     1       7.871   0.982  22.465  0.00  0.00    +0.101 A 
ATOM      2  C   UNL     1       7.275  -0.252  22.769  0.00  0.00    +0.027 A 
ATOM      3  C   UNL     1       7.906  -1.475  22.468  0.00  0.00    -0.014 A 
ATOM      4  C   UNL     1       9.179  -1.403  21.865  0.00  0.00    +0.012 A 
ATOM      5  C   UNL     1       9.783  -0.175  21.565  0.00  0.00    +0.047 A 
ATOM      6  C   UNL     1       9.117   1.011  21.843  0.00  0.00    +0.131 A 
ENDROOT
BRANCH   3   7
ATOM      7  C   UNL     1       7.263  -2.777  22.784  0.00  0.00    +0.018 A 
ATOM      8  C   UNL     1       5.977  -3.100  22.301  0.00  0.00    +0.014 A 
ATOM      9  C   UNL     1       5.383  -4.339  22.576  0.00  0.00    +0.039 A 
ATOM     10  C   UNL     1       6.070  -5.281  23.329  0.00  0.00    +0.126 A 
ATOM     11  F   UNL     1       5.508  -6.471  23.574  0.00  0.00    -0.205 F 
ATOM     12  C   UNL     1       7.330  -5.004  23.828  0.00  0.00    +0.077 A 
ATOM     13  C   UNL     1       7.907  -3.763  23.564  0.00  0.00    +0.134 A 
ATOM     14  F   UNL     1       9.113  -3.526  24.100  0.00  0.00    -0.205 F 
ENDBRANCH   3   7
BRANCH   1  15
ATOM     15  C   UNL     1       7.124   2.214  22.817  0.00  0.00    +0.340 C 
ATOM     16  O   UNL     1       7.658   3.223  23.239  0.00  0.00    -0.245 OA
BRANCH  15  17
ATOM     17  O   UNL     1       5.792   2.102  22.623  0.00  0.00    -0.477 OA
ATOM     18  H   UNL     1       5.299   2.944  22.721  0.00  0.00    +0.295 HD
ENDBRANCH  15  17
ENDBRANCH   1  15
BRANCH   6  19
ATOM     19  O   UNL     1       9.740   2.173  21.485  0.00  0.00    -0.506 OA
ATOM     20  H   UNL     1       9.751   2.232  20.507  0.00  0.00    +0.292 HD
ENDBRANCH   6  19
TORSDOF 4
ENDMDL
MODEL 7
REMARK VINA RESULT:      -6.1      6.742      9.135
REMARK  Name = 
REMARK  4 active torsions:
REMARK  status: ('A' for Active; 'I' for Inactive)
REMARK    1  A    between atoms: O_1  and  C_2
REMARK    2  A    between atoms: C_2  and  C_4
REMARK    3  A    between atoms: C_5  and  O_6
REMARK    4  A    between atoms: C_9  and  C_11
REMARK                            x       y       z     vdW  Elec       q    Type
REMARK                         _______ _______ _______ _____ _____    ______ ____
ROOT
ATOM      1  C   UNL     1       5.830  -5.342  24.300  0.00  0.00    +0.101 A 
ATOM      2  C   UNL     1       6.514  -4.293  23.665  0.00  0.00    +0.027 A 
ATOM      3  C   UNL     1       7.510  -3.549  24.326  0.00  0.00    -0.014 A 
ATOM      4  C   UNL     1       7.806  -3.920  25.654  0.00  0.00    +0.012 A 
ATOM      5  C   UNL     1       7.133  -4.970  26.292  0.00  0.00    +0.047 A 
ATOM      6  C   UNL     1       6.132  -5.659  25.623  0.00  0.00    +0.131 A 
ENDROOT
BRANCH   3   7
ATOM      7  C   UNL     1       8.221  -2.433  23.649  0.00  0.00    +0.018 A 
ATOM      8  C   UNL     1       7.518  -1.364  23.054  0.00  0.00    +0.014 A 
ATOM      9  C   UNL     1       8.190  -0.299  22.440  0.00  0.00    +0.039 A 
ATOM     10  C   UNL     1       9.577  -0.279  22.421  0.00  0.00    +0.126 A 
ATOM     11  F   UNL     1      10.216   0.750  21.851  0.00  0.00    -0.205 F 
ATOM     12  C   UNL     1      10.307  -1.309  22.986  0.00  0.00    +0.077 A 
ATOM     13  C   UNL     1       9.630  -2.373  23.580  0.00  0.00    +0.134 A 
ATOM     14  F   UNL     1      10.379  -3.366  24.082  0.00  0.00    -0.205 F 
ENDBRANCH   3   7
BRANCH   1  15
ATOM     15  C   UNL     1       4.794  -6.062  23.521  0.00  0.00    +0.340 C 
ATOM     16  O   UNL     1       4.088  -5.525  22.688  0.00  0.00    -0.245 OA
BRANCH  15  17
ATOM     17  O   UNL     1       4.714  -7.375  23.830  0.00  0.00    -0.477 OA
ATOM     18  H   UNL     1       5.373  -7.937  23.371  0.00  0.00    +0.295 HD
ENDBRANCH  15  17
ENDBRANCH   1  15
BRANCH   6  19
ATOM     19  O   UNL     1       5.482  -6.643  26.316  0.00  0.00    -0.506 OA
ATOM     20  H   UNL     1       4.533  -6.407  26.374  0.00  0.00    +0.292 HD
ENDBRANCH   6  19
TORSDOF 4
ENDMDL
MODEL 8
REMARK VINA RESULT:      -6.0      3.514      5.214
REMARK  Name = 
REMARK  4 active torsions:
REMARK  status: ('A' for Active; 'I' for Inactive)
REMARK    1  A    between atoms: O_1  and  C_2
REMARK    2  A    between atoms: C_2  and  C_4
REMARK    3  A    between atoms: C_5  and  O_6
REMARK    4  A    between atoms: C_9  and  C_11
REMARK                            x       y       z     vdW  Elec       q    Type
REMARK                         _______ _______ _______ _____ _____    ______ ____
ROOT
ATOM      1  C   UNL     1       8.825   0.684  23.007  0.00  0.00    +0.101 A 
ATOM      2  C   UNL     1       8.326  -0.575  22.639  0.00  0.00    +0.027 A 
ATOM      3  C   UNL     1       8.263  -1.645  23.553  0.00  0.00    -0.014 A 
ATOM      4  C   UNL     1       8.704  -1.386  24.867  0.00  0.00    +0.012 A 
ATOM      5  C   UNL     1       9.196  -0.129  25.244  0.00  0.00    +0.047 A 
ATOM      6  C   UNL     1       9.278   0.892  24.308  0.00  0.00    +0.131 A 
ENDROOT
BRANCH   3   7
ATOM      7  C   UNL     1       7.743  -2.978  23.152  0.00  0.00    +0.018 A 
ATOM      8  C   UNL     1       6.724  -3.110  22.184  0.00  0.00    +0.014 A 
ATOM      9  C   UNL     1       6.255  -4.368  21.785  0.00  0.00    +0.039 A 
ATOM     10  C   UNL     1       6.803  -5.516  22.340  0.00  0.00    +0.126 A 
ATOM     11  F   UNL     1       6.365  -6.717  21.942  0.00  0.00    -0.205 F 
ATOM     12  C   UNL     1       7.798  -5.433  23.296  0.00  0.00    +0.077 A 
ATOM     13  C   UNL     1       8.249  -4.177  23.699  0.00  0.00    +0.134 A 
ATOM     14  F   UNL     1       9.188  -4.145  24.656  0.00  0.00    -0.205 F 
ENDBRANCH   3   7
BRANCH   1  15
ATOM     15  C   UNL     1       8.854   1.745  21.971  0.00  0.00    +0.340 C 
ATOM     16  O   UNL     1       7.852   2.218  21.468  0.00  0.00    -0.245 OA
BRANCH  15  17
ATOM     17  O   UNL     1      10.106   2.131  21.641  0.00  0.00    -0.477 OA
ATOM     18  H   UNL     1      10.148   2.975  21.144  0.00  0.00    +0.295 HD
ENDBRANCH  15  17
ENDBRANCH   1  15
BRANCH   6  19
ATOM     19  O   UNL     1       9.809   2.080  24.728  0.00  0.00    -0.506 OA
ATOM     20  H   UNL     1       9.092   2.747  24.759  0.00  0.00    +0.292 HD
ENDBRANCH   6  19
TORSDOF 4
ENDMDL
MODEL 9
REMARK VINA RESULT:      -5.9      2.985      4.443
REMARK  Name = 
REMARK  4 active torsions:
REMARK  status: ('A' for Active; 'I' for Inactive)
REMARK    1  A    between atoms: O_1  and  C_2
REMARK    2  A    between atoms: C_2  and  C_4
REMARK    3  A    between atoms: C_5  and  O_6
REMARK    4  A    between atoms: C_9  and  C_11
REMARK                            x       y       z     vdW  Elec       q    Type
REMARK                         _______ _______ _______ _____ _____    ______ ____
ROOT
ATOM      1  C   UNL     1       8.365   1.616  23.220  0.00  0.00    +0.101 A 
ATOM      2  C   UNL     1       8.182   0.318  23.723  0.00  0.00    +0.027 A 
ATOM      3  C   UNL     1       9.194  -0.350  24.441  0.00  0.00    -0.014 A 
ATOM      4  C   UNL     1      10.396   0.356  24.651  0.00  0.00    +0.012 A 
ATOM      5  C   UNL     1      10.584   1.654  24.159  0.00  0.00    +0.047 A 
ATOM      6  C   UNL     1       9.579   2.269  23.425  0.00  0.00    +0.131 A 
ENDROOT
BRANCH   3   7
ATOM      7  C   UNL     1       8.995  -1.728  24.960  0.00  0.00    +0.018 A 
ATOM      8  C   UNL     1       8.165  -1.983  26.073  0.00  0.00    +0.014 A 
ATOM      9  C   UNL     1       7.955  -3.285  26.544  0.00  0.00    +0.039 A 
ATOM     10  C   UNL     1       8.564  -4.356  25.905  0.00  0.00    +0.126 A 
ATOM     11  F   UNL     1       8.346  -5.601  26.346  0.00  0.00    -0.205 F 
ATOM     12  C   UNL     1       9.390  -4.152  24.815  0.00  0.00    +0.077 A 
ATOM     13  C   UNL     1       9.606  -2.851  24.362  0.00  0.00    +0.134 A 
ATOM     14  F   UNL     1      10.445  -2.699  23.327  0.00  0.00    -0.205 F 
ENDBRANCH   3   7
BRANCH   1  15
ATOM     15  C   UNL     1       7.242   2.232  22.474  0.00  0.00    +0.340 C 
ATOM     16  O   UNL     1       7.299   3.338  21.969  0.00  0.00    -0.245 OA
BRANCH  15  17
ATOM     17  O   UNL     1       6.148   1.441  22.410  0.00  0.00    -0.477 OA
ATOM     18  H   UNL     1       5.536   1.659  21.676  0.00  0.00    +0.295 HD
ENDBRANCH  15  17
ENDBRANCH   1  15
BRANCH   6  19
ATOM     19  O   UNL     1       9.841   3.518  22.934  0.00  0.00    -0.506 OA
ATOM     20  H   UNL     1       8.990   3.948  22.710  0.00  0.00    +0.292 HD
ENDBRANCH   6  19
TORSDOF 4
ENDMDL
