MODEL 1
REMARK VINA RESULT:      -6.9      0.000      0.000
REMARK  Name = 
REMARK  9 active torsions:
REMARK  status: ('A' for Active; 'I' for Inactive)
REMARK    1  A    between atoms: O_1  and  C_2
REMARK    2  A    between atoms: C_4  and  O_6
REMARK    3  A    between atoms: C_7  and  N_18
REMARK    4  A    between atoms: C_10  and  C_12
REMARK    5  A    between atoms: C_12  and  O_13
REMARK    6  A    between atoms: O_13  and  P_14
REMARK    7  A    between atoms: P_14  and  O_15
REMARK    8  A    between atoms: C_22  and  C_24
REMARK    9  A    between atoms: C_24  and  O_25
REMARK                            x       y       z     vdW  Elec       q    Type
REMARK                         _______ _______ _______ _____ _____    ______ ____
ROOT
ATOM      1  C   UNL     1       8.447   1.592  22.056  0.00  0.00    +0.183 C 
ATOM      2  C   UNL     1       9.765   0.809  21.984  0.00  0.00    +0.182 C 
ATOM      3  O   UNL     1      10.472   1.038  23.225  0.00  0.00    -0.309 OA
ATOM      4  C   UNL     1       9.650   1.867  24.061  0.00  0.00    +0.439 C 
ATOM      5  C   UNL     1       8.209   1.722  23.547  0.00  0.00    +0.244 C 
ENDROOT
BRANCH   4   6
ATOM      6  N   UNL     1      10.108   3.295  23.994  0.00  0.00    -0.173 N 
ATOM      7  C   UNL     1      11.325   3.605  23.474  0.00  0.00    +0.326 A 
ATOM      8  C   UNL     1      11.689   4.930  23.255  0.00  0.00    +0.122 A 
ATOM      9  C   UNL     1      10.831   5.953  23.646  0.00  0.00    +0.027 A 
ATOM     10  C   UNL     1       9.619   5.620  24.243  0.00  0.00    +0.071 A 
ATOM     11  C   UNL     1       9.279   4.280  24.417  0.00  0.00    +0.311 A 
BRANCH   8  12
ATOM     12  C   UNL     1      13.014   5.163  22.657  0.00  0.00    +0.343 C 
ATOM     13  O   UNL     1      13.122   5.627  21.536  0.00  0.00    -0.245 OA
BRANCH  12  14
ATOM     14  O   UNL     1      14.055   4.867  23.452  0.00  0.00    -0.477 OA
ATOM     15  H   UNL     1      14.832   5.456  23.431  0.00  0.00    +0.295 HD
ENDBRANCH  12  14
ENDBRANCH   8  12
ENDBRANCH   4   6
BRANCH   1  16
ATOM     16  O   UNL     1       8.661   2.919  21.536  0.00  0.00    -0.386 OA
ATOM     17  H   UNL     1       8.762   3.493  22.323  0.00  0.00    +0.210 HD
ENDBRANCH   1  16
BRANCH   5  18
ATOM     18  O   UNL     1       7.597   0.572  24.130  0.00  0.00    -0.380 OA
ATOM     19  H   UNL     1       7.498  -0.132  23.456  0.00  0.00    +0.210 HD
ENDBRANCH   5  18
BRANCH   2  20
ATOM     20  C   UNL     1       9.563  -0.677  21.744  0.00  0.00    +0.202 C 
BRANCH  20  21
ATOM     21  O   UNL     1      10.278  -1.358  22.755  0.00  0.00    -0.325 OA
BRANCH  21  22
ATOM     22  P   UNL     1       9.391  -2.280  23.741  0.00  0.00    +0.210 P 
ATOM     23  O   UNL     1      10.208  -3.489  24.086  0.00  0.00    -0.517 OA
ATOM     24  O   UNL     1       7.972  -2.331  23.270  0.00  0.00    -0.437 OA
BRANCH  22  25
ATOM     25  O   UNL     1       9.492  -1.370  25.064  0.00  0.00    -0.344 OA
ATOM     26  H   UNL     1       8.554  -1.220  25.285  0.00  0.00    +0.218 HD
ENDBRANCH  22  25
ENDBRANCH  21  22
ENDBRANCH  20  21
ENDBRANCH   2  20
TORSDOF 9
ENDMDL
MODEL 2
REMARK VINA RESULT:      -6.4      3.420      7.344
REMARK  Name = 
REMARK  9 active torsions:
REMARK  status: ('A' for Active; 'I' for Inactive)
REMARK    1  A    between atoms: O_1  and  C_2
REMARK    2  A    between atoms: C_4  and  O_6
REMARK    3  A    between atoms: C_7  and  N_18
REMARK    4  A    between atoms: C_10  and  C_12
REMARK    5  A    between atoms: C_12  and  O_13
REMARK    6  A    between atoms: O_13  and  P_14
REMARK    7  A    between atoms: P_14  and  O_15
REMARK    8  A    between atoms: C_22  and  C_24
REMARK    9  A    between atoms: C_24  and  O_25
REMARK                            x       y       z     vdW  Elec       q    Type
REMARK                         _______ _______ _______ _____ _____    ______ ____
ROOT
ATOM      1  C   UNL     1      10.553  -0.455  22.979  0.00  0.00    +0.183 C 
ATOM      2  C   UNL     1       9.514   0.187  22.050  0.00  0.00    +0.182 C 
ATOM      3  O   UNL     1       8.207  -0.091  22.605  0.00  0.00    -0.309 OA
ATOM      4  C   UNL     1       8.388  -0.817  23.831  0.00  0.00    +0.439 C 
ATOM      5  C   UNL     1       9.823  -0.534  24.304  0.00  0.00    +0.244 C 
ENDROOT
BRANCH   4   6
ATOM      6  N   UNL     1       8.171  -2.285  23.608  0.00  0.00    -0.173 N 
ATOM      7  C   UNL     1       8.611  -3.193  24.518  0.00  0.00    +0.326 A 
ATOM      8  C   UNL     1       8.271  -4.537  24.404  0.00  0.00    +0.122 A 
ATOM      9  C   UNL     1       7.537  -4.971  23.304  0.00  0.00    +0.027 A 
ATOM     10  C   UNL     1       7.155  -4.039  22.344  0.00  0.00    +0.071 A 
ATOM     11  C   UNL     1       7.491  -2.697  22.510  0.00  0.00    +0.311 A 
BRANCH   8  12
ATOM     12  C   UNL     1       8.768  -5.439  25.457  0.00  0.00    +0.343 C 
ATOM     13  O   UNL     1       8.053  -5.774  26.384  0.00  0.00    -0.245 OA
BRANCH  12  14
ATOM     14  O   UNL     1      10.027  -5.874  25.282  0.00  0.00    -0.477 OA
ATOM     15  H   UNL     1      10.710  -5.221  25.043  0.00  0.00    +0.295 HD
ENDBRANCH  12  14
ENDBRANCH   8  12
ENDBRANCH   4   6
BRANCH   1  16
ATOM     16  O   UNL     1      10.801  -1.805  22.542  0.00  0.00    -0.386 OA
ATOM     17  H   UNL     1      10.407  -2.378  23.232  0.00  0.00    +0.210 HD
ENDBRANCH   1  16
BRANCH   5  18
ATOM     18  O   UNL     1       9.860   0.683  25.050  0.00  0.00    -0.380 OA
ATOM     19  H   UNL     1       8.948   0.984  25.243  0.00  0.00    +0.210 HD
ENDBRANCH   5  18
BRANCH   2  20
ATOM     20  C   UNL     1       9.717   1.681  21.872  0.00  0.00    +0.202 C 
BRANCH  20  21
ATOM     21  O   UNL     1       8.458   2.294  22.063  0.00  0.00    -0.325 OA
BRANCH  21  22
ATOM     22  P   UNL     1       8.369   3.345  23.288  0.00  0.00    +0.210 P 
ATOM     23  O   UNL     1       7.473   4.466  22.857  0.00  0.00    -0.517 OA
ATOM     24  O   UNL     1       9.717   3.536  23.909  0.00  0.00    -0.437 OA
BRANCH  22  25
ATOM     25  O   UNL     1       7.436   2.477  24.271  0.00  0.00    -0.344 OA
ATOM     26  H   UNL     1       7.589   2.905  25.134  0.00  0.00    +0.218 HD
ENDBRANCH  22  25
ENDBRANCH  21  22
ENDBRANCH  20  21
ENDBRANCH   2  20
TORSDOF 9
ENDMDL
MODEL 3
REMARK VINA RESULT:      -6.3      3.881      7.600
REMARK  Name = 
REMARK  9 active torsions:
REMARK  status: ('A' for Active; 'I' for Inactive)
REMARK    1  A    between atoms: O_1  and  C_2
REMARK    2  A    between atoms: C_4  and  O_6
REMARK    3  A    between atoms: C_7  and  N_18
REMARK    4  A    between atoms: C_10  and  C_12
REMARK    5  A    between atoms: C_12  and  O_13
REMARK    6  A    between atoms: O_13  and  P_14
REMARK    7  A    between atoms: P_14  and  O_15
REMARK    8  A    between atoms: C_22  and  C_24
REMARK    9  A    between atoms: C_24  and  O_25
REMARK                            x       y       z     vdW  Elec       q    Type
REMARK                         _______ _______ _______ _____ _____    ______ ____
ROOT
ATOM      1  C   UNL     1       8.398  -0.329  23.319  0.00  0.00    +0.183 C 
ATOM      2  C   UNL     1       9.686  -0.462  24.142  0.00  0.00    +0.182 C 
ATOM      3  O   UNL     1      10.271  -1.745  23.823  0.00  0.00    -0.309 OA
ATOM      4  C   UNL     1       9.450  -2.377  22.830  0.00  0.00    +0.439 C 
ATOM      5  C   UNL     1       8.642  -1.260  22.149  0.00  0.00    +0.244 C 
ENDROOT
BRANCH   4   6
ATOM      6  N   UNL     1       8.544  -3.390  23.466  0.00  0.00    -0.173 N 
ATOM      7  C   UNL     1       8.805  -3.860  24.715  0.00  0.00    +0.326 A 
ATOM      8  C   UNL     1       7.887  -4.669  25.377  0.00  0.00    +0.122 A 
ATOM      9  C   UNL     1       6.724  -5.067  24.726  0.00  0.00    +0.027 A 
ATOM     10  C   UNL     1       6.506  -4.635  23.420  0.00  0.00    +0.071 A 
ATOM     11  C   UNL     1       7.436  -3.801  22.803  0.00  0.00    +0.311 A 
BRANCH   8  12
ATOM     12  C   UNL     1       8.244  -5.100  26.739  0.00  0.00    +0.343 C 
ATOM     13  O   UNL     1       7.440  -5.685  27.442  0.00  0.00    -0.245 OA
BRANCH  12  14
ATOM     14  O   UNL     1       9.509  -4.835  27.103  0.00  0.00    -0.477 OA
ATOM     15  H   UNL     1      10.162  -4.654  26.401  0.00  0.00    +0.295 HD
ENDBRANCH  12  14
ENDBRANCH   8  12
ENDBRANCH   4   6
BRANCH   1  16
ATOM     16  O   UNL     1       7.299  -0.869  24.078  0.00  0.00    -0.386 OA
ATOM     17  H   UNL     1       6.599  -0.185  24.044  0.00  0.00    +0.210 HD
ENDBRANCH   1  16
BRANCH   5  18
ATOM     18  O   UNL     1       9.412  -0.671  21.101  0.00  0.00    -0.380 OA
ATOM     19  H   UNL     1       9.300   0.302  21.110  0.00  0.00    +0.210 HD
ENDBRANCH   5  18
BRANCH   2  20
ATOM     20  C   UNL     1      10.676   0.661  23.884  0.00  0.00    +0.202 C 
BRANCH  20  21
ATOM     21  O   UNL     1      10.058   1.860  24.307  0.00  0.00    -0.325 OA
BRANCH  21  22
ATOM     22  P   UNL     1      10.159   3.102  23.278  0.00  0.00    +0.210 P 
ATOM     23  O   UNL     1      11.537   3.679  23.401  0.00  0.00    -0.517 OA
ATOM     24  O   UNL     1       8.902   3.912  23.315  0.00  0.00    -0.437 OA
BRANCH  22  25
ATOM     25  O   UNL     1      10.226   2.263  21.907  0.00  0.00    -0.344 OA
ATOM     26  H   UNL     1      10.137   2.962  21.232  0.00  0.00    +0.218 HD
ENDBRANCH  22  25
ENDBRANCH  21  22
ENDBRANCH  20  21
ENDBRANCH   2  20
TORSDOF 9
ENDMDL
MODEL 4
REMARK VINA RESULT:      -6.2      3.890      7.887
REMARK  Name = 
REMARK  9 active torsions:
REMARK  status: ('A' for Active; 'I' for Inactive)
REMARK    1  A    between atoms: O_1  and  C_2
REMARK    2  A    between atoms: C_4  and  O_6
REMARK    3  A    between atoms: C_7  and  N_18
REMARK    4  A    between atoms: C_10  and  C_12
REMARK    5  A    between atoms: C_12  and  O_13
REMARK    6  A    between atoms: O_13  and  P_14
REMARK    7  A    between atoms: P_14  and  O_15
REMARK    8  A    between atoms: C_22  and  C_24
REMARK    9  A    between atoms: C_24  and  O_25
REMARK                            x       y       z     vdW  Elec       q    Type
REMARK                         _______ _______ _______ _____ _____    ______ ____
ROOT
ATOM      1  C   UNL     1       8.322  -0.297  23.039  0.00  0.00    +0.183 C 
ATOM      2  C   UNL     1       9.386  -0.403  24.139  0.00  0.00    +0.182 C 
ATOM      3  O   UNL     1       9.989  -1.714  24.033  0.00  0.00    -0.309 OA
ATOM      4  C   UNL     1       9.393  -2.390  22.914  0.00  0.00    +0.439 C 
ATOM      5  C   UNL     1       8.795  -1.301  22.008  0.00  0.00    +0.244 C 
ENDROOT
BRANCH   4   6
ATOM      6  N   UNL     1       8.337  -3.347  23.382  0.00  0.00    -0.173 N 
ATOM      7  C   UNL     1       7.458  -3.890  22.498  0.00  0.00    +0.326 A 
ATOM      8  C   UNL     1       6.586  -4.900  22.891  0.00  0.00    +0.122 A 
ATOM      9  C   UNL     1       6.556  -5.305  24.222  0.00  0.00    +0.027 A 
ATOM     10  C   UNL     1       7.413  -4.688  25.129  0.00  0.00    +0.071 A 
ATOM     11  C   UNL     1       8.293  -3.701  24.689  0.00  0.00    +0.311 A 
BRANCH   8  12
ATOM     12  C   UNL     1       5.696  -5.448  21.855  0.00  0.00    +0.343 C 
ATOM     13  O   UNL     1       6.006  -5.410  20.678  0.00  0.00    -0.245 OA
BRANCH  12  14
ATOM     14  O   UNL     1       4.567  -6.011  22.316  0.00  0.00    -0.477 OA
ATOM     15  H   UNL     1       4.607  -6.490  23.165  0.00  0.00    +0.295 HD
ENDBRANCH  12  14
ENDBRANCH   8  12
ENDBRANCH   4   6
BRANCH   1  16
ATOM     16  O   UNL     1       7.064  -0.772  23.558  0.00  0.00    -0.386 OA
ATOM     17  H   UNL     1       7.280  -1.202  24.410  0.00  0.00    +0.210 HD
ENDBRANCH   1  16
BRANCH   5  18
ATOM     18  O   UNL     1       9.799  -0.790  21.132  0.00  0.00    -0.380 OA
ATOM     19  H   UNL     1       9.862   0.183  21.227  0.00  0.00    +0.210 HD
ENDBRANCH   5  18
BRANCH   2  20
ATOM     20  C   UNL     1      10.442   0.685  24.052  0.00  0.00    +0.202 C 
BRANCH  20  21
ATOM     21  O   UNL     1       9.795   1.910  24.329  0.00  0.00    -0.325 OA
BRANCH  21  22
ATOM     22  P   UNL     1      10.104   3.115  23.298  0.00  0.00    +0.210 P 
ATOM     23  O   UNL     1      11.519   3.553  23.525  0.00  0.00    -0.517 OA
ATOM     24  O   UNL     1       8.936   4.048  23.223  0.00  0.00    -0.437 OA
BRANCH  22  25
ATOM     25  O   UNL     1      10.193   2.247  21.946  0.00  0.00    -0.344 OA
ATOM     26  H   UNL     1       9.636   2.762  21.333  0.00  0.00    +0.218 HD
ENDBRANCH  22  25
ENDBRANCH  21  22
ENDBRANCH  20  21
ENDBRANCH   2  20
TORSDOF 9
ENDMDL
MODEL 5
REMARK VINA RESULT:      -6.1      3.662      7.500
REMARK  Name = 
REMARK  9 active torsions:
REMARK  status: ('A' for Active; 'I' for Inactive)
REMARK    1  A    between atoms: O_1  and  C_2
REMARK    2  A    between atoms: C_4  and  O_6
REMARK    3  A    between atoms: C_7  and  N_18
REMARK    4  A    between atoms: C_10  and  C_12
REMARK    5  A    between atoms: C_12  and  O_13
REMARK    6  A    between atoms: O_13  and  P_14
REMARK    7  A    between atoms: P_14  and  O_15
REMARK    8  A    between atoms: C_22  and  C_24
REMARK    9  A    between atoms: C_24  and  O_25
REMARK                            x       y       z     vdW  Elec       q    Type
REMARK                         _______ _______ _______ _____ _____    ______ ____
ROOT
ATOM      1  C   UNL     1      10.213  -0.628  22.721  0.00  0.00    +0.183 C 
ATOM      2  C   UNL     1       9.054  -0.173  21.824  0.00  0.00    +0.182 C 
ATOM      3  O   UNL     1       7.825  -0.435  22.539  0.00  0.00    -0.309 OA
ATOM      4  C   UNL     1       8.163  -0.974  23.826  0.00  0.00    +0.439 C 
ATOM      5  C   UNL     1       9.615  -0.558  24.112  0.00  0.00    +0.244 C 
ENDROOT
BRANCH   4   6
ATOM      6  N   UNL     1       8.017  -2.468  23.822  0.00  0.00    -0.173 N 
ATOM      7  C   UNL     1       7.229  -3.081  22.900  0.00  0.00    +0.326 A 
ATOM      8  C   UNL     1       7.218  -4.468  22.782  0.00  0.00    +0.122 A 
ATOM      9  C   UNL     1       7.960  -5.240  23.670  0.00  0.00    +0.027 A 
ATOM     10  C   UNL     1       8.706  -4.598  24.654  0.00  0.00    +0.071 A 
ATOM     11  C   UNL     1       8.714  -3.206  24.720  0.00  0.00    +0.311 A 
BRANCH   8  12
ATOM     12  C   UNL     1       6.357  -5.037  21.732  0.00  0.00    +0.343 C 
ATOM     13  O   UNL     1       5.787  -4.318  20.931  0.00  0.00    -0.245 OA
BRANCH  12  14
ATOM     14  O   UNL     1       6.297  -6.379  21.715  0.00  0.00    -0.477 OA
ATOM     15  H   UNL     1       6.545  -6.839  20.892  0.00  0.00    +0.295 HD
ENDBRANCH  12  14
ENDBRANCH   8  12
ENDBRANCH   4   6
BRANCH   1  16
ATOM     16  O   UNL     1      10.503  -2.013  22.445  0.00  0.00    -0.386 OA
ATOM     17  H   UNL     1      10.626  -2.063  21.475  0.00  0.00    +0.210 HD
ENDBRANCH   1  16
BRANCH   5  18
ATOM     18  O   UNL     1       9.645   0.750  24.681  0.00  0.00    -0.380 OA
ATOM     19  H   UNL     1       9.752   1.419  23.975  0.00  0.00    +0.210 HD
ENDBRANCH   5  18
BRANCH   2  20
ATOM     20  C   UNL     1       9.147   1.291  21.429  0.00  0.00    +0.202 C 
BRANCH  20  21
ATOM     21  O   UNL     1       7.871   1.858  21.646  0.00  0.00    -0.325 OA
BRANCH  21  22
ATOM     22  P   UNL     1       7.822   3.102  22.675  0.00  0.00    +0.210 P 
ATOM     23  O   UNL     1       7.363   2.575  24.000  0.00  0.00    -0.517 OA
ATOM     24  O   UNL     1       7.246   4.310  22.005  0.00  0.00    -0.437 OA
BRANCH  22  25
ATOM     25  O   UNL     1       9.406   3.297  22.879  0.00  0.00    -0.344 OA
ATOM     26  H   UNL     1       9.493   3.287  23.851  0.00  0.00    +0.218 HD
ENDBRANCH  22  25
ENDBRANCH  21  22
ENDBRANCH  20  21
ENDBRANCH   2  20
TORSDOF 9
ENDMDL
MODEL 6
REMARK VINA RESULT:      -5.9      3.457      5.144
REMARK  Name = 
REMARK  9 active torsions:
REMARK  status: ('A' for Active; 'I' for Inactive)
REMARK    1  A    between atoms: O_1  and  C_2
REMARK    2  A    between atoms: C_4  and  O_6
REMARK    3  A    between atoms: C_7  and  N_18
REMARK    4  A    between atoms: C_10  and  C_12
REMARK    5  A    between atoms: C_12  and  O_13
REMARK    6  A    between atoms: O_13  and  P_14
REMARK    7  A    between atoms: P_14  and  O_15
REMARK    8  A    between atoms: C_22  and  C_24
REMARK    9  A    between atoms: C_24  and  O_25
REMARK                            x       y       z     vdW  Elec       q    Type
REMARK                         _______ _______ _______ _____ _____    ______ ____
ROOT
ATOM      1  C   UNL     1       8.754  -1.584  25.375  0.00  0.00    +0.183 C 
ATOM      2  C   UNL     1       7.241  -1.749  25.180  0.00  0.00    +0.182 C 
ATOM      3  O   UNL     1       6.990  -1.771  23.756  0.00  0.00    -0.309 OA
ATOM      4  C   UNL     1       8.252  -1.678  23.077  0.00  0.00    +0.439 C 
ATOM      5  C   UNL     1       9.327  -2.126  24.081  0.00  0.00    +0.244 C 
ENDROOT
BRANCH   4   6
ATOM      6  N   UNL     1       8.494  -0.272  22.613  0.00  0.00    -0.173 N 
ATOM      7  C   UNL     1       7.480   0.634  22.599  0.00  0.00    +0.326 A 
ATOM      8  C   UNL     1       7.729   1.976  22.331  0.00  0.00    +0.122 A 
ATOM      9  C   UNL     1       9.017   2.385  21.997  0.00  0.00    +0.027 A 
ATOM     10  C   UNL     1      10.030   1.432  21.947  0.00  0.00    +0.071 A 
ATOM     11  C   UNL     1       9.746   0.102  22.251  0.00  0.00    +0.311 A 
BRANCH   8  12
ATOM     12  C   UNL     1       6.572   2.886  22.370  0.00  0.00    +0.343 C 
ATOM     13  O   UNL     1       6.706   4.079  22.171  0.00  0.00    -0.245 OA
BRANCH  12  14
ATOM     14  O   UNL     1       5.390   2.289  22.597  0.00  0.00    -0.477 OA
ATOM     15  H   UNL     1       4.611   2.856  22.750  0.00  0.00    +0.295 HD
ENDBRANCH  12  14
ENDBRANCH   8  12
ENDBRANCH   4   6
BRANCH   1  16
ATOM     16  O   UNL     1       9.069  -0.179  25.432  0.00  0.00    -0.386 OA
ATOM     17  H   UNL     1      10.047  -0.131  25.404  0.00  0.00    +0.210 HD
ENDBRANCH   1  16
BRANCH   5  18
ATOM     18  O   UNL     1       9.450  -3.548  24.062  0.00  0.00    -0.380 OA
ATOM     19  H   UNL     1       8.594  -3.954  23.817  0.00  0.00    +0.210 HD
ENDBRANCH   5  18
BRANCH   2  20
ATOM     20  C   UNL     1       6.688  -2.997  25.845  0.00  0.00    +0.202 C 
BRANCH  20  21
ATOM     21  O   UNL     1       7.702  -3.496  26.693  0.00  0.00    -0.325 OA
BRANCH  21  22
ATOM     22  P   UNL     1       7.967  -5.088  26.607  0.00  0.00    +0.210 P 
ATOM     23  O   UNL     1       7.644  -5.525  25.210  0.00  0.00    -0.517 OA
ATOM     24  O   UNL     1       7.460  -5.767  27.840  0.00  0.00    -0.437 OA
BRANCH  22  25
ATOM     25  O   UNL     1       9.575  -5.057  26.627  0.00  0.00    -0.344 OA
ATOM     26  H   UNL     1       9.804  -5.833  26.081  0.00  0.00    +0.218 HD
ENDBRANCH  22  25
ENDBRANCH  21  22
ENDBRANCH  20  21
ENDBRANCH   2  20
TORSDOF 9
ENDMDL
MODEL 7
REMARK VINA RESULT:      -5.8      3.036      4.662
REMARK  Name = 
REMARK  9 active torsions:
REMARK  status: ('A' for Active; 'I' for Inactive)
REMARK    1  A    between atoms: O_1  and  C_2
REMARK    2  A    between atoms: C_4  and  O_6
REMARK    3  A    between atoms: C_7  and  N_18
REMARK    4  A    between atoms: C_10  and  C_12
REMARK    5  A    between atoms: C_12  and  O_13
REMARK    6  A    between atoms: O_13  and  P_14
REMARK    7  A    between atoms: P_14  and  O_15
REMARK    8  A    between atoms: C_22  and  C_24
REMARK    9  A    between atoms: C_24  and  O_25
REMARK                            x       y       z     vdW  Elec       q    Type
REMARK                         _______ _______ _______ _____ _____    ______ ____
ROOT
ATOM      1  C   UNL     1       7.894  -2.438  22.335  0.00  0.00    +0.183 C 
ATOM      2  C   UNL     1       8.473  -3.264  23.491  0.00  0.00    +0.182 C 
ATOM      3  O   UNL     1       8.382  -2.457  24.687  0.00  0.00    -0.309 OA
ATOM      4  C   UNL     1       7.745  -1.217  24.342  0.00  0.00    +0.439 C 
ATOM      5  C   UNL     1       6.968  -1.467  23.039  0.00  0.00    +0.244 C 
ENDROOT
BRANCH   4   6
ATOM      6  N   UNL     1       8.768  -0.134  24.164  0.00  0.00    -0.173 N 
ATOM      7  C   UNL     1       8.426   1.049  23.588  0.00  0.00    +0.326 A 
ATOM      8  C   UNL     1       9.320   2.116  23.569  0.00  0.00    +0.122 A 
ATOM      9  C   UNL     1      10.605   1.946  24.073  0.00  0.00    +0.027 A 
ATOM     10  C   UNL     1      10.962   0.706  24.594  0.00  0.00    +0.071 A 
ATOM     11  C   UNL     1      10.028  -0.328  24.623  0.00  0.00    +0.311 A 
BRANCH   8  12
ATOM     12  C   UNL     1       8.846   3.366  22.953  0.00  0.00    +0.343 C 
ATOM     13  O   UNL     1       7.837   3.386  22.271  0.00  0.00    -0.245 OA
BRANCH  12  14
ATOM     14  O   UNL     1       9.583   4.453  23.238  0.00  0.00    -0.477 OA
ATOM     15  H   UNL     1      10.553   4.357  23.262  0.00  0.00    +0.295 HD
ENDBRANCH  12  14
ENDBRANCH   8  12
ENDBRANCH   4   6
BRANCH   1  16
ATOM     16  O   UNL     1       8.952  -1.666  21.735  0.00  0.00    -0.386 OA
ATOM     17  H   UNL     1       8.536  -0.822  21.463  0.00  0.00    +0.210 HD
ENDBRANCH   1  16
BRANCH   5  18
ATOM     18  O   UNL     1       5.683  -2.015  23.335  0.00  0.00    -0.380 OA
ATOM     19  H   UNL     1       5.002  -1.594  22.772  0.00  0.00    +0.210 HD
ENDBRANCH   5  18
BRANCH   2  20
ATOM     20  C   UNL     1       7.767  -4.595  23.683  0.00  0.00    +0.202 C 
BRANCH  20  21
ATOM     21  O   UNL     1       6.950  -4.796  22.547  0.00  0.00    -0.325 OA
BRANCH  21  22
ATOM     22  P   UNL     1       5.510  -5.474  22.830  0.00  0.00    +0.210 P 
ATOM     23  O   UNL     1       4.459  -4.489  22.416  0.00  0.00    -0.517 OA
ATOM     24  O   UNL     1       5.521  -6.190  24.143  0.00  0.00    -0.437 OA
BRANCH  22  25
ATOM     25  O   UNL     1       5.516  -6.542  21.627  0.00  0.00    -0.344 OA
ATOM     26  H   UNL     1       5.587  -7.390  22.104  0.00  0.00    +0.218 HD
ENDBRANCH  22  25
ENDBRANCH  21  22
ENDBRANCH  20  21
ENDBRANCH   2  20
TORSDOF 9
ENDMDL
MODEL 8
REMARK VINA RESULT:      -5.8      2.225      3.495
REMARK  Name = 
REMARK  9 active torsions:
REMARK  status: ('A' for Active; 'I' for Inactive)
REMARK    1  A    between atoms: O_1  and  C_2
REMARK    2  A    between atoms: C_4  and  O_6
REMARK    3  A    between atoms: C_7  and  N_18
REMARK    4  A    between atoms: C_10  and  C_12
REMARK    5  A    between atoms: C_12  and  O_13
REMARK    6  A    between atoms: O_13  and  P_14
REMARK    7  A    between atoms: P_14  and  O_15
REMARK    8  A    between atoms: C_22  and  C_24
REMARK    9  A    between atoms: C_24  and  O_25
REMARK                            x       y       z     vdW  Elec       q    Type
REMARK                         _______ _______ _______ _____ _____    ______ ____
ROOT
ATOM      1  C   UNL     1      10.044  -1.391  23.860  0.00  0.00    +0.183 C 
ATOM      2  C   UNL     1       8.573  -1.810  23.983  0.00  0.00    +0.182 C 
ATOM      3  O   UNL     1       7.789  -0.866  23.218  0.00  0.00    -0.309 OA
ATOM      4  C   UNL     1       8.690   0.069  22.604  0.00  0.00    +0.439 C 
ATOM      5  C   UNL     1      10.069  -0.609  22.562  0.00  0.00    +0.244 C 
ENDROOT
BRANCH   4   6
ATOM      6  N   UNL     1       8.737   1.346  23.391  0.00  0.00    -0.173 N 
ATOM      7  C   UNL     1       9.722   2.256  23.168  0.00  0.00    +0.326 A 
ATOM      8  C   UNL     1       9.681   3.510  23.770  0.00  0.00    +0.122 A 
ATOM      9  C   UNL     1       8.663   3.808  24.672  0.00  0.00    +0.027 A 
ATOM     10  C   UNL     1       7.703   2.838  24.943  0.00  0.00    +0.071 A 
ATOM     11  C   UNL     1       7.762   1.605  24.296  0.00  0.00    +0.311 A 
BRANCH   8  12
ATOM     12  C   UNL     1      10.774   4.439  23.442  0.00  0.00    +0.343 C 
ATOM     13  O   UNL     1      11.929   4.055  23.389  0.00  0.00    -0.245 OA
BRANCH  12  14
ATOM     14  O   UNL     1      10.388   5.698  23.175  0.00  0.00    -0.477 OA
ATOM     15  H   UNL     1      11.079   6.365  23.008  0.00  0.00    +0.295 HD
ENDBRANCH  12  14
ENDBRANCH   8  12
ENDBRANCH   4   6
BRANCH   1  16
ATOM     16  O   UNL     1      10.359  -0.471  24.924  0.00  0.00    -0.386 OA
ATOM     17  H   UNL     1      10.663   0.347  24.478  0.00  0.00    +0.210 HD
ENDBRANCH   1  16
BRANCH   5  18
ATOM     18  O   UNL     1      10.173  -1.433  21.401  0.00  0.00    -0.380 OA
ATOM     19  H   UNL     1      10.762  -2.194  21.583  0.00  0.00    +0.210 HD
ENDBRANCH   5  18
BRANCH   2  20
ATOM     20  C   UNL     1       8.318  -3.231  23.510  0.00  0.00    +0.202 C 
BRANCH  20  21
ATOM     21  O   UNL     1       7.654  -3.138  22.266  0.00  0.00    -0.325 OA
BRANCH  21  22
ATOM     22  P   UNL     1       6.159  -3.750  22.221  0.00  0.00    +0.210 P 
ATOM     23  O   UNL     1       5.974  -4.579  23.456  0.00  0.00    -0.517 OA
ATOM     24  O   UNL     1       5.828  -4.215  20.838  0.00  0.00    -0.437 OA
BRANCH  22  25
ATOM     25  O   UNL     1       5.346  -2.401  22.551  0.00  0.00    -0.344 OA
ATOM     26  H   UNL     1       4.621  -2.729  23.115  0.00  0.00    +0.218 HD
ENDBRANCH  22  25
ENDBRANCH  21  22
ENDBRANCH  20  21
ENDBRANCH   2  20
TORSDOF 9
ENDMDL
MODEL 9
REMARK VINA RESULT:      -5.8      4.134      5.884
REMARK  Name = 
REMARK  9 active torsions:
REMARK  status: ('A' for Active; 'I' for Inactive)
REMARK    1  A    between atoms: O_1  and  C_2
REMARK    2  A    between atoms: C_4  and  O_6
REMARK    3  A    between atoms: C_7  and  N_18
REMARK    4  A    between atoms: C_10  and  C_12
REMARK    5  A    between atoms: C_12  and  O_13
REMARK    6  A    between atoms: O_13  and  P_14
REMARK    7  A    between atoms: P_14  and  O_15
REMARK    8  A    between atoms: C_22  and  C_24
REMARK    9  A    between atoms: C_24  and  O_25
REMARK                            x       y       z     vdW  Elec       q    Type
REMARK                         _______ _______ _______ _____ _____    ______ ____
ROOT
ATOM      1  C   UNL     1       8.816  -4.270  24.613  0.00  0.00    +0.183 C 
ATOM      2  C   UNL     1       8.631  -4.082  26.125  0.00  0.00    +0.182 C 
ATOM      3  O   UNL     1       7.916  -2.840  26.321  0.00  0.00    -0.309 OA
ATOM      4  C   UNL     1       7.615  -2.288  25.030  0.00  0.00    +0.439 C 
ATOM      5  C   UNL     1       7.685  -3.451  24.026  0.00  0.00    +0.244 C 
ENDROOT
BRANCH   4   6
ATOM      6  N   UNL     1       8.598  -1.210  24.680  0.00  0.00    -0.173 N 
ATOM      7  C   UNL     1       8.709  -0.768  23.399  0.00  0.00    +0.326 A 
ATOM      8  C   UNL     1       9.493   0.340  23.094  0.00  0.00    +0.122 A 
ATOM      9  C   UNL     1      10.234   0.957  24.097  0.00  0.00    +0.027 A 
ATOM     10  C   UNL     1      10.165   0.448  25.390  0.00  0.00    +0.071 A 
ATOM     11  C   UNL     1       9.344  -0.646  25.661  0.00  0.00    +0.311 A 
BRANCH   8  12
ATOM     12  C   UNL     1       9.524   0.762  21.684  0.00  0.00    +0.343 C 
ATOM     13  O   UNL     1       9.209  -0.006  20.793  0.00  0.00    -0.245 OA
BRANCH  12  14
ATOM     14  O   UNL     1       9.880   2.042  21.482  0.00  0.00    -0.477 OA
ATOM     15  H   UNL     1       9.570   2.482  20.670  0.00  0.00    +0.295 HD
ENDBRANCH  12  14
ENDBRANCH   8  12
ENDBRANCH   4   6
BRANCH   1  16
ATOM     16  O   UNL     1      10.053  -3.648  24.211  0.00  0.00    -0.386 OA
ATOM     17  H   UNL     1      10.468  -4.277  23.586  0.00  0.00    +0.210 HD
ENDBRANCH   1  16
BRANCH   5  18
ATOM     18  O   UNL     1       6.436  -4.142  23.993  0.00  0.00    -0.380 OA
ATOM     19  H   UNL     1       6.085  -4.241  24.902  0.00  0.00    +0.210 HD
ENDBRANCH   5  18
BRANCH   2  20
ATOM     20  C   UNL     1       7.897  -5.237  26.783  0.00  0.00    +0.202 C 
BRANCH  20  21
ATOM     21  O   UNL     1       6.659  -4.732  27.239  0.00  0.00    -0.325 OA
BRANCH  21  22
ATOM     22  P   UNL     1       5.385  -5.704  27.029  0.00  0.00    +0.210 P 
ATOM     23  O   UNL     1       5.499  -6.309  25.663  0.00  0.00    -0.517 OA
ATOM     24  O   UNL     1       4.145  -5.058  27.562  0.00  0.00    -0.437 OA
BRANCH  22  25
ATOM     25  O   UNL     1       5.839  -6.898  28.006  0.00  0.00    -0.344 OA
ATOM     26  H   UNL     1       5.062  -7.488  27.988  0.00  0.00    +0.218 HD
ENDBRANCH  22  25
ENDBRANCH  21  22
ENDBRANCH  20  21
ENDBRANCH   2  20
TORSDOF 9
ENDMDL
