MODEL 1
REMARK VINA RESULT:      -6.8      0.000      0.000
REMARK  Name = 
REMARK  12 active torsions:
REMARK  status: ('A' for Active; 'I' for Inactive)
REMARK    1  A    between atoms: C_2  and  C_3
REMARK    2  A    between atoms: C_2  and  N_4
REMARK    3  A    between atoms: C_2  and  C_27
REMARK    4  A    between atoms: C_5  and  C_7
REMARK    5  A    between atoms: C_7  and  C_9
REMARK    6  A    between atoms: C_7  and  N_16
REMARK    7  A    between atoms: C_9  and  C_10
REMARK    8  A    between atoms: C_17  and  O_19
REMARK    9  A    between atoms: O_19  and  C_20
REMARK   10  A    between atoms: C_20  and  C_21
REMARK   11  A    between atoms: C_28  and  C_29
REMARK   12  A    between atoms: C_29  and  C_31
REMARK                            x       y       z     vdW  Elec       q    Type
REMARK                         _______ _______ _______ _____ _____    ______ ____
ROOT
ATOM      1  C   UNL     1       9.204  -2.732  23.863  0.00  0.00    +0.166 C 
ENDROOT
BRANCH   1   4
ATOM      2  N   UNL     1       7.532  -4.432  23.245  0.00  0.00    -0.308 N 
ATOM      3  H   UNL     1       7.926  -4.944  24.029  0.00  0.00    +0.149 HD
ATOM      4  C   UNL     1       7.976  -3.143  23.015  0.00  0.00    +0.234 C 
ATOM      5  O   UNL     1       7.389  -2.358  22.272  0.00  0.00    -0.274 OA
BRANCH   2   6
ATOM      6  C   UNL     1       6.407  -5.015  22.532  0.00  0.00    +0.093 C 
ATOM      7  C   UNL     1       6.896  -5.728  21.270  0.00  0.00    +0.032 C 
BRANCH   6   8
ATOM      8  C   UNL     1       5.665  -5.971  23.431  0.00  0.00    -0.001 C 
ATOM      9  C   UNL     1       5.437  -5.806  24.745  0.00  0.00    +0.052 C 
BRANCH   9  10
ATOM     10  C   UNL     1       4.652  -6.808  25.507  0.00  0.00    +0.218 C 
ATOM     11  O   UNL     1       3.889  -7.617  24.999  0.00  0.00    -0.285 OA
BRANCH  10  12
ATOM     12  C   UNL     1       4.812  -6.815  27.010  0.00  0.00    +0.301 C 
ATOM     13  O   UNL     1       5.887  -6.602  27.550  0.00  0.00    -0.292 OA
ENDBRANCH  10  12
ENDBRANCH   9  10
ENDBRANCH   6   8
ENDBRANCH   2   6
ENDBRANCH   1   4
BRANCH   1  14
ATOM     14  N   UNL     1       8.776  -1.825  24.929  0.00  0.00    -0.269 N 
ATOM     15  H   UNL     1       8.662  -0.839  24.728  0.00  0.00    +0.153 HD
ATOM     16  C   UNL     1       8.192  -2.247  26.084  0.00  0.00    +0.401 C 
ATOM     17  O   UNL     1       7.993  -3.420  26.360  0.00  0.00    -0.226 OA
BRANCH  16  18
ATOM     18  O   UNL     1       7.830  -1.172  26.820  0.00  0.00    -0.446 OA
BRANCH  18  19
ATOM     19  C   UNL     1       6.583  -0.557  26.473  0.00  0.00    +0.269 C 
BRANCH  19  20
ATOM     20  C   UNL     1       6.756   0.663  25.603  0.00  0.00    -0.010 A 
ATOM     21  C   UNL     1       7.328   1.833  26.124  0.00  0.00    +0.007 A 
ATOM     22  C   UNL     1       7.411   2.990  25.345  0.00  0.00    +0.000 A 
ATOM     23  C   UNL     1       6.933   2.989  24.036  0.00  0.00    +0.000 A 
ATOM     24  C   UNL     1       6.375   1.828  23.502  0.00  0.00    +0.000 A 
ATOM     25  C   UNL     1       6.290   0.671  24.279  0.00  0.00    +0.007 A 
ENDBRANCH  19  20
ENDBRANCH  18  19
ENDBRANCH  16  18
ENDBRANCH   1  14
BRANCH   1  26
ATOM     26  C   UNL     1      10.257  -2.025  22.993  0.00  0.00    +0.067 C 
BRANCH  26  27
ATOM     27  C   UNL     1      10.192  -0.516  22.988  0.00  0.00    -0.045 A 
ATOM     28  C   UNL     1       9.715   0.189  21.874  0.00  0.00    +0.004 A 
ATOM     29  C   UNL     1       9.716   1.585  21.864  0.00  0.00    +0.000 A 
ATOM     30  C   UNL     1      10.200   2.293  22.964  0.00  0.00    +0.000 A 
ATOM     31  C   UNL     1      10.675   1.605  24.078  0.00  0.00    +0.000 A 
ATOM     32  C   UNL     1      10.669   0.209  24.091  0.00  0.00    +0.004 A 
ENDBRANCH  26  27
ENDBRANCH   1  26
TORSDOF 11
ENDMDL
MODEL 2
REMARK VINA RESULT:      -6.7      1.796      3.088
REMARK  Name = 
REMARK  12 active torsions:
REMARK  status: ('A' for Active; 'I' for Inactive)
REMARK    1  A    between atoms: C_2  and  C_3
REMARK    2  A    between atoms: C_2  and  N_4
REMARK    3  A    between atoms: C_2  and  C_27
REMARK    4  A    between atoms: C_5  and  C_7
REMARK    5  A    between atoms: C_7  and  C_9
REMARK    6  A    between atoms: C_7  and  N_16
REMARK    7  A    between atoms: C_9  and  C_10
REMARK    8  A    between atoms: C_17  and  O_19
REMARK    9  A    between atoms: O_19  and  C_20
REMARK   10  A    between atoms: C_20  and  C_21
REMARK   11  A    between atoms: C_28  and  C_29
REMARK   12  A    between atoms: C_29  and  C_31
REMARK                            x       y       z     vdW  Elec       q    Type
REMARK                         _______ _______ _______ _____ _____    ______ ____
ROOT
ATOM      1  C   UNL     1       9.263  -2.115  25.043  0.00  0.00    +0.166 C 
ENDROOT
BRANCH   1   4
ATOM      2  N   UNL     1       7.634  -3.854  25.665  0.00  0.00    -0.308 N 
ATOM      3  H   UNL     1       7.012  -3.063  25.809  0.00  0.00    +0.149 HD
ATOM      4  C   UNL     1       8.888  -3.614  25.133  0.00  0.00    +0.234 C 
ATOM      5  O   UNL     1       9.602  -4.507  24.682  0.00  0.00    -0.274 OA
BRANCH   2   6
ATOM      6  C   UNL     1       7.104  -5.195  25.856  0.00  0.00    +0.093 C 
ATOM      7  C   UNL     1       6.348  -5.277  27.183  0.00  0.00    +0.032 C 
BRANCH   6   8
ATOM      8  C   UNL     1       6.204  -5.564  24.704  0.00  0.00    -0.001 C 
ATOM      9  C   UNL     1       6.324  -5.134  23.437  0.00  0.00    +0.052 C 
BRANCH   9  10
ATOM     10  C   UNL     1       5.392  -5.610  22.386  0.00  0.00    +0.218 C 
ATOM     11  O   UNL     1       4.184  -5.724  22.537  0.00  0.00    -0.285 OA
BRANCH  10  12
ATOM     12  C   UNL     1       5.987  -5.977  21.046  0.00  0.00    +0.301 C 
ATOM     13  O   UNL     1       5.960  -5.214  20.092  0.00  0.00    -0.292 OA
ENDBRANCH  10  12
ENDBRANCH   9  10
ENDBRANCH   6   8
ENDBRANCH   2   6
ENDBRANCH   1   4
BRANCH   1  14
ATOM     14  N   UNL     1       8.041  -1.308  25.030  0.00  0.00    -0.269 N 
ATOM     15  H   UNL     1       7.312  -1.519  24.360  0.00  0.00    +0.153 HD
ATOM     16  C   UNL     1       7.658  -0.513  26.066  0.00  0.00    +0.401 C 
ATOM     17  O   UNL     1       8.304  -0.368  27.093  0.00  0.00    -0.226 OA
BRANCH  16  18
ATOM     18  O   UNL     1       6.448   0.025  25.791  0.00  0.00    -0.446 OA
BRANCH  18  19
ATOM     19  C   UNL     1       6.147   0.236  24.406  0.00  0.00    +0.269 C 
BRANCH  19  20
ATOM     20  C   UNL     1       6.472   1.635  23.944  0.00  0.00    -0.010 A 
ATOM     21  C   UNL     1       6.322   1.991  22.596  0.00  0.00    +0.007 A 
ATOM     22  C   UNL     1       6.703   3.261  22.152  0.00  0.00    +0.000 A 
ATOM     23  C   UNL     1       7.228   4.189  23.049  0.00  0.00    +0.000 A 
ATOM     24  C   UNL     1       7.368   3.851  24.394  0.00  0.00    +0.000 A 
ATOM     25  C   UNL     1       6.989   2.583  24.840  0.00  0.00    +0.007 A 
ENDBRANCH  19  20
ENDBRANCH  18  19
ENDBRANCH  16  18
ENDBRANCH   1  14
BRANCH   1  26
ATOM     26  C   UNL     1      10.067  -1.829  23.762  0.00  0.00    +0.067 C 
BRANCH  26  27
ATOM     27  C   UNL     1      10.201  -0.373  23.387  0.00  0.00    -0.045 A 
ATOM     28  C   UNL     1      10.678   0.574  24.304  0.00  0.00    +0.004 A 
ATOM     29  C   UNL     1      10.741   1.926  23.959  0.00  0.00    +0.000 A 
ATOM     30  C   UNL     1      10.323   2.348  22.697  0.00  0.00    +0.000 A 
ATOM     31  C   UNL     1       9.849   1.416  21.776  0.00  0.00    +0.000 A 
ATOM     32  C   UNL     1       9.791   0.064  22.118  0.00  0.00    +0.004 A 
ENDBRANCH  26  27
ENDBRANCH   1  26
TORSDOF 11
ENDMDL
MODEL 3
REMARK VINA RESULT:      -6.7      1.082      1.861
REMARK  Name = 
REMARK  12 active torsions:
REMARK  status: ('A' for Active; 'I' for Inactive)
REMARK    1  A    between atoms: C_2  and  C_3
REMARK    2  A    between atoms: C_2  and  N_4
REMARK    3  A    between atoms: C_2  and  C_27
REMARK    4  A    between atoms: C_5  and  C_7
REMARK    5  A    between atoms: C_7  and  C_9
REMARK    6  A    between atoms: C_7  and  N_16
REMARK    7  A    between atoms: C_9  and  C_10
REMARK    8  A    between atoms: C_17  and  O_19
REMARK    9  A    between atoms: O_19  and  C_20
REMARK   10  A    between atoms: C_20  and  C_21
REMARK   11  A    between atoms: C_28  and  C_29
REMARK   12  A    between atoms: C_29  and  C_31
REMARK                            x       y       z     vdW  Elec       q    Type
REMARK                         _______ _______ _______ _____ _____    ______ ____
ROOT
ATOM      1  C   UNL     1       8.947  -2.542  24.380  0.00  0.00    +0.166 C 
ENDROOT
BRANCH   1   4
ATOM      2  N   UNL     1       7.101  -3.489  23.053  0.00  0.00    -0.308 N 
ATOM      3  H   UNL     1       6.951  -2.522  22.778  0.00  0.00    +0.149 HD
ATOM      4  C   UNL     1       8.204  -3.784  23.833  0.00  0.00    +0.234 C 
ATOM      5  O   UNL     1       8.615  -4.931  23.997  0.00  0.00    -0.274 OA
BRANCH   2   6
ATOM      6  C   UNL     1       6.255  -4.515  22.465  0.00  0.00    +0.093 C 
ATOM      7  C   UNL     1       7.112  -5.535  21.713  0.00  0.00    +0.032 C 
BRANCH   6   8
ATOM      8  C   UNL     1       5.440  -5.191  23.539  0.00  0.00    -0.001 C 
ATOM      9  C   UNL     1       5.193  -6.508  23.634  0.00  0.00    +0.052 C 
BRANCH   9  10
ATOM     10  C   UNL     1       4.408  -7.049  24.770  0.00  0.00    +0.218 C 
ATOM     11  O   UNL     1       3.560  -7.924  24.667  0.00  0.00    -0.285 OA
BRANCH  10  12
ATOM     12  C   UNL     1       4.683  -6.472  26.140  0.00  0.00    +0.301 C 
ATOM     13  O   UNL     1       5.713  -6.715  26.752  0.00  0.00    -0.292 OA
ENDBRANCH  10  12
ENDBRANCH   9  10
ENDBRANCH   6   8
ENDBRANCH   2   6
ENDBRANCH   1   4
BRANCH   1  14
ATOM     14  N   UNL     1       7.999  -1.437  24.534  0.00  0.00    -0.269 N 
ATOM     15  H   UNL     1       7.414  -1.170  23.751  0.00  0.00    +0.153 HD
ATOM     16  C   UNL     1       7.595  -0.959  25.742  0.00  0.00    +0.401 C 
ATOM     17  O   UNL     1       8.002  -1.379  26.815  0.00  0.00    -0.226 OA
BRANCH  16  18
ATOM     18  O   UNL     1       6.651  -0.008  25.554  0.00  0.00    -0.446 OA
BRANCH  18  19
ATOM     19  C   UNL     1       6.327   0.302  24.192  0.00  0.00    +0.269 C 
BRANCH  19  20
ATOM     20  C   UNL     1       6.637   1.733  23.830  0.00  0.00    -0.010 A 
ATOM     21  C   UNL     1       6.415   2.202  22.528  0.00  0.00    +0.007 A 
ATOM     22  C   UNL     1       6.780   3.502  22.170  0.00  0.00    +0.000 A 
ATOM     23  C   UNL     1       7.362   4.351  23.109  0.00  0.00    +0.000 A 
ATOM     24  C   UNL     1       7.574   3.902  24.412  0.00  0.00    +0.000 A 
ATOM     25  C   UNL     1       7.211   2.602  24.772  0.00  0.00    +0.007 A 
ENDBRANCH  19  20
ENDBRANCH  18  19
ENDBRANCH  16  18
ENDBRANCH   1  14
BRANCH   1  26
ATOM     26  C   UNL     1      10.070  -2.110  23.420  0.00  0.00    +0.067 C 
BRANCH  26  27
ATOM     27  C   UNL     1      10.201  -0.623  23.197  0.00  0.00    -0.045 A 
ATOM     28  C   UNL     1      10.684   0.225  24.203  0.00  0.00    +0.004 A 
ATOM     29  C   UNL     1      10.745   1.605  23.999  0.00  0.00    +0.000 A 
ATOM     30  C   UNL     1      10.318   2.155  22.791  0.00  0.00    +0.000 A 
ATOM     31  C   UNL     1       9.838   1.323  21.781  0.00  0.00    +0.000 A 
ATOM     32  C   UNL     1       9.782  -0.058  21.982  0.00  0.00    +0.004 A 
ENDBRANCH  26  27
ENDBRANCH   1  26
TORSDOF 11
ENDMDL
MODEL 4
REMARK VINA RESULT:      -6.4      2.684      7.954
REMARK  Name = 
REMARK  12 active torsions:
REMARK  status: ('A' for Active; 'I' for Inactive)
REMARK    1  A    between atoms: C_2  and  C_3
REMARK    2  A    between atoms: C_2  and  N_4
REMARK    3  A    between atoms: C_2  and  C_27
REMARK    4  A    between atoms: C_5  and  C_7
REMARK    5  A    between atoms: C_7  and  C_9
REMARK    6  A    between atoms: C_7  and  N_16
REMARK    7  A    between atoms: C_9  and  C_10
REMARK    8  A    between atoms: C_17  and  O_19
REMARK    9  A    between atoms: O_19  and  C_20
REMARK   10  A    between atoms: C_20  and  C_21
REMARK   11  A    between atoms: C_28  and  C_29
REMARK   12  A    between atoms: C_29  and  C_31
REMARK                            x       y       z     vdW  Elec       q    Type
REMARK                         _______ _______ _______ _____ _____    ______ ____
ROOT
ATOM      1  C   UNL     1       9.038  -2.953  24.121  0.00  0.00    +0.166 C 
ENDROOT
BRANCH   1   4
ATOM      2  N   UNL     1       9.435  -0.587  23.565  0.00  0.00    -0.308 N 
ATOM      3  H   UNL     1       8.782  -0.415  24.325  0.00  0.00    +0.149 HD
ATOM      4  C   UNL     1       9.835  -1.890  23.328  0.00  0.00    +0.234 C 
ATOM      5  O   UNL     1      10.801  -2.172  22.623  0.00  0.00    -0.274 OA
BRANCH   2   6
ATOM      6  C   UNL     1      10.042   0.555  22.901  0.00  0.00    +0.093 C 
ATOM      7  C   UNL     1       9.424   0.746  21.515  0.00  0.00    +0.032 C 
BRANCH   6   8
ATOM      8  C   UNL     1       9.866   1.795  23.741  0.00  0.00    -0.001 C 
ATOM      9  C   UNL     1       9.522   3.013  23.290  0.00  0.00    +0.052 C 
BRANCH   9  10
ATOM     10  C   UNL     1       9.339   4.144  24.233  0.00  0.00    +0.218 C 
ATOM     11  O   UNL     1       8.600   4.116  25.206  0.00  0.00    -0.285 OA
BRANCH  10  12
ATOM     12  C   UNL     1      10.122   5.407  23.960  0.00  0.00    +0.301 C 
ATOM     13  O   UNL     1       9.635   6.357  23.364  0.00  0.00    -0.292 OA
ENDBRANCH  10  12
ENDBRANCH   9  10
ENDBRANCH   6   8
ENDBRANCH   2   6
ENDBRANCH   1   4
BRANCH   1  14
ATOM     14  N   UNL     1       7.824  -3.303  23.380  0.00  0.00    -0.269 N 
ATOM     15  H   UNL     1       7.302  -2.576  22.907  0.00  0.00    +0.153 HD
ATOM     16  C   UNL     1       7.523  -4.572  22.992  0.00  0.00    +0.401 C 
ATOM     17  O   UNL     1       8.215  -5.547  23.244  0.00  0.00    -0.226 OA
BRANCH  16  18
ATOM     18  O   UNL     1       6.392  -4.556  22.251  0.00  0.00    -0.446 OA
BRANCH  18  19
ATOM     19  C   UNL     1       5.559  -5.719  22.339  0.00  0.00    +0.269 C 
BRANCH  19  20
ATOM     20  C   UNL     1       4.668  -5.707  23.557  0.00  0.00    -0.010 A 
ATOM     21  C   UNL     1       4.591  -6.831  24.392  0.00  0.00    +0.007 A 
ATOM     22  C   UNL     1       3.704  -6.852  25.472  0.00  0.00    +0.000 A 
ATOM     23  C   UNL     1       2.891  -5.752  25.733  0.00  0.00    +0.000 A 
ATOM     24  C   UNL     1       2.969  -4.623  24.919  0.00  0.00    +0.000 A 
ATOM     25  C   UNL     1       3.854  -4.599  23.838  0.00  0.00    +0.007 A 
ENDBRANCH  19  20
ENDBRANCH  18  19
ENDBRANCH  16  18
ENDBRANCH   1  14
BRANCH   1  26
ATOM     26  C   UNL     1       8.643  -2.418  25.509  0.00  0.00    +0.067 C 
BRANCH  26  27
ATOM     27  C   UNL     1       7.727  -3.308  26.315  0.00  0.00    -0.045 A 
ATOM     28  C   UNL     1       8.102  -4.612  26.665  0.00  0.00    +0.004 A 
ATOM     29  C   UNL     1       7.219  -5.441  27.361  0.00  0.00    +0.000 A 
ATOM     30  C   UNL     1       5.951  -4.978  27.710  0.00  0.00    +0.000 A 
ATOM     31  C   UNL     1       5.567  -3.683  27.369  0.00  0.00    +0.000 A 
ATOM     32  C   UNL     1       6.451  -2.852  26.678  0.00  0.00    +0.004 A 
ENDBRANCH  26  27
ENDBRANCH   1  26
TORSDOF 11
ENDMDL
MODEL 5
REMARK VINA RESULT:      -6.3      1.868      4.430
REMARK  Name = 
REMARK  12 active torsions:
REMARK  status: ('A' for Active; 'I' for Inactive)
REMARK    1  A    between atoms: C_2  and  C_3
REMARK    2  A    between atoms: C_2  and  N_4
REMARK    3  A    between atoms: C_2  and  C_27
REMARK    4  A    between atoms: C_5  and  C_7
REMARK    5  A    between atoms: C_7  and  C_9
REMARK    6  A    between atoms: C_7  and  N_16
REMARK    7  A    between atoms: C_9  and  C_10
REMARK    8  A    between atoms: C_17  and  O_19
REMARK    9  A    between atoms: O_19  and  C_20
REMARK   10  A    between atoms: C_20  and  C_21
REMARK   11  A    between atoms: C_28  and  C_29
REMARK   12  A    between atoms: C_29  and  C_31
REMARK                            x       y       z     vdW  Elec       q    Type
REMARK                         _______ _______ _______ _____ _____    ______ ____
ROOT
ATOM      1  C   UNL     1       8.370  -3.421  25.837  0.00  0.00    +0.166 C 
ENDROOT
BRANCH   1   4
ATOM      2  N   UNL     1       6.097  -4.060  26.538  0.00  0.00    -0.308 N 
ATOM      3  H   UNL     1       5.835  -3.180  26.102  0.00  0.00    +0.149 HD
ATOM      4  C   UNL     1       7.409  -4.482  26.427  0.00  0.00    +0.234 C 
ATOM      5  O   UNL     1       7.764  -5.630  26.684  0.00  0.00    -0.274 OA
BRANCH   2   6
ATOM      6  C   UNL     1       5.045  -4.899  27.089  0.00  0.00    +0.093 C 
ATOM      7  C   UNL     1       4.348  -4.177  28.245  0.00  0.00    +0.032 C 
BRANCH   6   8
ATOM      8  C   UNL     1       4.055  -5.262  26.012  0.00  0.00    -0.001 C 
ATOM      9  C   UNL     1       4.352  -5.599  24.746  0.00  0.00    +0.052 C 
BRANCH   9  10
ATOM     10  C   UNL     1       3.279  -5.978  23.794  0.00  0.00    +0.218 C 
ATOM     11  O   UNL     1       2.886  -5.267  22.880  0.00  0.00    -0.285 OA
BRANCH  10  12
ATOM     12  C   UNL     1       2.637  -7.334  23.977  0.00  0.00    +0.301 C 
ATOM     13  O   UNL     1       3.200  -8.245  24.566  0.00  0.00    -0.292 OA
ENDBRANCH  10  12
ENDBRANCH   9  10
ENDBRANCH   6   8
ENDBRANCH   2   6
ENDBRANCH   1   4
BRANCH   1  14
ATOM     14  N   UNL     1       7.641  -2.168  25.629  0.00  0.00    -0.269 N 
ATOM     15  H   UNL     1       6.643  -2.194  25.461  0.00  0.00    +0.153 HD
ATOM     16  C   UNL     1       8.133  -0.949  25.980  0.00  0.00    +0.401 C 
ATOM     17  O   UNL     1       9.237  -0.772  26.473  0.00  0.00    -0.226 OA
BRANCH  16  18
ATOM     18  O   UNL     1       7.193  -0.004  25.748  0.00  0.00    -0.446 OA
BRANCH  18  19
ATOM     19  C   UNL     1       6.791   0.169  24.383  0.00  0.00    +0.269 C 
BRANCH  19  20
ATOM     20  C   UNL     1       7.884   0.750  23.522  0.00  0.00    -0.010 A 
ATOM     21  C   UNL     1       8.394   0.027  22.435  0.00  0.00    +0.007 A 
ATOM     22  C   UNL     1       9.464   0.528  21.688  0.00  0.00    +0.000 A 
ATOM     23  C   UNL     1      10.030   1.759  22.014  0.00  0.00    +0.000 A 
ATOM     24  C   UNL     1       9.522   2.495  23.084  0.00  0.00    +0.000 A 
ATOM     25  C   UNL     1       8.454   1.995  23.832  0.00  0.00    +0.007 A 
ENDBRANCH  19  20
ENDBRANCH  18  19
ENDBRANCH  16  18
ENDBRANCH   1  14
BRANCH   1  26
ATOM     26  C   UNL     1       8.948  -3.895  24.493  0.00  0.00    +0.067 C 
BRANCH  26  27
ATOM     27  C   UNL     1       7.933  -4.325  23.461  0.00  0.00    -0.045 A 
ATOM     28  C   UNL     1       7.805  -5.668  23.080  0.00  0.00    +0.004 A 
ATOM     29  C   UNL     1       6.902  -6.039  22.083  0.00  0.00    +0.000 A 
ATOM     30  C   UNL     1       6.120  -5.073  21.450  0.00  0.00    +0.000 A 
ATOM     31  C   UNL     1       6.235  -3.736  21.821  0.00  0.00    +0.000 A 
ATOM     32  C   UNL     1       7.134  -3.364  22.822  0.00  0.00    +0.004 A 
ENDBRANCH  26  27
ENDBRANCH   1  26
TORSDOF 11
ENDMDL
MODEL 6
REMARK VINA RESULT:      -6.2      2.046      6.461
REMARK  Name = 
REMARK  12 active torsions:
REMARK  status: ('A' for Active; 'I' for Inactive)
REMARK    1  A    between atoms: C_2  and  C_3
REMARK    2  A    between atoms: C_2  and  N_4
REMARK    3  A    between atoms: C_2  and  C_27
REMARK    4  A    between atoms: C_5  and  C_7
REMARK    5  A    between atoms: C_7  and  C_9
REMARK    6  A    between atoms: C_7  and  N_16
REMARK    7  A    between atoms: C_9  and  C_10
REMARK    8  A    between atoms: C_17  and  O_19
REMARK    9  A    between atoms: O_19  and  C_20
REMARK   10  A    between atoms: C_20  and  C_21
REMARK   11  A    between atoms: C_28  and  C_29
REMARK   12  A    between atoms: C_29  and  C_31
REMARK                            x       y       z     vdW  Elec       q    Type
REMARK                         _______ _______ _______ _____ _____    ______ ____
ROOT
ATOM      1  C   UNL     1       7.628  -3.714  25.972  0.00  0.00    +0.166 C 
ENDROOT
BRANCH   1   4
ATOM      2  N   UNL     1       7.062  -1.326  26.178  0.00  0.00    -0.308 N 
ATOM      3  H   UNL     1       7.734  -1.216  25.423  0.00  0.00    +0.149 HD
ATOM      4  C   UNL     1       6.735  -2.607  26.583  0.00  0.00    +0.234 C 
ATOM      5  O   UNL     1       5.760  -2.854  27.290  0.00  0.00    -0.274 OA
BRANCH   2   6
ATOM      6  C   UNL     1       6.358  -0.147  26.656  0.00  0.00    +0.093 C 
ATOM      7  C   UNL     1       7.153   0.519  27.781  0.00  0.00    +0.032 C 
BRANCH   6   8
ATOM      8  C   UNL     1       6.133   0.817  25.518  0.00  0.00    -0.001 C 
ATOM      9  C   UNL     1       7.088   1.434  24.804  0.00  0.00    +0.052 C 
BRANCH   9  10
ATOM     10  C   UNL     1       6.728   2.330  23.677  0.00  0.00    +0.218 C 
ATOM     11  O   UNL     1       6.217   1.952  22.633  0.00  0.00    -0.285 OA
BRANCH  10  12
ATOM     12  C   UNL     1       7.021   3.803  23.842  0.00  0.00    +0.301 C 
ATOM     13  O   UNL     1       7.780   4.403  23.095  0.00  0.00    -0.292 OA
ENDBRANCH  10  12
ENDBRANCH   9  10
ENDBRANCH   6   8
ENDBRANCH   2   6
ENDBRANCH   1   4
BRANCH   1  14
ATOM     14  N   UNL     1       8.514  -3.124  24.966  0.00  0.00    -0.269 N 
ATOM     15  H   UNL     1       8.405  -2.148  24.718  0.00  0.00    +0.153 HD
ATOM     16  C   UNL     1       9.691  -3.688  24.582  0.00  0.00    +0.401 C 
ATOM     17  O   UNL     1      10.113  -4.751  25.011  0.00  0.00    -0.226 OA
BRANCH  16  18
ATOM     18  O   UNL     1      10.318  -2.862  23.713  0.00  0.00    -0.446 OA
BRANCH  18  19
ATOM     19  C   UNL     1       9.473  -2.054  22.883  0.00  0.00    +0.269 C 
BRANCH  19  20
ATOM     20  C   UNL     1       9.783  -0.582  22.992  0.00  0.00    -0.010 A 
ATOM     21  C   UNL     1       9.559   0.275  21.906  0.00  0.00    +0.007 A 
ATOM     22  C   UNL     1       9.924   1.622  21.977  0.00  0.00    +0.000 A 
ATOM     23  C   UNL     1      10.509   2.129  23.135  0.00  0.00    +0.000 A 
ATOM     24  C   UNL     1      10.724   1.290  24.228  0.00  0.00    +0.000 A 
ATOM     25  C   UNL     1      10.361  -0.056  24.159  0.00  0.00    +0.007 A 
ENDBRANCH  19  20
ENDBRANCH  18  19
ENDBRANCH  16  18
ENDBRANCH   1  14
BRANCH   1  26
ATOM     26  C   UNL     1       6.770  -4.805  25.308  0.00  0.00    +0.067 C 
BRANCH  26  27
ATOM     27  C   UNL     1       6.561  -4.656  23.820  0.00  0.00    -0.045 A 
ATOM     28  C   UNL     1       5.820  -3.590  23.291  0.00  0.00    +0.004 A 
ATOM     29  C   UNL     1       5.589  -3.500  21.918  0.00  0.00    +0.000 A 
ATOM     30  C   UNL     1       6.089  -4.477  21.057  0.00  0.00    +0.000 A 
ATOM     31  C   UNL     1       6.830  -5.539  21.569  0.00  0.00    +0.000 A 
ATOM     32  C   UNL     1       7.067  -5.627  22.942  0.00  0.00    +0.004 A 
ENDBRANCH  26  27
ENDBRANCH   1  26
TORSDOF 11
ENDMDL
MODEL 7
REMARK VINA RESULT:      -6.2      2.223      7.275
REMARK  Name = 
REMARK  12 active torsions:
REMARK  status: ('A' for Active; 'I' for Inactive)
REMARK    1  A    between atoms: C_2  and  C_3
REMARK    2  A    between atoms: C_2  and  N_4
REMARK    3  A    between atoms: C_2  and  C_27
REMARK    4  A    between atoms: C_5  and  C_7
REMARK    5  A    between atoms: C_7  and  C_9
REMARK    6  A    between atoms: C_7  and  N_16
REMARK    7  A    between atoms: C_9  and  C_10
REMARK    8  A    between atoms: C_17  and  O_19
REMARK    9  A    between atoms: O_19  and  C_20
REMARK   10  A    between atoms: C_20  and  C_21
REMARK   11  A    between atoms: C_28  and  C_29
REMARK   12  A    between atoms: C_29  and  C_31
REMARK                            x       y       z     vdW  Elec       q    Type
REMARK                         _______ _______ _______ _____ _____    ______ ____
ROOT
ATOM      1  C   UNL     1       5.767  -3.651  27.289  0.00  0.00    +0.166 C 
ENDROOT
BRANCH   1   4
ATOM      2  N   UNL     1       6.537  -1.634  26.102  0.00  0.00    -0.308 N 
ATOM      3  H   UNL     1       7.182  -2.280  25.655  0.00  0.00    +0.149 HD
ATOM      4  C   UNL     1       5.576  -2.152  26.952  0.00  0.00    +0.234 C 
ATOM      5  O   UNL     1       4.602  -1.504  27.330  0.00  0.00    -0.274 OA
BRANCH   2   6
ATOM      6  C   UNL     1       6.549  -0.242  25.684  0.00  0.00    +0.093 C 
ATOM      7  C   UNL     1       7.363   0.596  26.672  0.00  0.00    +0.032 C 
BRANCH   6   8
ATOM      8  C   UNL     1       7.115  -0.125  24.292  0.00  0.00    -0.001 C 
ATOM      9  C   UNL     1       8.417  -0.064  23.970  0.00  0.00    +0.052 C 
BRANCH   9  10
ATOM     10  C   UNL     1       8.842   0.006  22.550  0.00  0.00    +0.218 C 
ATOM     11  O   UNL     1       8.473   0.864  21.762  0.00  0.00    -0.285 OA
BRANCH  10  12
ATOM     12  C   UNL     1       9.794  -1.060  22.058  0.00  0.00    +0.301 C 
ATOM     13  O   UNL     1      10.269  -1.902  22.806  0.00  0.00    -0.292 OA
ENDBRANCH  10  12
ENDBRANCH   9  10
ENDBRANCH   6   8
ENDBRANCH   2   6
ENDBRANCH   1   4
BRANCH   1  14
ATOM     14  N   UNL     1       6.712  -4.245  26.342  0.00  0.00    -0.269 N 
ATOM     15  H   UNL     1       6.950  -3.744  25.495  0.00  0.00    +0.153 HD
ATOM     16  C   UNL     1       7.557  -5.261  26.665  0.00  0.00    +0.401 C 
ATOM     17  O   UNL     1       7.594  -5.798  27.762  0.00  0.00    -0.226 OA
BRANCH  16  18
ATOM     18  O   UNL     1       8.364  -5.524  25.612  0.00  0.00    -0.446 OA
BRANCH  18  19
ATOM     19  C   UNL     1       8.563  -4.450  24.683  0.00  0.00    +0.269 C 
BRANCH  19  20
ATOM     20  C   UNL     1       7.768  -4.622  23.412  0.00  0.00    -0.010 A 
ATOM     21  C   UNL     1       7.077  -3.539  22.853  0.00  0.00    +0.007 A 
ATOM     22  C   UNL     1       6.272  -3.717  21.725  0.00  0.00    +0.000 A 
ATOM     23  C   UNL     1       6.156  -4.975  21.138  0.00  0.00    +0.000 A 
ATOM     24  C   UNL     1       6.850  -6.058  21.676  0.00  0.00    +0.000 A 
ATOM     25  C   UNL     1       7.654  -5.883  22.805  0.00  0.00    +0.007 A 
ENDBRANCH  19  20
ENDBRANCH  18  19
ENDBRANCH  16  18
ENDBRANCH   1  14
BRANCH   1  26
ATOM     26  C   UNL     1       4.428  -4.404  27.202  0.00  0.00    +0.067 C 
BRANCH  26  27
ATOM     27  C   UNL     1       4.108  -5.014  25.858  0.00  0.00    -0.045 A 
ATOM     28  C   UNL     1       4.400  -6.356  25.579  0.00  0.00    +0.004 A 
ATOM     29  C   UNL     1       4.150  -6.887  24.313  0.00  0.00    +0.000 A 
ATOM     30  C   UNL     1       3.612  -6.083  23.308  0.00  0.00    +0.000 A 
ATOM     31  C   UNL     1       3.315  -4.748  23.574  0.00  0.00    +0.000 A 
ATOM     32  C   UNL     1       3.559  -4.217  24.842  0.00  0.00    +0.004 A 
ENDBRANCH  26  27
ENDBRANCH   1  26
TORSDOF 11
ENDMDL
MODEL 8
REMARK VINA RESULT:      -6.1      2.143      3.147
REMARK  Name = 
REMARK  12 active torsions:
REMARK  status: ('A' for Active; 'I' for Inactive)
REMARK    1  A    between atoms: C_2  and  C_3
REMARK    2  A    between atoms: C_2  and  N_4
REMARK    3  A    between atoms: C_2  and  C_27
REMARK    4  A    between atoms: C_5  and  C_7
REMARK    5  A    between atoms: C_7  and  C_9
REMARK    6  A    between atoms: C_7  and  N_16
REMARK    7  A    between atoms: C_9  and  C_10
REMARK    8  A    between atoms: C_17  and  O_19
REMARK    9  A    between atoms: O_19  and  C_20
REMARK   10  A    between atoms: C_20  and  C_21
REMARK   11  A    between atoms: C_28  and  C_29
REMARK   12  A    between atoms: C_29  and  C_31
REMARK                            x       y       z     vdW  Elec       q    Type
REMARK                         _______ _______ _______ _____ _____    ______ ____
ROOT
ATOM      1  C   UNL     1       9.890  -0.724  24.448  0.00  0.00    +0.166 C 
ENDROOT
BRANCH   1   4
ATOM      2  N   UNL     1       8.993  -2.996  24.761  0.00  0.00    -0.308 N 
ATOM      3  H   UNL     1       8.369  -2.539  25.419  0.00  0.00    +0.149 HD
ATOM      4  C   UNL     1       9.844  -2.207  24.009  0.00  0.00    +0.234 C 
ATOM      5  O   UNL     1      10.439  -2.625  23.018  0.00  0.00    -0.274 OA
BRANCH   2   6
ATOM      6  C   UNL     1       8.826  -4.421  24.523  0.00  0.00    +0.093 C 
ATOM      7  C   UNL     1       8.427  -5.127  25.820  0.00  0.00    +0.032 C 
BRANCH   6   8
ATOM      8  C   UNL     1       7.791  -4.648  23.451  0.00  0.00    -0.001 C 
ATOM      9  C   UNL     1       6.495  -4.937  23.652  0.00  0.00    +0.052 C 
BRANCH   9  10
ATOM     10  C   UNL     1       5.569  -5.094  22.503  0.00  0.00    +0.218 C 
ATOM     11  O   UNL     1       4.431  -4.649  22.469  0.00  0.00    -0.285 OA
BRANCH  10  12
ATOM     12  C   UNL     1       6.078  -5.860  21.303  0.00  0.00    +0.301 C 
ATOM     13  O   UNL     1       5.956  -5.436  20.163  0.00  0.00    -0.292 OA
ENDBRANCH  10  12
ENDBRANCH   9  10
ENDBRANCH   6   8
ENDBRANCH   2   6
ENDBRANCH   1   4
BRANCH   1  14
ATOM     14  N   UNL     1       8.557  -0.306  24.888  0.00  0.00    -0.269 N 
ATOM     15  H   UNL     1       7.816  -0.204  24.205  0.00  0.00    +0.153 HD
ATOM     16  C   UNL     1       8.141  -0.370  26.182  0.00  0.00    +0.401 C 
ATOM     17  O   UNL     1       8.840  -0.751  27.108  0.00  0.00    -0.226 OA
BRANCH  16  18
ATOM     18  O   UNL     1       6.840  -0.004  26.251  0.00  0.00    -0.446 OA
BRANCH  18  19
ATOM     19  C   UNL     1       6.236   0.425  25.023  0.00  0.00    +0.269 C 
BRANCH  19  20
ATOM     20  C   UNL     1       5.821   1.875  25.054  0.00  0.00    -0.010 A 
ATOM     21  C   UNL     1       6.305   2.733  26.051  0.00  0.00    +0.007 A 
ATOM     22  C   UNL     1       5.856   4.054  26.130  0.00  0.00    +0.000 A 
ATOM     23  C   UNL     1       4.926   4.534  25.211  0.00  0.00    +0.000 A 
ATOM     24  C   UNL     1       4.447   3.695  24.205  0.00  0.00    +0.000 A 
ATOM     25  C   UNL     1       4.894   2.374  24.125  0.00  0.00    +0.007 A 
ENDBRANCH  19  20
ENDBRANCH  18  19
ENDBRANCH  16  18
ENDBRANCH   1  14
BRANCH   1  26
ATOM     26  C   UNL     1      10.341   0.177  23.286  0.00  0.00    +0.067 C 
BRANCH  26  27
ATOM     27  C   UNL     1       9.586   1.477  23.136  0.00  0.00    -0.045 A 
ATOM     28  C   UNL     1       9.801   2.549  24.012  0.00  0.00    +0.004 A 
ATOM     29  C   UNL     1       9.054   3.722  23.895  0.00  0.00    +0.000 A 
ATOM     30  C   UNL     1       8.078   3.835  22.905  0.00  0.00    +0.000 A 
ATOM     31  C   UNL     1       7.855   2.777  22.026  0.00  0.00    +0.000 A 
ATOM     32  C   UNL     1       8.607   1.606  22.139  0.00  0.00    +0.004 A 
ENDBRANCH  26  27
ENDBRANCH   1  26
TORSDOF 11
ENDMDL
MODEL 9
REMARK VINA RESULT:      -6.1      3.317      8.624
REMARK  Name = 
REMARK  12 active torsions:
REMARK  status: ('A' for Active; 'I' for Inactive)
REMARK    1  A    between atoms: C_2  and  C_3
REMARK    2  A    between atoms: C_2  and  N_4
REMARK    3  A    between atoms: C_2  and  C_27
REMARK    4  A    between atoms: C_5  and  C_7
REMARK    5  A    between atoms: C_7  and  C_9
REMARK    6  A    between atoms: C_7  and  N_16
REMARK    7  A    between atoms: C_9  and  C_10
REMARK    8  A    between atoms: C_17  and  O_19
REMARK    9  A    between atoms: O_19  and  C_20
REMARK   10  A    between atoms: C_20  and  C_21
REMARK   11  A    between atoms: C_28  and  C_29
REMARK   12  A    between atoms: C_29  and  C_31
REMARK                            x       y       z     vdW  Elec       q    Type
REMARK                         _______ _______ _______ _____ _____    ______ ____
ROOT
ATOM      1  C   UNL     1       9.225  -0.651  24.977  0.00  0.00    +0.166 C 
ENDROOT
BRANCH   1   4
ATOM      2  N   UNL     1       9.612   1.585  24.021  0.00  0.00    -0.308 N 
ATOM      3  H   UNL     1      10.253   1.090  23.407  0.00  0.00    +0.149 HD
ATOM      4  C   UNL     1       8.836   0.844  24.894  0.00  0.00    +0.234 C 
ATOM      5  O   UNL     1       7.861   1.311  25.479  0.00  0.00    -0.274 OA
BRANCH   2   6
ATOM      6  C   UNL     1       9.422   3.012  23.818  0.00  0.00    +0.093 C 
ATOM      7  C   UNL     1       8.584   3.599  24.956  0.00  0.00    +0.032 C 
BRANCH   6   8
ATOM      8  C   UNL     1      10.758   3.704  23.727  0.00  0.00    -0.001 C 
ATOM      9  C   UNL     1      10.960   5.031  23.668  0.00  0.00    +0.052 C 
BRANCH   9  10
ATOM     10  C   UNL     1      12.335   5.585  23.625  0.00  0.00    +0.218 C 
ATOM     11  O   UNL     1      12.815   6.306  24.488  0.00  0.00    -0.285 OA
BRANCH  10  12
ATOM     12  C   UNL     1      13.189   5.229  22.430  0.00  0.00    +0.301 C 
ATOM     13  O   UNL     1      13.942   6.036  21.905  0.00  0.00    -0.292 OA
ENDBRANCH  10  12
ENDBRANCH   9  10
ENDBRANCH   6   8
ENDBRANCH   2   6
ENDBRANCH   1   4
BRANCH   1  14
ATOM     14  N   UNL     1       8.599  -1.379  23.871  0.00  0.00    -0.269 N 
ATOM     15  H   UNL     1       7.590  -1.441  23.825  0.00  0.00    +0.153 HD
ATOM     16  C   UNL     1       9.248  -1.690  22.716  0.00  0.00    +0.401 C 
ATOM     17  O   UNL     1      10.420  -1.423  22.497  0.00  0.00    -0.226 OA
BRANCH  16  18
ATOM     18  O   UNL     1       8.380  -2.276  21.860  0.00  0.00    -0.446 OA
BRANCH  18  19
ATOM     19  C   UNL     1       6.997  -2.237  22.235  0.00  0.00    +0.269 C 
BRANCH  19  20
ATOM     20  C   UNL     1       6.436  -3.604  22.539  0.00  0.00    -0.010 A 
ATOM     21  C   UNL     1       7.206  -4.754  22.315  0.00  0.00    +0.007 A 
ATOM     22  C   UNL     1       6.658  -6.024  22.517  0.00  0.00    +0.000 A 
ATOM     23  C   UNL     1       5.341  -6.159  22.950  0.00  0.00    +0.000 A 
ATOM     24  C   UNL     1       4.570  -5.022  23.190  0.00  0.00    +0.000 A 
ATOM     25  C   UNL     1       5.114  -3.752  22.989  0.00  0.00    +0.007 A 
ENDBRANCH  19  20
ENDBRANCH  18  19
ENDBRANCH  16  18
ENDBRANCH   1  14
BRANCH   1  26
ATOM     26  C   UNL     1       8.759  -1.264  26.309  0.00  0.00    +0.067 C 
BRANCH  26  27
ATOM     27  C   UNL     1       8.174  -2.653  26.219  0.00  0.00    -0.045 A 
ATOM     28  C   UNL     1       6.813  -2.887  26.458  0.00  0.00    +0.004 A 
ATOM     29  C   UNL     1       6.300  -4.185  26.428  0.00  0.00    +0.000 A 
ATOM     30  C   UNL     1       7.142  -5.265  26.165  0.00  0.00    +0.000 A 
ATOM     31  C   UNL     1       8.497  -5.046  25.923  0.00  0.00    +0.000 A 
ATOM     32  C   UNL     1       9.009  -3.748  25.948  0.00  0.00    +0.004 A 
ENDBRANCH  26  27
ENDBRANCH   1  26
TORSDOF 11
ENDMDL
