MODEL 1
REMARK VINA RESULT:      -8.0      0.000      0.000
REMARK  Name = 
REMARK  11 active torsions:
REMARK  status: ('A' for Active; 'I' for Inactive)
REMARK    1  A    between atoms: C_4  and  C_5
REMARK    2  A    between atoms: C_10  and  C_11
REMARK    3  A    between atoms: N_15  and  C_17
REMARK    4  A    between atoms: C_17  and  C_18
REMARK    5  A    between atoms: N_20  and  C_21
REMARK    6  A    between atoms: C_24  and  N_25
REMARK    7  A    between atoms: C_26  and  C_28
REMARK    8  A    between atoms: C_28  and  C_29
REMARK    9  A    between atoms: C_29  and  C_30
REMARK   10  A    between atoms: C_30  and  C_31
REMARK   11  A    between atoms: C_31  and  O_32
REMARK                            x       y       z     vdW  Elec       q    Type
REMARK                         _______ _______ _______ _____ _____    ______ ____
ROOT
ATOM      1  C   UNL     1       7.125  -2.309  22.826  0.00  0.00    +0.262 C 
ATOM      2  N   UNL     1       6.856  -1.168  23.548  0.00  0.00    -0.281 N 
ATOM      3  H   UNL     1       6.141  -1.265  24.274  0.00  0.00    +0.155 HD
ATOM      4  O   UNL     1       7.989  -2.434  21.956  0.00  0.00    -0.270 OA
ENDROOT
BRANCH   2   5
ATOM      5  C   UNL     1       7.578   0.049  23.443  0.00  0.00    +0.034 A 
ATOM      6  C   UNL     1       7.199   1.003  22.498  0.00  0.00    +0.025 A 
ATOM      7  C   UNL     1       7.827   2.263  22.457  0.00  0.00    +0.025 A 
ATOM      8  C   UNL     1       8.876   2.576  23.331  0.00  0.00    +0.033 A 
ATOM      9  C   UNL     1       9.289   1.599  24.228  0.00  0.00    +0.025 A 
ATOM     10  C   UNL     1       8.654   0.353  24.277  0.00  0.00    +0.025 A 
BRANCH   8  11
ATOM     11  N   UNL     1       9.451   3.868  23.285  0.00  0.00    -0.285 N 
ATOM     12  H   UNL     1      10.309   3.954  22.757  0.00  0.00    +0.155 HD
ATOM     13  C   UNL     1       8.961   5.007  23.908  0.00  0.00    +0.217 C 
ATOM     14  O   UNL     1       7.984   5.076  24.650  0.00  0.00    -0.275 OA
BRANCH  13  15
ATOM     15  C   UNL     1       9.775   6.263  23.654  0.00  0.00    +0.096 C 
BRANCH  15  16
ATOM     16  C   UNL     1      11.015   6.239  24.548  0.00  0.00    +0.020 C 
BRANCH  16  17
ATOM     17  C   UNL     1      12.307   6.390  23.757  0.00  0.00    +0.121 C 
BRANCH  17  18
ATOM     18  C   UNL     1      12.902   5.046  23.415  0.00  0.00    +0.305 C 
ATOM     19  O   UNL     1      12.252   4.013  23.360  0.00  0.00    -0.251 OA
BRANCH  18  20
ATOM     20  O   UNL     1      14.226   5.084  23.152  0.00  0.00    -0.481 OA
ATOM     21  H   UNL     1      14.467   4.848  22.236  0.00  0.00    +0.295 HD
ENDBRANCH  18  20
ENDBRANCH  17  18
ENDBRANCH  16  17
ENDBRANCH  15  16
ENDBRANCH  13  15
ENDBRANCH   8  11
ENDBRANCH   2   5
BRANCH   1  22
ATOM     22  C   UNL     1       6.387  -3.547  23.247  0.00  0.00    +0.228 C 
BRANCH  22  28
ATOM     23  C   UNL     1       5.464  -5.677  27.221  0.00  0.00    +0.162 C 
ATOM     24  C   UNL     1       6.255  -4.864  26.227  0.00  0.00    +0.040 C 
ATOM     25  C   UNL     1       7.673  -4.591  26.756  0.00  0.00    +0.020 C 
ATOM     26  C   UNL     1       8.485  -3.734  25.782  0.00  0.00    +0.052 C 
ATOM     27  C   UNL     1       8.538  -4.310  24.374  0.00  0.00    +0.131 C 
ATOM     28  N   UNL     1       7.203  -4.709  23.754  0.00  0.00    +0.226 N 
ATOM     29  O   UNL     1       7.486  -5.500  22.640  0.00  0.00    -0.775 OA
ATOM     30  C   UNL     1       5.442  -3.527  26.231  0.00  0.00    +0.019 C 
ATOM     31  C   UNL     1       6.407  -5.551  24.813  0.00  0.00    +0.073 C 
ATOM     32  C   UNL     1       5.087  -6.114  24.239  0.00  0.00    +0.058 C 
ATOM     33  C   UNL     1       4.418  -7.066  25.207  0.00  0.00    +0.043 C 
ATOM     34  C   UNL     1       4.337  -6.477  26.583  0.00  0.00    +0.094 C 
ATOM     35  C   UNL     1       3.001  -6.049  27.084  0.00  0.00    +0.044 C 
ATOM     36  O   UNL     1       5.368  -7.075  27.384  0.00  0.00    -0.364 OA
ENDBRANCH  22  28
ENDBRANCH   1  22
TORSDOF 9
ENDMDL
MODEL 2
REMARK VINA RESULT:      -7.5      1.519      1.708
REMARK  Name = 
REMARK  11 active torsions:
REMARK  status: ('A' for Active; 'I' for Inactive)
REMARK    1  A    between atoms: C_4  and  C_5
REMARK    2  A    between atoms: C_10  and  C_11
REMARK    3  A    between atoms: N_15  and  C_17
REMARK    4  A    between atoms: C_17  and  C_18
REMARK    5  A    between atoms: N_20  and  C_21
REMARK    6  A    between atoms: C_24  and  N_25
REMARK    7  A    between atoms: C_26  and  C_28
REMARK    8  A    between atoms: C_28  and  C_29
REMARK    9  A    between atoms: C_29  and  C_30
REMARK   10  A    between atoms: C_30  and  C_31
REMARK   11  A    between atoms: C_31  and  O_32
REMARK                            x       y       z     vdW  Elec       q    Type
REMARK                         _______ _______ _______ _____ _____    ______ ____
ROOT
ATOM      1  C   UNL     1       6.190  -1.432  24.485  0.00  0.00    +0.262 C 
ATOM      2  N   UNL     1       6.811  -0.925  23.366  0.00  0.00    -0.281 N 
ATOM      3  H   UNL     1       6.675  -1.462  22.505  0.00  0.00    +0.155 HD
ATOM      4  O   UNL     1       6.168  -0.916  25.604  0.00  0.00    -0.270 OA
ENDROOT
BRANCH   2   5
ATOM      5  C   UNL     1       7.487   0.322  23.307  0.00  0.00    +0.034 A 
ATOM      6  C   UNL     1       6.864   1.422  22.717  0.00  0.00    +0.025 A 
ATOM      7  C   UNL     1       7.469   2.693  22.752  0.00  0.00    +0.025 A 
ATOM      8  C   UNL     1       8.727   2.879  23.340  0.00  0.00    +0.033 A 
ATOM      9  C   UNL     1       9.369   1.766  23.871  0.00  0.00    +0.025 A 
ATOM     10  C   UNL     1       8.759   0.507  23.847  0.00  0.00    +0.025 A 
BRANCH   8  11
ATOM     11  N   UNL     1       9.281   4.181  23.392  0.00  0.00    -0.285 N 
ATOM     12  H   UNL     1       9.882   4.439  22.621  0.00  0.00    +0.155 HD
ATOM     13  C   UNL     1       9.091   5.113  24.402  0.00  0.00    +0.217 C 
ATOM     14  O   UNL     1       8.463   4.948  25.445  0.00  0.00    -0.275 OA
BRANCH  13  15
ATOM     15  C   UNL     1       9.787   6.442  24.170  0.00  0.00    +0.096 C 
BRANCH  15  16
ATOM     16  C   UNL     1      11.242   6.325  24.624  0.00  0.00    +0.020 C 
BRANCH  16  17
ATOM     17  C   UNL     1      12.217   6.287  23.455  0.00  0.00    +0.121 C 
BRANCH  17  18
ATOM     18  C   UNL     1      12.874   4.934  23.332  0.00  0.00    +0.305 C 
ATOM     19  O   UNL     1      12.256   3.880  23.327  0.00  0.00    -0.251 OA
BRANCH  18  20
ATOM     20  O   UNL     1      14.218   4.987  23.208  0.00  0.00    -0.481 OA
ATOM     21  H   UNL     1      14.582   4.443  22.484  0.00  0.00    +0.295 HD
ENDBRANCH  18  20
ENDBRANCH  17  18
ENDBRANCH  16  17
ENDBRANCH  15  16
ENDBRANCH  13  15
ENDBRANCH   8  11
ENDBRANCH   2   5
BRANCH   1  22
ATOM     22  C   UNL     1       5.349  -2.658  24.275  0.00  0.00    +0.228 C 
BRANCH  22  28
ATOM     23  C   UNL     1       3.782  -6.773  25.615  0.00  0.00    +0.162 C 
ATOM     24  C   UNL     1       4.730  -5.603  25.530  0.00  0.00    +0.040 C 
ATOM     25  C   UNL     1       6.050  -5.922  26.253  0.00  0.00    +0.020 C 
ATOM     26  C   UNL     1       7.017  -4.736  26.215  0.00  0.00    +0.052 C 
ATOM     27  C   UNL     1       7.284  -4.224  24.807  0.00  0.00    +0.131 C 
ATOM     28  N   UNL     1       6.060  -3.946  23.942  0.00  0.00    +0.226 N 
ATOM     29  O   UNL     1       6.506  -3.814  22.626  0.00  0.00    -0.775 OA
ATOM     30  C   UNL     1       3.944  -4.531  26.353  0.00  0.00    +0.019 C 
ATOM     31  C   UNL     1       5.095  -5.180  24.053  0.00  0.00    +0.073 C 
ATOM     32  C   UNL     1       3.876  -5.055  23.112  0.00  0.00    +0.058 C 
ATOM     33  C   UNL     1       3.050  -6.323  23.096  0.00  0.00    +0.043 C 
ATOM     34  C   UNL     1       2.761  -6.802  24.487  0.00  0.00    +0.094 C 
ATOM     35  C   UNL     1       1.368  -6.668  24.997  0.00  0.00    +0.044 C 
ATOM     36  O   UNL     1       3.644  -7.897  24.774  0.00  0.00    -0.364 OA
ENDBRANCH  22  28
ENDBRANCH   1  22
TORSDOF 9
ENDMDL
MODEL 3
REMARK VINA RESULT:      -7.5      1.459      2.203
REMARK  Name = 
REMARK  11 active torsions:
REMARK  status: ('A' for Active; 'I' for Inactive)
REMARK    1  A    between atoms: C_4  and  C_5
REMARK    2  A    between atoms: C_10  and  C_11
REMARK    3  A    between atoms: N_15  and  C_17
REMARK    4  A    between atoms: C_17  and  C_18
REMARK    5  A    between atoms: N_20  and  C_21
REMARK    6  A    between atoms: C_24  and  N_25
REMARK    7  A    between atoms: C_26  and  C_28
REMARK    8  A    between atoms: C_28  and  C_29
REMARK    9  A    between atoms: C_29  and  C_30
REMARK   10  A    between atoms: C_30  and  C_31
REMARK   11  A    between atoms: C_31  and  O_32
REMARK                            x       y       z     vdW  Elec       q    Type
REMARK                         _______ _______ _______ _____ _____    ______ ____
ROOT
ATOM      1  C   UNL     1       7.958  -2.201  23.010  0.00  0.00    +0.262 C 
ATOM      2  N   UNL     1       7.492  -1.131  23.738  0.00  0.00    -0.281 N 
ATOM      3  H   UNL     1       6.730  -1.341  24.390  0.00  0.00    +0.155 HD
ATOM      4  O   UNL     1       8.905  -2.188  22.221  0.00  0.00    -0.270 OA
ENDROOT
BRANCH   2   5
ATOM      5  C   UNL     1       8.070   0.165  23.741  0.00  0.00    +0.034 A 
ATOM      6  C   UNL     1       7.414   1.220  23.105  0.00  0.00    +0.025 A 
ATOM      7  C   UNL     1       7.912   2.534  23.197  0.00  0.00    +0.025 A 
ATOM      8  C   UNL     1       9.098   2.811  23.888  0.00  0.00    +0.033 A 
ATOM      9  C   UNL     1       9.779   1.746  24.466  0.00  0.00    +0.025 A 
ATOM     10  C   UNL     1       9.274   0.444  24.386  0.00  0.00    +0.025 A 
BRANCH   8  11
ATOM     11  N   UNL     1       9.541   4.152  23.991  0.00  0.00    -0.285 N 
ATOM     12  H   UNL     1      10.200   4.457  23.287  0.00  0.00    +0.155 HD
ATOM     13  C   UNL     1       9.174   5.064  24.970  0.00  0.00    +0.217 C 
ATOM     14  O   UNL     1       8.453   4.848  25.942  0.00  0.00    -0.275 OA
BRANCH  13  15
ATOM     15  C   UNL     1       9.786   6.443  24.807  0.00  0.00    +0.096 C 
BRANCH  15  16
ATOM     16  C   UNL     1      10.813   6.398  23.676  0.00  0.00    +0.020 C 
BRANCH  16  17
ATOM     17  C   UNL     1      12.233   6.187  24.185  0.00  0.00    +0.121 C 
BRANCH  17  18
ATOM     18  C   UNL     1      12.894   5.017  23.499  0.00  0.00    +0.305 C 
ATOM     19  O   UNL     1      12.317   3.970  23.242  0.00  0.00    -0.251 OA
BRANCH  18  20
ATOM     20  O   UNL     1      14.185   5.232  23.171  0.00  0.00    -0.481 OA
ATOM     21  H   UNL     1      14.345   5.381  22.219  0.00  0.00    +0.295 HD
ENDBRANCH  18  20
ENDBRANCH  17  18
ENDBRANCH  16  17
ENDBRANCH  15  16
ENDBRANCH  13  15
ENDBRANCH   8  11
ENDBRANCH   2   5
BRANCH   1  22
ATOM     22  C   UNL     1       7.338  -3.533  23.319  0.00  0.00    +0.228 C 
BRANCH  22  28
ATOM     23  C   UNL     1       4.055  -5.472  25.896  0.00  0.00    +0.162 C 
ATOM     24  C   UNL     1       5.032  -5.336  24.755  0.00  0.00    +0.040 C 
ATOM     25  C   UNL     1       4.828  -6.464  23.729  0.00  0.00    +0.020 C 
ATOM     26  C   UNL     1       5.834  -6.370  22.579  0.00  0.00    +0.052 C 
ATOM     27  C   UNL     1       5.837  -5.012  21.892  0.00  0.00    +0.131 C 
ATOM     28  N   UNL     1       5.946  -3.793  22.801  0.00  0.00    +0.226 N 
ATOM     29  O   UNL     1       5.601  -2.677  22.036  0.00  0.00    -0.775 OA
ATOM     30  C   UNL     1       6.387  -5.564  25.502  0.00  0.00    +0.019 C 
ATOM     31  C   UNL     1       4.918  -3.968  23.975  0.00  0.00    +0.073 C 
ATOM     32  C   UNL     1       4.859  -2.722  24.888  0.00  0.00    +0.058 C 
ATOM     33  C   UNL     1       3.744  -2.830  25.907  0.00  0.00    +0.043 C 
ATOM     34  C   UNL     1       3.770  -4.156  26.605  0.00  0.00    +0.094 C 
ATOM     35  C   UNL     1       4.202  -4.189  28.030  0.00  0.00    +0.044 C 
ATOM     36  O   UNL     1       2.741  -4.979  26.035  0.00  0.00    -0.364 OA
ENDBRANCH  22  28
ENDBRANCH   1  22
TORSDOF 9
ENDMDL
MODEL 4
REMARK VINA RESULT:      -6.8      2.110      3.342
REMARK  Name = 
REMARK  11 active torsions:
REMARK  status: ('A' for Active; 'I' for Inactive)
REMARK    1  A    between atoms: C_4  and  C_5
REMARK    2  A    between atoms: C_10  and  C_11
REMARK    3  A    between atoms: N_15  and  C_17
REMARK    4  A    between atoms: C_17  and  C_18
REMARK    5  A    between atoms: N_20  and  C_21
REMARK    6  A    between atoms: C_24  and  N_25
REMARK    7  A    between atoms: C_26  and  C_28
REMARK    8  A    between atoms: C_28  and  C_29
REMARK    9  A    between atoms: C_29  and  C_30
REMARK   10  A    between atoms: C_30  and  C_31
REMARK   11  A    between atoms: C_31  and  O_32
REMARK                            x       y       z     vdW  Elec       q    Type
REMARK                         _______ _______ _______ _____ _____    ______ ____
ROOT
ATOM      1  C   UNL     1       8.233  -2.271  24.145  0.00  0.00    +0.262 C 
ATOM      2  N   UNL     1       8.946  -1.674  23.130  0.00  0.00    -0.281 N 
ATOM      3  H   UNL     1       9.101  -2.255  22.301  0.00  0.00    +0.155 HD
ATOM      4  O   UNL     1       7.880  -1.737  25.199  0.00  0.00    -0.270 OA
ENDROOT
BRANCH   2   5
ATOM      5  C   UNL     1       9.346  -0.313  23.108  0.00  0.00    +0.034 A 
ATOM      6  C   UNL     1       8.746   0.573  22.213  0.00  0.00    +0.025 A 
ATOM      7  C   UNL     1       9.044   1.948  22.256  0.00  0.00    +0.025 A 
ATOM      8  C   UNL     1       9.980   2.457  23.166  0.00  0.00    +0.033 A 
ATOM      9  C   UNL     1      10.618   1.560  24.013  0.00  0.00    +0.025 A 
ATOM     10  C   UNL     1      10.310   0.196  23.978  0.00  0.00    +0.025 A 
BRANCH   8  11
ATOM     11  N   UNL     1      10.219   3.852  23.204  0.00  0.00    -0.285 N 
ATOM     12  H   UNL     1      10.879   4.209  22.526  0.00  0.00    +0.155 HD
ATOM     13  C   UNL     1       9.652   4.758  24.090  0.00  0.00    +0.217 C 
ATOM     14  O   UNL     1       8.897   4.497  25.024  0.00  0.00    -0.275 OA
BRANCH  13  15
ATOM     15  C   UNL     1      10.074   6.199  23.871  0.00  0.00    +0.096 C 
BRANCH  15  16
ATOM     16  C   UNL     1       8.824   7.061  23.699  0.00  0.00    +0.020 C 
BRANCH  16  17
ATOM     17  C   UNL     1       7.953   6.602  22.538  0.00  0.00    +0.121 C 
BRANCH  17  18
ATOM     18  C   UNL     1       6.518   6.415  22.967  0.00  0.00    +0.305 C 
ATOM     19  O   UNL     1       6.174   6.267  24.130  0.00  0.00    -0.251 OA
BRANCH  18  20
ATOM     20  O   UNL     1       5.634   6.445  21.948  0.00  0.00    -0.481 OA
ATOM     21  H   UNL     1       5.616   5.637  21.400  0.00  0.00    +0.295 HD
ENDBRANCH  18  20
ENDBRANCH  17  18
ENDBRANCH  16  17
ENDBRANCH  15  16
ENDBRANCH  13  15
ENDBRANCH   8  11
ENDBRANCH   2   5
BRANCH   1  22
ATOM     22  C   UNL     1       7.725  -3.656  23.871  0.00  0.00    +0.228 C 
BRANCH  22  28
ATOM     23  C   UNL     1       3.830  -5.797  25.066  0.00  0.00    +0.162 C 
ATOM     24  C   UNL     1       5.104  -5.548  24.298  0.00  0.00    +0.040 C 
ATOM     25  C   UNL     1       5.224  -6.526  23.117  0.00  0.00    +0.020 C 
ATOM     26  C   UNL     1       6.529  -6.320  22.343  0.00  0.00    +0.052 C 
ATOM     27  C   UNL     1       6.730  -4.886  21.876  0.00  0.00    +0.131 C 
ATOM     28  N   UNL     1       6.555  -3.798  22.931  0.00  0.00    +0.226 N 
ATOM     29  O   UNL     1       6.450  -2.582  22.255  0.00  0.00    -0.775 OA
ATOM     30  C   UNL     1       6.172  -5.918  25.378  0.00  0.00    +0.019 C 
ATOM     31  C   UNL     1       5.222  -4.087  23.710  0.00  0.00    +0.073 C 
ATOM     32  C   UNL     1       4.884  -2.969  24.722  0.00  0.00    +0.058 C 
ATOM     33  C   UNL     1       3.515  -3.169  25.338  0.00  0.00    +0.043 C 
ATOM     34  C   UNL     1       3.338  -4.574  25.827  0.00  0.00    +0.094 C 
ATOM     35  C   UNL     1       3.322  -4.807  27.298  0.00  0.00    +0.044 C 
ATOM     36  O   UNL     1       2.532  -5.280  24.871  0.00  0.00    -0.364 OA
ENDBRANCH  22  28
ENDBRANCH   1  22
TORSDOF 9
ENDMDL
MODEL 5
REMARK VINA RESULT:      -6.7      1.858      3.140
REMARK  Name = 
REMARK  11 active torsions:
REMARK  status: ('A' for Active; 'I' for Inactive)
REMARK    1  A    between atoms: C_4  and  C_5
REMARK    2  A    between atoms: C_10  and  C_11
REMARK    3  A    between atoms: N_15  and  C_17
REMARK    4  A    between atoms: C_17  and  C_18
REMARK    5  A    between atoms: N_20  and  C_21
REMARK    6  A    between atoms: C_24  and  N_25
REMARK    7  A    between atoms: C_26  and  C_28
REMARK    8  A    between atoms: C_28  and  C_29
REMARK    9  A    between atoms: C_29  and  C_30
REMARK   10  A    between atoms: C_30  and  C_31
REMARK   11  A    between atoms: C_31  and  O_32
REMARK                            x       y       z     vdW  Elec       q    Type
REMARK                         _______ _______ _______ _____ _____    ______ ____
ROOT
ATOM      1  C   UNL     1       5.851  -1.365  25.652  0.00  0.00    +0.262 C 
ATOM      2  N   UNL     1       6.786  -1.045  24.694  0.00  0.00    -0.281 N 
ATOM      3  H   UNL     1       6.950  -1.762  23.982  0.00  0.00    +0.155 HD
ATOM      4  O   UNL     1       5.455  -0.629  26.558  0.00  0.00    -0.270 OA
ENDROOT
BRANCH   2   5
ATOM      5  C   UNL     1       7.412   0.222  24.560  0.00  0.00    +0.034 A 
ATOM      6  C   UNL     1       6.632   1.375  24.465  0.00  0.00    +0.025 A 
ATOM      7  C   UNL     1       7.233   2.648  24.449  0.00  0.00    +0.025 A 
ATOM      8  C   UNL     1       8.627   2.790  24.484  0.00  0.00    +0.033 A 
ATOM      9  C   UNL     1       9.398   1.635  24.517  0.00  0.00    +0.025 A 
ATOM     10  C   UNL     1       8.798   0.372  24.547  0.00  0.00    +0.025 A 
BRANCH   8  11
ATOM     11  N   UNL     1       9.188   4.089  24.509  0.00  0.00    -0.285 N 
ATOM     12  H   UNL     1       9.869   4.266  25.237  0.00  0.00    +0.155 HD
ATOM     13  C   UNL     1       8.877   5.134  23.651  0.00  0.00    +0.217 C 
ATOM     14  O   UNL     1       8.024   5.128  22.766  0.00  0.00    -0.275 OA
BRANCH  13  15
ATOM     15  C   UNL     1       9.665   6.408  23.899  0.00  0.00    +0.096 C 
BRANCH  15  16
ATOM     16  C   UNL     1      10.844   6.091  24.817  0.00  0.00    +0.020 C 
BRANCH  16  17
ATOM     17  C   UNL     1      12.189   6.302  24.136  0.00  0.00    +0.121 C 
BRANCH  17  18
ATOM     18  C   UNL     1      12.698   5.024  23.517  0.00  0.00    +0.305 C 
ATOM     19  O   UNL     1      12.008   4.027  23.359  0.00  0.00    -0.251 OA
BRANCH  18  20
ATOM     20  O   UNL     1      13.990   5.079  23.130  0.00  0.00    -0.481 OA
ATOM     21  H   UNL     1      14.218   4.494  22.383  0.00  0.00    +0.295 HD
ENDBRANCH  18  20
ENDBRANCH  17  18
ENDBRANCH  16  17
ENDBRANCH  15  16
ENDBRANCH  13  15
ENDBRANCH   8  11
ENDBRANCH   2   5
BRANCH   1  22
ATOM     22  C   UNL     1       5.155  -2.685  25.482  0.00  0.00    +0.228 C 
BRANCH  22  28
ATOM     23  C   UNL     1       5.445  -6.435  22.830  0.00  0.00    +0.162 C 
ATOM     24  C   UNL     1       5.065  -5.602  24.029  0.00  0.00    +0.040 C 
ATOM     25  C   UNL     1       4.450  -6.484  25.129  0.00  0.00    +0.020 C 
ATOM     26  C   UNL     1       4.020  -5.657  26.343  0.00  0.00    +0.052 C 
ATOM     27  C   UNL     1       5.139  -4.793  26.908  0.00  0.00    +0.131 C 
ATOM     28  N   UNL     1       5.897  -3.926  25.909  0.00  0.00    +0.226 N 
ATOM     29  O   UNL     1       7.059  -3.486  26.545  0.00  0.00    -0.775 OA
ATOM     30  C   UNL     1       3.946  -4.699  23.414  0.00  0.00    +0.019 C 
ATOM     31  C   UNL     1       6.276  -4.822  24.676  0.00  0.00    +0.073 C 
ATOM     32  C   UNL     1       7.160  -4.069  23.657  0.00  0.00    +0.058 C 
ATOM     33  C   UNL     1       7.663  -4.991  22.566  0.00  0.00    +0.043 C 
ATOM     34  C   UNL     1       6.549  -5.811  21.990  0.00  0.00    +0.094 C 
ATOM     35  C   UNL     1       6.084  -5.490  20.612  0.00  0.00    +0.044 C 
ATOM     36  O   UNL     1       6.637  -7.132  22.545  0.00  0.00    -0.364 OA
ENDBRANCH  22  28
ENDBRANCH   1  22
TORSDOF 9
ENDMDL
MODEL 6
REMARK VINA RESULT:      -6.7      2.722     10.488
REMARK  Name = 
REMARK  11 active torsions:
REMARK  status: ('A' for Active; 'I' for Inactive)
REMARK    1  A    between atoms: C_4  and  C_5
REMARK    2  A    between atoms: C_10  and  C_11
REMARK    3  A    between atoms: N_15  and  C_17
REMARK    4  A    between atoms: C_17  and  C_18
REMARK    5  A    between atoms: N_20  and  C_21
REMARK    6  A    between atoms: C_24  and  N_25
REMARK    7  A    between atoms: C_26  and  C_28
REMARK    8  A    between atoms: C_28  and  C_29
REMARK    9  A    between atoms: C_29  and  C_30
REMARK   10  A    between atoms: C_30  and  C_31
REMARK   11  A    between atoms: C_31  and  O_32
REMARK                            x       y       z     vdW  Elec       q    Type
REMARK                         _______ _______ _______ _____ _____    ______ ____
ROOT
ATOM      1  C   UNL     1       8.262  -2.392  23.563  0.00  0.00    +0.262 C 
ATOM      2  N   UNL     1       6.887  -2.430  23.514  0.00  0.00    -0.281 N 
ATOM      3  H   UNL     1       6.426  -1.525  23.385  0.00  0.00    +0.155 HD
ATOM      4  O   UNL     1       9.015  -3.364  23.646  0.00  0.00    -0.270 OA
ENDROOT
BRANCH   2   5
ATOM      5  C   UNL     1       6.107  -3.616  23.494  0.00  0.00    +0.034 A 
ATOM      6  C   UNL     1       5.225  -3.885  24.542  0.00  0.00    +0.025 A 
ATOM      7  C   UNL     1       4.360  -4.994  24.484  0.00  0.00    +0.025 A 
ATOM      8  C   UNL     1       4.390  -5.879  23.398  0.00  0.00    +0.033 A 
ATOM      9  C   UNL     1       5.313  -5.639  22.388  0.00  0.00    +0.025 A 
ATOM     10  C   UNL     1       6.162  -4.528  22.441  0.00  0.00    +0.025 A 
BRANCH   8  11
ATOM     11  N   UNL     1       3.473  -6.957  23.360  0.00  0.00    -0.285 N 
ATOM     12  H   UNL     1       3.845  -7.865  23.602  0.00  0.00    +0.155 HD
ATOM     13  C   UNL     1       2.133  -6.883  23.005  0.00  0.00    +0.217 C 
ATOM     14  O   UNL     1       1.533  -5.886  22.609  0.00  0.00    -0.275 OA
BRANCH  13  15
ATOM     15  C   UNL     1       1.387  -8.201  23.087  0.00  0.00    +0.096 C 
BRANCH  15  16
ATOM     16  C   UNL     1       1.567  -8.788  24.486  0.00  0.00    +0.020 C 
BRANCH  16  17
ATOM     17  C   UNL     1       0.795  -8.016  25.547  0.00  0.00    +0.121 C 
BRANCH  17  18
ATOM     18  C   UNL     1       1.709  -7.517  26.639  0.00  0.00    +0.305 C 
ATOM     19  O   UNL     1       1.309  -7.050  27.695  0.00  0.00    -0.251 OA
BRANCH  18  20
ATOM     20  O   UNL     1       3.022  -7.649  26.356  0.00  0.00    -0.481 OA
ATOM     21  H   UNL     1       3.311  -7.197  25.540  0.00  0.00    +0.295 HD
ENDBRANCH  18  20
ENDBRANCH  17  18
ENDBRANCH  16  17
ENDBRANCH  15  16
ENDBRANCH  13  15
ENDBRANCH   8  11
ENDBRANCH   2   5
BRANCH   1  22
ATOM     22  C   UNL     1       8.894  -1.047  23.353  0.00  0.00    +0.228 C 
BRANCH  22  28
ATOM     23  C   UNL     1       8.355   3.524  23.331  0.00  0.00    +0.162 C 
ATOM     24  C   UNL     1       9.082   2.208  23.445  0.00  0.00    +0.040 C 
ATOM     25  C   UNL     1      10.533   2.427  23.904  0.00  0.00    +0.020 C 
ATOM     26  C   UNL     1      11.305   1.108  23.991  0.00  0.00    +0.052 C 
ATOM     27  C   UNL     1      10.617   0.065  24.860  0.00  0.00    +0.131 C 
ATOM     28  N   UNL     1       9.143  -0.193  24.571  0.00  0.00    +0.226 N 
ATOM     29  O   UNL     1       8.629  -0.906  25.656  0.00  0.00    -0.775 OA
ATOM     30  C   UNL     1       9.084   1.745  21.951  0.00  0.00    +0.019 C 
ATOM     31  C   UNL     1       8.418   1.195  24.459  0.00  0.00    +0.073 C 
ATOM     32  C   UNL     1       6.889   1.043  24.291  0.00  0.00    +0.058 C 
ATOM     33  C   UNL     1       6.185   2.382  24.361  0.00  0.00    +0.043 C 
ATOM     34  C   UNL     1       6.846   3.393  23.475  0.00  0.00    +0.094 C 
ATOM     35  C   UNL     1       6.133   3.810  22.235  0.00  0.00    +0.044 C 
ATOM     36  O   UNL     1       7.641   4.257  24.301  0.00  0.00    -0.364 OA
ENDBRANCH  22  28
ENDBRANCH   1  22
TORSDOF 9
ENDMDL
MODEL 7
REMARK VINA RESULT:      -6.7      1.993      2.720
REMARK  Name = 
REMARK  11 active torsions:
REMARK  status: ('A' for Active; 'I' for Inactive)
REMARK    1  A    between atoms: C_4  and  C_5
REMARK    2  A    between atoms: C_10  and  C_11
REMARK    3  A    between atoms: N_15  and  C_17
REMARK    4  A    between atoms: C_17  and  C_18
REMARK    5  A    between atoms: N_20  and  C_21
REMARK    6  A    between atoms: C_24  and  N_25
REMARK    7  A    between atoms: C_26  and  C_28
REMARK    8  A    between atoms: C_28  and  C_29
REMARK    9  A    between atoms: C_29  and  C_30
REMARK   10  A    between atoms: C_30  and  C_31
REMARK   11  A    between atoms: C_31  and  O_32
REMARK                            x       y       z     vdW  Elec       q    Type
REMARK                         _______ _______ _______ _____ _____    ______ ____
ROOT
ATOM      1  C   UNL     1       7.698  -2.287  25.588  0.00  0.00    +0.262 C 
ATOM      2  N   UNL     1       7.250  -1.247  24.806  0.00  0.00    -0.281 N 
ATOM      3  H   UNL     1       6.406  -1.439  24.259  0.00  0.00    +0.155 HD
ATOM      4  O   UNL     1       8.651  -2.253  26.369  0.00  0.00    -0.270 OA
ENDROOT
BRANCH   2   5
ATOM      5  C   UNL     1       7.786   0.067  24.815  0.00  0.00    +0.034 A 
ATOM      6  C   UNL     1       8.962   0.342  24.117  0.00  0.00    +0.025 A 
ATOM      7  C   UNL     1       9.446   1.661  24.018  0.00  0.00    +0.025 A 
ATOM      8  C   UNL     1       8.786   2.723  24.651  0.00  0.00    +0.033 A 
ATOM      9  C   UNL     1       7.650   2.431  25.396  0.00  0.00    +0.025 A 
ATOM     10  C   UNL     1       7.163   1.122  25.481  0.00  0.00    +0.025 A 
BRANCH   8  11
ATOM     11  N   UNL     1       9.282   4.039  24.491  0.00  0.00    -0.285 N 
ATOM     12  H   UNL     1      10.062   4.295  25.081  0.00  0.00    +0.155 HD
ATOM     13  C   UNL     1       8.787   5.002  23.623  0.00  0.00    +0.217 C 
ATOM     14  O   UNL     1       7.803   4.897  22.894  0.00  0.00    -0.275 OA
BRANCH  13  15
ATOM     15  C   UNL     1       9.543   6.317  23.646  0.00  0.00    +0.096 C 
BRANCH  15  16
ATOM     16  C   UNL     1      10.821   6.141  24.464  0.00  0.00    +0.020 C 
BRANCH  16  17
ATOM     17  C   UNL     1      12.079   6.262  23.615  0.00  0.00    +0.121 C 
BRANCH  17  18
ATOM     18  C   UNL     1      12.718   4.914  23.384  0.00  0.00    +0.305 C 
ATOM     19  O   UNL     1      12.093   3.864  23.359  0.00  0.00    -0.251 OA
BRANCH  18  20
ATOM     20  O   UNL     1      14.052   4.967  23.186  0.00  0.00    -0.481 OA
ATOM     21  H   UNL     1      14.386   5.833  22.885  0.00  0.00    +0.295 HD
ENDBRANCH  18  20
ENDBRANCH  17  18
ENDBRANCH  16  17
ENDBRANCH  15  16
ENDBRANCH  13  15
ENDBRANCH   8  11
ENDBRANCH   2   5
BRANCH   1  22
ATOM     22  C   UNL     1       6.854  -3.528  25.585  0.00  0.00    +0.228 C 
BRANCH  22  28
ATOM     23  C   UNL     1       2.544  -5.063  25.083  0.00  0.00    +0.162 C 
ATOM     24  C   UNL     1       3.647  -4.101  25.448  0.00  0.00    +0.040 C 
ATOM     25  C   UNL     1       3.075  -2.871  26.174  0.00  0.00    +0.020 C 
ATOM     26  C   UNL     1       4.171  -1.860  26.522  0.00  0.00    +0.052 C 
ATOM     27  C   UNL     1       5.318  -2.467  27.316  0.00  0.00    +0.131 C 
ATOM     28  N   UNL     1       5.928  -3.747  26.755  0.00  0.00    +0.226 N 
ATOM     29  O   UNL     1       6.707  -4.310  27.767  0.00  0.00    -0.775 OA
ATOM     30  C   UNL     1       4.142  -3.672  24.029  0.00  0.00    +0.019 C 
ATOM     31  C   UNL     1       4.755  -4.724  26.385  0.00  0.00    +0.073 C 
ATOM     32  C   UNL     1       5.270  -6.106  25.924  0.00  0.00    +0.058 C 
ATOM     33  C   UNL     1       4.135  -7.091  25.740  0.00  0.00    +0.043 C 
ATOM     34  C   UNL     1       3.025  -6.498  24.927  0.00  0.00    +0.094 C 
ATOM     35  C   UNL     1       2.828  -7.001  23.539  0.00  0.00    +0.044 C 
ATOM     36  O   UNL     1       1.971  -6.117  25.825  0.00  0.00    -0.364 OA
ENDBRANCH  22  28
ENDBRANCH   1  22
TORSDOF 9
ENDMDL
MODEL 8
REMARK VINA RESULT:      -6.6      2.054     10.537
REMARK  Name = 
REMARK  11 active torsions:
REMARK  status: ('A' for Active; 'I' for Inactive)
REMARK    1  A    between atoms: C_4  and  C_5
REMARK    2  A    between atoms: C_10  and  C_11
REMARK    3  A    between atoms: N_15  and  C_17
REMARK    4  A    between atoms: C_17  and  C_18
REMARK    5  A    between atoms: N_20  and  C_21
REMARK    6  A    between atoms: C_24  and  N_25
REMARK    7  A    between atoms: C_26  and  C_28
REMARK    8  A    between atoms: C_28  and  C_29
REMARK    9  A    between atoms: C_29  and  C_30
REMARK   10  A    between atoms: C_30  and  C_31
REMARK   11  A    between atoms: C_31  and  O_32
REMARK                            x       y       z     vdW  Elec       q    Type
REMARK                         _______ _______ _______ _____ _____    ______ ____
ROOT
ATOM      1  C   UNL     1       9.501  -0.117  24.123  0.00  0.00    +0.262 C 
ATOM      2  N   UNL     1       8.366  -0.404  24.846  0.00  0.00    -0.281 N 
ATOM      3  H   UNL     1       7.933   0.393  25.321  0.00  0.00    +0.155 HD
ATOM      4  O   UNL     1      10.141  -0.907  23.427  0.00  0.00    -0.270 OA
ENDROOT
BRANCH   2   5
ATOM      5  C   UNL     1       7.708  -1.661  24.861  0.00  0.00    +0.034 A 
ATOM      6  C   UNL     1       8.132  -2.657  25.742  0.00  0.00    +0.025 A 
ATOM      7  C   UNL     1       7.420  -3.867  25.854  0.00  0.00    +0.025 A 
ATOM      8  C   UNL     1       6.297  -4.121  25.057  0.00  0.00    +0.033 A 
ATOM      9  C   UNL     1       5.917  -3.150  24.138  0.00  0.00    +0.025 A 
ATOM     10  C   UNL     1       6.618  -1.943  24.039  0.00  0.00    +0.025 A 
BRANCH   8  11
ATOM     11  N   UNL     1       5.585  -5.332  25.231  0.00  0.00    -0.285 N 
ATOM     12  H   UNL     1       5.735  -6.041  24.526  0.00  0.00    +0.155 HD
ATOM     13  C   UNL     1       4.697  -5.621  26.258  0.00  0.00    +0.217 C 
ATOM     14  O   UNL     1       4.334  -4.859  27.151  0.00  0.00    -0.275 OA
BRANCH  13  15
ATOM     15  C   UNL     1       4.106  -7.018  26.203  0.00  0.00    +0.096 C 
BRANCH  15  16
ATOM     16  C   UNL     1       3.987  -7.449  24.742  0.00  0.00    +0.020 C 
BRANCH  16  17
ATOM     17  C   UNL     1       2.606  -7.175  24.162  0.00  0.00    +0.121 C 
BRANCH  17  18
ATOM     18  C   UNL     1       2.667  -6.145  23.061  0.00  0.00    +0.305 C 
ATOM     19  O   UNL     1       1.684  -5.572  22.616  0.00  0.00    -0.251 OA
BRANCH  18  20
ATOM     20  O   UNL     1       3.916  -5.894  22.615  0.00  0.00    -0.481 OA
ATOM     21  H   UNL     1       4.073  -4.971  22.338  0.00  0.00    +0.295 HD
ENDBRANCH  18  20
ENDBRANCH  17  18
ENDBRANCH  16  17
ENDBRANCH  15  16
ENDBRANCH  13  15
ENDBRANCH   8  11
ENDBRANCH   2   5
BRANCH   1  22
ATOM     22  C   UNL     1       9.906   1.328  24.074  0.00  0.00    +0.228 C 
BRANCH  22  28
ATOM     23  C   UNL     1       8.516   5.714  24.170  0.00  0.00    +0.162 C 
ATOM     24  C   UNL     1       8.428   4.230  23.916  0.00  0.00    +0.040 C 
ATOM     25  C   UNL     1       7.137   3.886  23.154  0.00  0.00    +0.020 C 
ATOM     26  C   UNL     1       7.005   2.380  22.916  0.00  0.00    +0.052 C 
ATOM     27  C   UNL     1       8.217   1.773  22.223  0.00  0.00    +0.131 C 
ATOM     28  N   UNL     1       9.578   2.104  22.823  0.00  0.00    +0.226 N 
ATOM     29  O   UNL     1      10.543   1.746  21.880  0.00  0.00    -0.775 OA
ATOM     30  C   UNL     1       8.318   3.689  25.379  0.00  0.00    +0.019 C 
ATOM     31  C   UNL     1       9.635   3.653  23.076  0.00  0.00    +0.073 C 
ATOM     32  C   UNL     1      11.025   4.113  23.568  0.00  0.00    +0.058 C 
ATOM     33  C   UNL     1      11.121   5.623  23.639  0.00  0.00    +0.043 C 
ATOM     34  C   UNL     1       9.942   6.210  24.355  0.00  0.00    +0.094 C 
ATOM     35  C   UNL     1      10.161   6.778  25.714  0.00  0.00    +0.044 C 
ATOM     36  O   UNL     1       9.046   6.747  23.370  0.00  0.00    -0.364 OA
ENDBRANCH  22  28
ENDBRANCH   1  22
TORSDOF 9
ENDMDL
MODEL 9
REMARK VINA RESULT:      -6.4      1.869      2.918
REMARK  Name = 
REMARK  11 active torsions:
REMARK  status: ('A' for Active; 'I' for Inactive)
REMARK    1  A    between atoms: C_4  and  C_5
REMARK    2  A    between atoms: C_10  and  C_11
REMARK    3  A    between atoms: N_15  and  C_17
REMARK    4  A    between atoms: C_17  and  C_18
REMARK    5  A    between atoms: N_20  and  C_21
REMARK    6  A    between atoms: C_24  and  N_25
REMARK    7  A    between atoms: C_26  and  C_28
REMARK    8  A    between atoms: C_28  and  C_29
REMARK    9  A    between atoms: C_29  and  C_30
REMARK   10  A    between atoms: C_30  and  C_31
REMARK   11  A    between atoms: C_31  and  O_32
REMARK                            x       y       z     vdW  Elec       q    Type
REMARK                         _______ _______ _______ _____ _____    ______ ____
ROOT
ATOM      1  C   UNL     1       7.484  -1.731  25.687  0.00  0.00    +0.262 C 
ATOM      2  N   UNL     1       7.164  -1.015  24.556  0.00  0.00    -0.281 N 
ATOM      3  H   UNL     1       6.390  -1.392  24.000  0.00  0.00    +0.155 HD
ATOM      4  O   UNL     1       8.332  -1.424  26.528  0.00  0.00    -0.270 OA
ENDROOT
BRANCH   2   5
ATOM      5  C   UNL     1       7.727   0.237  24.200  0.00  0.00    +0.034 A 
ATOM      6  C   UNL     1       7.495   1.356  25.000  0.00  0.00    +0.025 A 
ATOM      7  C   UNL     1       8.140   2.579  24.729  0.00  0.00    +0.025 A 
ATOM      8  C   UNL     1       8.993   2.717  23.627  0.00  0.00    +0.033 A 
ATOM      9  C   UNL     1       9.171   1.615  22.799  0.00  0.00    +0.025 A 
ATOM     10  C   UNL     1       8.541   0.398  23.079  0.00  0.00    +0.025 A 
BRANCH   8  11
ATOM     11  N   UNL     1       9.654   3.951  23.415  0.00  0.00    -0.285 N 
ATOM     12  H   UNL     1       9.060   4.743  23.209  0.00  0.00    +0.155 HD
ATOM     13  C   UNL     1      11.025   4.163  23.443  0.00  0.00    +0.217 C 
ATOM     14  O   UNL     1      11.897   3.311  23.596  0.00  0.00    -0.275 OA
BRANCH  13  15
ATOM     15  C   UNL     1      11.443   5.603  23.209  0.00  0.00    +0.096 C 
BRANCH  15  16
ATOM     16  C   UNL     1      11.555   6.312  24.558  0.00  0.00    +0.020 C 
BRANCH  16  17
ATOM     17  C   UNL     1      10.304   7.107  24.906  0.00  0.00    +0.121 C 
BRANCH  17  18
ATOM     18  C   UNL     1       9.632   6.562  26.142  0.00  0.00    +0.305 C 
ATOM     19  O   UNL     1       9.981   6.840  27.280  0.00  0.00    -0.251 OA
BRANCH  18  20
ATOM     20  O   UNL     1       8.589   5.745  25.883  0.00  0.00    -0.481 OA
ATOM     21  H   UNL     1       8.757   4.800  26.060  0.00  0.00    +0.295 HD
ENDBRANCH  18  20
ENDBRANCH  17  18
ENDBRANCH  16  17
ENDBRANCH  15  16
ENDBRANCH  13  15
ENDBRANCH   8  11
ENDBRANCH   2   5
BRANCH   1  22
ATOM     22  C   UNL     1       6.616  -2.919  25.986  0.00  0.00    +0.228 C 
BRANCH  22  28
ATOM     23  C   UNL     1       3.970  -6.569  25.058  0.00  0.00    +0.162 C 
ATOM     24  C   UNL     1       4.957  -5.721  25.821  0.00  0.00    +0.040 C 
ATOM     25  C   UNL     1       5.558  -6.514  26.994  0.00  0.00    +0.020 C 
ATOM     26  C   UNL     1       6.536  -5.663  27.809  0.00  0.00    +0.052 C 
ATOM     27  C   UNL     1       7.635  -5.036  26.964  0.00  0.00    +0.131 C 
ATOM     28  N   UNL     1       7.187  -4.288  25.714  0.00  0.00    +0.226 N 
ATOM     29  O   UNL     1       8.320  -4.087  24.925  0.00  0.00    -0.775 OA
ATOM     30  C   UNL     1       4.013  -4.610  26.386  0.00  0.00    +0.019 C 
ATOM     31  C   UNL     1       6.162  -5.196  24.945  0.00  0.00    +0.073 C 
ATOM     32  C   UNL     1       5.738  -4.581  23.592  0.00  0.00    +0.058 C 
ATOM     33  C   UNL     1       4.892  -5.542  22.783  0.00  0.00    +0.043 C 
ATOM     34  C   UNL     1       3.790  -6.127  23.613  0.00  0.00    +0.094 C 
ATOM     35  C   UNL     1       2.395  -5.681  23.339  0.00  0.00    +0.044 C 
ATOM     36  O   UNL     1       4.172  -7.460  23.984  0.00  0.00    -0.364 OA
ENDBRANCH  22  28
ENDBRANCH   1  22
TORSDOF 9
ENDMDL
