MODEL 1
REMARK VINA RESULT:      -8.6      0.000      0.000
REMARK  Name = 
REMARK  3 active torsions:
REMARK  status: ('A' for Active; 'I' for Inactive)
REMARK    1  A    between atoms: C_1  and  C_2
REMARK    2  A    between atoms: C_9  and  N_10
REMARK    3  A    between atoms: N_10  and  C_11
REMARK                            x       y       z     vdW  Elec       q    Type
REMARK                         _______ _______ _______ _____ _____    ______ ____
ROOT
ATOM      1  C   UNL     1       8.505  -0.858  22.549  0.00  0.00    +0.033 A 
ATOM      2  C   UNL     1       7.299  -0.339  23.022  0.00  0.00    +0.024 A 
ATOM      3  C   UNL     1       7.233   0.977  23.509  0.00  0.00    +0.010 A 
ATOM      4  C   UNL     1       8.369   1.811  23.514  0.00  0.00    -0.017 A 
ATOM      5  C   UNL     1       9.577   1.298  23.010  0.00  0.00    -0.016 A 
ATOM      6  C   UNL     1      10.735   2.086  23.004  0.00  0.00    +0.017 A 
ATOM      7  C   UNL     1      10.699   3.422  23.409  0.00  0.00    -0.017 A 
ATOM      8  C   UNL     1       9.486   3.967  23.883  0.00  0.00    -0.017 A 
ATOM      9  C   UNL     1       9.449   5.333  24.212  0.00  0.00    +0.008 A 
ATOM     10  C   UNL     1      10.579   6.139  24.049  0.00  0.00    +0.001 A 
ATOM     11  C   UNL     1      11.776   5.585  23.604  0.00  0.00    +0.001 A 
ATOM     12  C   UNL     1      11.841   4.227  23.305  0.00  0.00    +0.008 A 
ATOM     13  C   UNL     1       8.345   3.142  23.971  0.00  0.00    +0.017 A 
ATOM     14  C   UNL     1       9.617  -0.005  22.507  0.00  0.00    +0.031 A 
ENDROOT
BRANCH   1  15
ATOM     15  N   UNL     1       8.605  -2.225  22.198  0.00  0.00    -0.299 N 
ATOM     16  H   UNL     1       9.520  -2.502  21.834  0.00  0.00    +0.154 HD
BRANCH  15  20
ATOM     17  C   UNL     1       4.508  -4.813  23.065  0.00  0.00    +0.066 C 
ATOM     18  C   UNL     1       5.977  -4.632  23.345  0.00  0.00    +0.045 A 
ATOM     19  C   UNL     1       6.672  -3.656  22.466  0.00  0.00    +0.067 A 
ATOM     20  C   UNL     1       7.905  -3.250  22.835  0.00  0.00    +0.130 A 
ATOM     21  N   UNL     1       8.509  -3.941  23.906  0.00  0.00    -0.182 N 
ATOM     22  C   UNL     1       7.828  -4.955  24.604  0.00  0.00    +0.255 A 
ATOM     23  N   UNL     1       8.637  -5.469  25.502  0.00  0.00    -0.197 NA
ATOM     24  C   UNL     1       9.781  -4.757  25.351  0.00  0.00    +0.247 A 
ATOM     25  N   UNL     1       9.764  -3.800  24.422  0.00  0.00    -0.151 NA
ATOM     26  N   UNL     1       6.521  -5.256  24.345  0.00  0.00    -0.216 NA
ENDBRANCH  15  20
ENDBRANCH   1  15
TORSDOF 2
ENDMDL
MODEL 2
REMARK VINA RESULT:      -8.4      1.409      2.864
REMARK  Name = 
REMARK  3 active torsions:
REMARK  status: ('A' for Active; 'I' for Inactive)
REMARK    1  A    between atoms: C_1  and  C_2
REMARK    2  A    between atoms: C_9  and  N_10
REMARK    3  A    between atoms: N_10  and  C_11
REMARK                            x       y       z     vdW  Elec       q    Type
REMARK                         _______ _______ _______ _____ _____    ______ ____
ROOT
ATOM      1  C   UNL     1       7.980  -0.596  22.925  0.00  0.00    +0.033 A 
ATOM      2  C   UNL     1       9.106  -0.554  22.101  0.00  0.00    +0.024 A 
ATOM      3  C   UNL     1       9.893   0.607  22.029  0.00  0.00    +0.010 A 
ATOM      4  C   UNL     1       9.583   1.747  22.796  0.00  0.00    -0.017 A 
ATOM      5  C   UNL     1       8.466   1.697  23.648  0.00  0.00    -0.016 A 
ATOM      6  C   UNL     1       8.112   2.809  24.422  0.00  0.00    +0.017 A 
ATOM      7  C   UNL     1       8.907   3.956  24.438  0.00  0.00    -0.017 A 
ATOM      8  C   UNL     1      10.055   4.014  23.618  0.00  0.00    -0.017 A 
ATOM      9  C   UNL     1      10.885   5.144  23.705  0.00  0.00    +0.008 A 
ATOM     10  C   UNL     1      10.596   6.176  24.602  0.00  0.00    +0.001 A 
ATOM     11  C   UNL     1       9.449   6.121  25.389  0.00  0.00    +0.001 A 
ATOM     12  C   UNL     1       8.597   5.024  25.292  0.00  0.00    +0.008 A 
ATOM     13  C   UNL     1      10.355   2.924  22.773  0.00  0.00    +0.017 A 
ATOM     14  C   UNL     1       7.709   0.525  23.725  0.00  0.00    +0.031 A 
ENDROOT
BRANCH   1  15
ATOM     15  N   UNL     1       7.106  -1.707  22.885  0.00  0.00    -0.299 N 
ATOM     16  H   UNL     1       6.380  -1.649  22.168  0.00  0.00    +0.154 HD
BRANCH  15  20
ATOM     17  C   UNL     1       9.771  -4.942  25.469  0.00  0.00    +0.066 C 
ATOM     18  C   UNL     1       8.699  -4.720  24.434  0.00  0.00    +0.045 A 
ATOM     19  C   UNL     1       8.228  -3.318  24.301  0.00  0.00    +0.067 A 
ATOM     20  C   UNL     1       7.481  -3.009  23.221  0.00  0.00    +0.130 A 
ATOM     21  N   UNL     1       7.036  -4.085  22.425  0.00  0.00    -0.182 N 
ATOM     22  C   UNL     1       7.418  -5.410  22.702  0.00  0.00    +0.255 A 
ATOM     23  N   UNL     1       6.819  -6.211  21.851  0.00  0.00    -0.197 NA
ATOM     24  C   UNL     1       6.101  -5.370  21.067  0.00  0.00    +0.247 A 
ATOM     25  N   UNL     1       6.207  -4.069  21.343  0.00  0.00    -0.151 NA
ATOM     26  N   UNL     1       8.310  -5.712  23.692  0.00  0.00    -0.216 NA
ENDBRANCH  15  20
ENDBRANCH   1  15
TORSDOF 2
ENDMDL
MODEL 3
REMARK VINA RESULT:      -8.4      1.162      1.965
REMARK  Name = 
REMARK  3 active torsions:
REMARK  status: ('A' for Active; 'I' for Inactive)
REMARK    1  A    between atoms: C_1  and  C_2
REMARK    2  A    between atoms: C_9  and  N_10
REMARK    3  A    between atoms: N_10  and  C_11
REMARK                            x       y       z     vdW  Elec       q    Type
REMARK                         _______ _______ _______ _____ _____    ______ ____
ROOT
ATOM      1  C   UNL     1       9.128  -0.868  22.873  0.00  0.00    +0.033 A 
ATOM      2  C   UNL     1      10.216  -0.585  23.699  0.00  0.00    +0.024 A 
ATOM      3  C   UNL     1      10.533   0.743  24.029  0.00  0.00    +0.010 A 
ATOM      4  C   UNL     1       9.755   1.818  23.555  0.00  0.00    -0.017 A 
ATOM      5  C   UNL     1       8.641   1.532  22.746  0.00  0.00    -0.016 A 
ATOM      6  C   UNL     1       7.844   2.567  22.243  0.00  0.00    +0.017 A 
ATOM      7  C   UNL     1       8.077   3.895  22.605  0.00  0.00    -0.017 A 
ATOM      8  C   UNL     1       9.167   4.201  23.447  0.00  0.00    -0.017 A 
ATOM      9  C   UNL     1       9.340   5.532  23.863  0.00  0.00    +0.008 A 
ATOM     10  C   UNL     1       8.438   6.526  23.474  0.00  0.00    +0.001 A 
ATOM     11  C   UNL     1       7.380   6.218  22.624  0.00  0.00    +0.001 A 
ATOM     12  C   UNL     1       7.212   4.912  22.174  0.00  0.00    +0.008 A 
ATOM     13  C   UNL     1      10.021   3.163  23.877  0.00  0.00    +0.017 A 
ATOM     14  C   UNL     1       8.327   0.203  22.450  0.00  0.00    +0.031 A 
ENDROOT
BRANCH   1  15
ATOM     15  N   UNL     1       8.899  -2.189  22.422  0.00  0.00    -0.299 N 
ATOM     16  H   UNL     1       9.692  -2.616  21.939  0.00  0.00    +0.154 HD
BRANCH  15  20
ATOM     17  C   UNL     1       4.455  -4.063  23.415  0.00  0.00    +0.066 C 
ATOM     18  C   UNL     1       5.945  -4.147  23.628  0.00  0.00    +0.045 A 
ATOM     19  C   UNL     1       6.760  -3.275  22.744  0.00  0.00    +0.067 A 
ATOM     20  C   UNL     1       8.059  -3.100  23.064  0.00  0.00    +0.130 A 
ATOM     21  N   UNL     1       8.580  -3.923  24.084  0.00  0.00    -0.182 N 
ATOM     22  C   UNL     1       7.764  -4.829  24.786  0.00  0.00    +0.255 A 
ATOM     23  N   UNL     1       8.509  -5.506  25.629  0.00  0.00    -0.197 NA
ATOM     24  C   UNL     1       9.752  -4.997  25.442  0.00  0.00    +0.247 A 
ATOM     25  N   UNL     1       9.861  -4.019  24.542  0.00  0.00    -0.151 NA
ATOM     26  N   UNL     1       6.414  -4.891  24.583  0.00  0.00    -0.216 NA
ENDBRANCH  15  20
ENDBRANCH   1  15
TORSDOF 2
ENDMDL
MODEL 4
REMARK VINA RESULT:      -8.3      1.657      2.663
REMARK  Name = 
REMARK  3 active torsions:
REMARK  status: ('A' for Active; 'I' for Inactive)
REMARK    1  A    between atoms: C_1  and  C_2
REMARK    2  A    between atoms: C_9  and  N_10
REMARK    3  A    between atoms: N_10  and  C_11
REMARK                            x       y       z     vdW  Elec       q    Type
REMARK                         _______ _______ _______ _____ _____    ______ ____
ROOT
ATOM      1  C   UNL     1       9.600  -2.271  24.156  0.00  0.00    +0.033 A 
ATOM      2  C   UNL     1      10.189  -1.898  22.948  0.00  0.00    +0.024 A 
ATOM      3  C   UNL     1      10.158  -0.560  22.523  0.00  0.00    +0.010 A 
ATOM      4  C   UNL     1       9.553   0.441  23.309  0.00  0.00    -0.017 A 
ATOM      5  C   UNL     1       8.985   0.072  24.541  0.00  0.00    -0.016 A 
ATOM      6  C   UNL     1       8.364   1.029  25.352  0.00  0.00    +0.017 A 
ATOM      7  C   UNL     1       8.375   2.382  25.006  0.00  0.00    -0.017 A 
ATOM      8  C   UNL     1       8.973   2.779  23.791  0.00  0.00    -0.017 A 
ATOM      9  C   UNL     1       9.044   4.151  23.496  0.00  0.00    +0.008 A 
ATOM     10  C   UNL     1       8.556   5.102  24.396  0.00  0.00    +0.001 A 
ATOM     11  C   UNL     1       7.946   4.699  25.580  0.00  0.00    +0.001 A 
ATOM     12  C   UNL     1       7.837   3.342  25.874  0.00  0.00    +0.008 A 
ATOM     13  C   UNL     1       9.518   1.798  22.935  0.00  0.00    +0.017 A 
ATOM     14  C   UNL     1       9.048  -1.261  24.958  0.00  0.00    +0.031 A 
ENDROOT
BRANCH   1  15
ATOM     15  N   UNL     1       9.501  -3.636  24.512  0.00  0.00    -0.299 N 
ATOM     16  H   UNL     1      10.126  -3.923  25.268  0.00  0.00    +0.154 HD
BRANCH  15  20
ATOM     17  C   UNL     1       5.662  -5.425  22.001  0.00  0.00    +0.066 C 
ATOM     18  C   UNL     1       6.403  -5.362  23.312  0.00  0.00    +0.045 A 
ATOM     19  C   UNL     1       7.740  -4.717  23.251  0.00  0.00    +0.067 A 
ATOM     20  C   UNL     1       8.328  -4.386  24.420  0.00  0.00    +0.130 A 
ATOM     21  N   UNL     1       7.719  -4.868  25.598  0.00  0.00    -0.182 N 
ATOM     22  C   UNL     1       6.516  -5.595  25.559  0.00  0.00    +0.255 A 
ATOM     23  N   UNL     1       6.208  -5.973  26.779  0.00  0.00    -0.197 NA
ATOM     24  C   UNL     1       7.209  -5.462  27.536  0.00  0.00    +0.247 A 
ATOM     25  N   UNL     1       8.142  -4.761  26.890  0.00  0.00    -0.151 NA
ATOM     26  N   UNL     1       5.828  -5.789  24.394  0.00  0.00    -0.216 NA
ENDBRANCH  15  20
ENDBRANCH   1  15
TORSDOF 2
ENDMDL
MODEL 5
REMARK VINA RESULT:      -8.1      1.281      2.055
REMARK  Name = 
REMARK  3 active torsions:
REMARK  status: ('A' for Active; 'I' for Inactive)
REMARK    1  A    between atoms: C_1  and  C_2
REMARK    2  A    between atoms: C_9  and  N_10
REMARK    3  A    between atoms: N_10  and  C_11
REMARK                            x       y       z     vdW  Elec       q    Type
REMARK                         _______ _______ _______ _____ _____    ______ ____
ROOT
ATOM      1  C   UNL     1       7.631  -0.291  23.009  0.00  0.00    +0.033 A 
ATOM      2  C   UNL     1       8.826  -0.614  22.367  0.00  0.00    +0.024 A 
ATOM      3  C   UNL     1       9.856   0.334  22.258  0.00  0.00    +0.010 A 
ATOM      4  C   UNL     1       9.722   1.623  22.810  0.00  0.00    -0.017 A 
ATOM      5  C   UNL     1       8.530   1.941  23.484  0.00  0.00    -0.016 A 
ATOM      6  C   UNL     1       8.346   3.213  24.040  0.00  0.00    +0.017 A 
ATOM      7  C   UNL     1       9.370   4.161  24.022  0.00  0.00    -0.017 A 
ATOM      8  C   UNL     1      10.590   3.849  23.383  0.00  0.00    -0.017 A 
ATOM      9  C   UNL     1      11.636   4.785  23.442  0.00  0.00    +0.008 A 
ATOM     10  C   UNL     1      11.482   5.986  24.139  0.00  0.00    +0.001 A 
ATOM     11  C   UNL     1      10.268   6.295  24.745  0.00  0.00    +0.001 A 
ATOM     12  C   UNL     1       9.209   5.395  24.669  0.00  0.00    +0.008 A 
ATOM     13  C   UNL     1      10.735   2.598  22.746  0.00  0.00    +0.017 A 
ATOM     14  C   UNL     1       7.526   0.976  23.603  0.00  0.00    +0.031 A 
ENDROOT
BRANCH   1  15
ATOM     15  N   UNL     1       6.541  -1.192  22.989  0.00  0.00    -0.299 N 
ATOM     16  H   UNL     1       5.733  -0.867  22.453  0.00  0.00    +0.154 HD
BRANCH  15  20
ATOM     17  C   UNL     1       6.167  -5.685  21.011  0.00  0.00    +0.066 C 
ATOM     18  C   UNL     1       6.570  -4.851  22.200  0.00  0.00    +0.045 A 
ATOM     19  C   UNL     1       6.590  -3.385  21.965  0.00  0.00    +0.067 A 
ATOM     20  C   UNL     1       6.672  -2.580  23.045  0.00  0.00    +0.130 A 
ATOM     21  N   UNL     1       6.944  -3.201  24.283  0.00  0.00    -0.182 N 
ATOM     22  C   UNL     1       7.047  -4.599  24.396  0.00  0.00    +0.255 A 
ATOM     23  N   UNL     1       7.364  -4.902  25.635  0.00  0.00    -0.197 NA
ATOM     24  C   UNL     1       7.432  -3.698  26.254  0.00  0.00    +0.247 A 
ATOM     25  N   UNL     1       7.164  -2.629  25.501  0.00  0.00    -0.151 NA
ATOM     26  N   UNL     1       6.798  -5.429  23.340  0.00  0.00    -0.216 NA
ENDBRANCH  15  20
ENDBRANCH   1  15
TORSDOF 2
ENDMDL
MODEL 6
REMARK VINA RESULT:      -8.1      3.825      8.533
REMARK  Name = 
REMARK  3 active torsions:
REMARK  status: ('A' for Active; 'I' for Inactive)
REMARK    1  A    between atoms: C_1  and  C_2
REMARK    2  A    between atoms: C_9  and  N_10
REMARK    3  A    between atoms: N_10  and  C_11
REMARK                            x       y       z     vdW  Elec       q    Type
REMARK                         _______ _______ _______ _____ _____    ______ ____
ROOT
ATOM      1  C   UNL     1       9.526   1.729  23.258  0.00  0.00    +0.033 A 
ATOM      2  C   UNL     1      10.251   1.364  24.394  0.00  0.00    +0.024 A 
ATOM      3  C   UNL     1      10.173   0.055  24.898  0.00  0.00    +0.010 A 
ATOM      4  C   UNL     1       9.384  -0.925  24.265  0.00  0.00    -0.017 A 
ATOM      5  C   UNL     1       8.677  -0.567  23.104  0.00  0.00    -0.016 A 
ATOM      6  C   UNL     1       7.871  -1.504  22.446  0.00  0.00    +0.017 A 
ATOM      7  C   UNL     1       7.822  -2.834  22.868  0.00  0.00    -0.017 A 
ATOM      8  C   UNL     1       8.555  -3.224  24.009  0.00  0.00    -0.017 A 
ATOM      9  C   UNL     1       8.557  -4.581  24.373  0.00  0.00    +0.008 A 
ATOM     10  C   UNL     1       7.870  -5.527  23.608  0.00  0.00    +0.001 A 
ATOM     11  C   UNL     1       7.131  -5.129  22.498  0.00  0.00    +0.001 A 
ATOM     12  C   UNL     1       7.090  -3.784  22.141  0.00  0.00    +0.008 A 
ATOM     13  C   UNL     1       9.293  -2.254  24.721  0.00  0.00    +0.017 A 
ATOM     14  C   UNL     1       8.786   0.733  22.603  0.00  0.00    +0.031 A 
ENDROOT
BRANCH   1  15
ATOM     15  N   UNL     1       9.488   3.079  22.839  0.00  0.00    -0.299 N 
ATOM     16  H   UNL     1       8.865   3.259  22.048  0.00  0.00    +0.154 HD
BRANCH  15  20
ATOM     17  C   UNL     1       7.790   6.470  25.978  0.00  0.00    +0.066 C 
ATOM     18  C   UNL     1       8.983   5.878  25.273  0.00  0.00    +0.045 A 
ATOM     19  C   UNL     1       8.725   4.601  24.558  0.00  0.00    +0.067 A 
ATOM     20  C   UNL     1       9.664   4.168  23.692  0.00  0.00    +0.130 A 
ATOM     21  N   UNL     1      10.898   4.853  23.696  0.00  0.00    -0.182 N 
ATOM     22  C   UNL     1      11.110   5.980  24.511  0.00  0.00    +0.255 A 
ATOM     23  N   UNL     1      12.353   6.380  24.367  0.00  0.00    -0.197 NA
ATOM     24  C   UNL     1      12.869   5.510  23.464  0.00  0.00    +0.247 A 
ATOM     25  N   UNL     1      12.036   4.578  22.998  0.00  0.00    -0.151 NA
ATOM     26  N   UNL     1      10.109   6.524  25.264  0.00  0.00    -0.216 NA
ENDBRANCH  15  20
ENDBRANCH   1  15
TORSDOF 2
ENDMDL
MODEL 7
REMARK VINA RESULT:      -8.0      1.658      3.082
REMARK  Name = 
REMARK  3 active torsions:
REMARK  status: ('A' for Active; 'I' for Inactive)
REMARK    1  A    between atoms: C_1  and  C_2
REMARK    2  A    between atoms: C_9  and  N_10
REMARK    3  A    between atoms: N_10  and  C_11
REMARK                            x       y       z     vdW  Elec       q    Type
REMARK                         _______ _______ _______ _____ _____    ______ ____
ROOT
ATOM      1  C   UNL     1       9.465  -2.257  24.050  0.00  0.00    +0.033 A 
ATOM      2  C   UNL     1      10.333  -1.889  23.022  0.00  0.00    +0.024 A 
ATOM      3  C   UNL     1      10.523  -0.535  22.700  0.00  0.00    +0.010 A 
ATOM      4  C   UNL     1       9.864   0.484  23.415  0.00  0.00    -0.017 A 
ATOM      5  C   UNL     1       9.012   0.116  24.471  0.00  0.00    -0.016 A 
ATOM      6  C   UNL     1       8.327   1.093  25.204  0.00  0.00    +0.017 A 
ATOM      7  C   UNL     1       8.542   2.452  24.968  0.00  0.00    -0.017 A 
ATOM      8  C   UNL     1       9.423   2.844  23.938  0.00  0.00    -0.017 A 
ATOM      9  C   UNL     1       9.688   4.213  23.766  0.00  0.00    +0.008 A 
ATOM     10  C   UNL     1       9.113   5.164  24.613  0.00  0.00    +0.001 A 
ATOM     11  C   UNL     1       8.227   4.769  25.611  0.00  0.00    +0.001 A 
ATOM     12  C   UNL     1       7.926   3.420  25.774  0.00  0.00    +0.008 A 
ATOM     13  C   UNL     1      10.041   1.854  23.144  0.00  0.00    +0.017 A 
ATOM     14  C   UNL     1       8.854  -1.235  24.792  0.00  0.00    +0.031 A 
ENDROOT
BRANCH   1  15
ATOM     15  N   UNL     1       9.160  -3.620  24.275  0.00  0.00    -0.299 N 
ATOM     16  H   UNL     1       9.882  -4.137  24.783  0.00  0.00    +0.154 HD
BRANCH  15  20
ATOM     17  C   UNL     1       5.744  -6.057  26.850  0.00  0.00    +0.066 C 
ATOM     18  C   UNL     1       6.073  -5.259  25.615  0.00  0.00    +0.045 A 
ATOM     19  C   UNL     1       7.407  -4.605  25.621  0.00  0.00    +0.067 A 
ATOM     20  C   UNL     1       7.867  -4.114  24.452  0.00  0.00    +0.130 A 
ATOM     21  N   UNL     1       6.957  -4.075  23.375  0.00  0.00    -0.182 N 
ATOM     22  C   UNL     1       5.656  -4.595  23.493  0.00  0.00    +0.255 A 
ATOM     23  N   UNL     1       5.007  -4.375  22.372  0.00  0.00    -0.197 NA
ATOM     24  C   UNL     1       5.918  -3.746  21.590  0.00  0.00    +0.247 A 
ATOM     25  N   UNL     1       7.126  -3.556  22.125  0.00  0.00    -0.151 NA
ATOM     26  N   UNL     1       5.239  -5.246  24.620  0.00  0.00    -0.216 NA
ENDBRANCH  15  20
ENDBRANCH   1  15
TORSDOF 2
ENDMDL
MODEL 8
REMARK VINA RESULT:      -7.9      2.342      3.757
REMARK  Name = 
REMARK  3 active torsions:
REMARK  status: ('A' for Active; 'I' for Inactive)
REMARK    1  A    between atoms: C_1  and  C_2
REMARK    2  A    between atoms: C_9  and  N_10
REMARK    3  A    between atoms: N_10  and  C_11
REMARK                            x       y       z     vdW  Elec       q    Type
REMARK                         _______ _______ _______ _____ _____    ______ ____
ROOT
ATOM      1  C   UNL     1       8.844  -3.366  25.575  0.00  0.00    +0.033 A 
ATOM      2  C   UNL     1       9.676  -3.475  24.461  0.00  0.00    +0.024 A 
ATOM      3  C   UNL     1      10.015  -2.337  23.711  0.00  0.00    +0.010 A 
ATOM      4  C   UNL     1       9.545  -1.059  24.073  0.00  0.00    -0.017 A 
ATOM      5  C   UNL     1       8.729  -0.944  25.212  0.00  0.00    -0.016 A 
ATOM      6  C   UNL     1       8.230   0.304  25.605  0.00  0.00    +0.017 A 
ATOM      7  C   UNL     1       8.600   1.471  24.934  0.00  0.00    -0.017 A 
ATOM      8  C   UNL     1       9.449   1.382  23.810  0.00  0.00    -0.017 A 
ATOM      9  C   UNL     1       9.874   2.572  23.195  0.00  0.00    +0.008 A 
ATOM     10  C   UNL     1       9.487   3.816  23.701  0.00  0.00    +0.001 A 
ATOM     11  C   UNL     1       8.631   3.892  24.795  0.00  0.00    +0.001 A 
ATOM     12  C   UNL     1       8.172   2.724  25.397  0.00  0.00    +0.008 A 
ATOM     13  C   UNL     1       9.876   0.113  23.365  0.00  0.00    +0.017 A 
ATOM     14  C   UNL     1       8.423  -2.084  25.959  0.00  0.00    +0.031 A 
ENDROOT
BRANCH   1  15
ATOM     15  N   UNL     1       8.383  -4.527  26.240  0.00  0.00    -0.299 N 
ATOM     16  H   UNL     1       8.701  -4.615  27.207  0.00  0.00    +0.154 HD
BRANCH  15  20
ATOM     17  C   UNL     1       4.544  -5.521  23.322  0.00  0.00    +0.066 C 
ATOM     18  C   UNL     1       5.222  -5.748  24.648  0.00  0.00    +0.045 A 
ATOM     19  C   UNL     1       6.607  -5.219  24.749  0.00  0.00    +0.067 A 
ATOM     20  C   UNL     1       7.161  -5.146  25.977  0.00  0.00    +0.130 A 
ATOM     21  N   UNL     1       6.459  -5.770  27.030  0.00  0.00    -0.182 N 
ATOM     22  C   UNL     1       5.206  -6.373  26.822  0.00  0.00    +0.255 A 
ATOM     23  N   UNL     1       4.810  -6.928  27.945  0.00  0.00    -0.197 NA
ATOM     24  C   UNL     1       5.809  -6.643  28.815  0.00  0.00    +0.247 A 
ATOM     25  N   UNL     1       6.825  -5.924  28.334  0.00  0.00    -0.151 NA
ATOM     26  N   UNL     1       4.563  -6.304  25.618  0.00  0.00    -0.216 NA
ENDBRANCH  15  20
ENDBRANCH   1  15
TORSDOF 2
ENDMDL
MODEL 9
REMARK VINA RESULT:      -7.9      1.808      3.184
REMARK  Name = 
REMARK  3 active torsions:
REMARK  status: ('A' for Active; 'I' for Inactive)
REMARK    1  A    between atoms: C_1  and  C_2
REMARK    2  A    between atoms: C_9  and  N_10
REMARK    3  A    between atoms: N_10  and  C_11
REMARK                            x       y       z     vdW  Elec       q    Type
REMARK                         _______ _______ _______ _____ _____    ______ ____
ROOT
ATOM      1  C   UNL     1       8.697  -2.417  24.501  0.00  0.00    +0.033 A 
ATOM      2  C   UNL     1       9.814  -2.413  23.665  0.00  0.00    +0.024 A 
ATOM      3  C   UNL     1      10.381  -1.201  23.240  0.00  0.00    +0.010 A 
ATOM      4  C   UNL     1       9.854   0.037  23.658  0.00  0.00    -0.017 A 
ATOM      5  C   UNL     1       8.747   0.034  24.524  0.00  0.00    -0.016 A 
ATOM      6  C   UNL     1       8.182   1.240  24.959  0.00  0.00    +0.017 A 
ATOM      7  C   UNL     1       8.757   2.467  24.622  0.00  0.00    -0.017 A 
ATOM      8  C   UNL     1       9.893   2.491  23.785  0.00  0.00    -0.017 A 
ATOM      9  C   UNL     1      10.505   3.727  23.519  0.00  0.00    +0.008 A 
ATOM     10  C   UNL     1      10.015   4.904  24.093  0.00  0.00    +0.001 A 
ATOM     11  C   UNL     1       8.881   4.873  24.898  0.00  0.00    +0.001 A 
ATOM     12  C   UNL     1       8.241   3.661  25.145  0.00  0.00    +0.008 A 
ATOM     13  C   UNL     1      10.403   1.276  23.277  0.00  0.00    +0.017 A 
ATOM     14  C   UNL     1       8.212  -1.182  24.956  0.00  0.00    +0.031 A 
ENDROOT
BRANCH   1  15
ATOM     15  N   UNL     1       8.038  -3.631  24.808  0.00  0.00    -0.299 N 
ATOM     16  H   UNL     1       8.007  -3.855  25.805  0.00  0.00    +0.154 HD
BRANCH  15  20
ATOM     17  C   UNL     1       6.196  -5.861  20.824  0.00  0.00    +0.066 C 
ATOM     18  C   UNL     1       5.930  -5.268  22.183  0.00  0.00    +0.045 A 
ATOM     19  C   UNL     1       7.141  -4.931  22.974  0.00  0.00    +0.067 A 
ATOM     20  C   UNL     1       6.979  -4.155  24.066  0.00  0.00    +0.130 A 
ATOM     21  N   UNL     1       5.653  -3.908  24.480  0.00  0.00    -0.182 N 
ATOM     22  C   UNL     1       4.553  -4.383  23.745  0.00  0.00    +0.255 A 
ATOM     23  N   UNL     1       3.448  -4.066  24.381  0.00  0.00    -0.197 NA
ATOM     24  C   UNL     1       3.887  -3.396  25.474  0.00  0.00    +0.247 A 
ATOM     25  N   UNL     1       5.207  -3.241  25.583  0.00  0.00    -0.151 NA
ATOM     26  N   UNL     1       4.708  -5.024  22.548  0.00  0.00    -0.216 NA
ENDBRANCH  15  20
ENDBRANCH   1  15
TORSDOF 2
ENDMDL
