MODEL 1
REMARK VINA RESULT:      -7.9      0.000      0.000
REMARK  Name = 
REMARK  19 active torsions:
REMARK  status: ('A' for Active; 'I' for Inactive)
REMARK    1  A    between atoms: C_1  and  C_2
REMARK    2  A    between atoms: C_2  and  C_3
REMARK    3  A    between atoms: C_2  and  C_4
REMARK    4  A    between atoms: C_6  and  C_7
REMARK    5  A    between atoms: C_7  and  C_8
REMARK    6  A    between atoms: C_7  and  C_9
REMARK    7  A    between atoms: C_10  and  S_16
REMARK    8  A    between atoms: C_11  and  C_13
REMARK    9  A    between atoms: C_13  and  C_14
REMARK   10  A    between atoms: C_13  and  C_15
REMARK   11  A    between atoms: S_16  and  N_19
REMARK   12  A    between atoms: N_19  and  C_20
REMARK   13  A    between atoms: C_20  and  C_22
REMARK   14  A    between atoms: C_20  and  C_32
REMARK   15  A    between atoms: C_22  and  C_23
REMARK   16  A    between atoms: C_27  and  C_29
REMARK   17  A    between atoms: C_40  and  C_42
REMARK   18  A    between atoms: C_42  and  C_43
REMARK   19  A    between atoms: C_43  and  N_44
REMARK                            x       y       z     vdW  Elec       q    Type
REMARK                         _______ _______ _______ _____ _____    ______ ____
ROOT
ATOM      1  C   UNL     1       6.626  -0.640  24.863  0.00  0.00    +0.166 C 
ENDROOT
BRANCH   1   2
ATOM      2  C   UNL     1       6.376  -1.562  23.641  0.00  0.00    +0.235 C 
ATOM      3  N   UNL     1       5.502  -2.652  23.755  0.00  0.00    -0.297 N 
ATOM      4  C   UNL     1       4.544  -2.891  24.854  0.00  0.00    +0.127 C 
ATOM      5  C   UNL     1       4.310  -4.397  25.125  0.00  0.00    +0.126 C 
ATOM      6  N   UNL     1       3.991  -5.116  23.886  0.00  0.00    -0.298 N 
ATOM      7  C   UNL     1       2.825  -5.821  23.616  0.00  0.00    +0.217 C 
ATOM      8  O   UNL     1       2.616  -6.330  22.513  0.00  0.00    -0.276 OA
ATOM      9  C   UNL     1       4.994  -4.938  22.836  0.00  0.00    +0.126 C 
ATOM     10  C   UNL     1       5.217  -3.442  22.542  0.00  0.00    +0.127 C 
ATOM     11  O   UNL     1       6.938  -1.348  22.554  0.00  0.00    -0.274 OA
BRANCH   7  12
ATOM     12  C   UNL     1       1.823  -5.961  24.750  0.00  0.00    +0.111 C 
BRANCH  12  13
ATOM     13  C   UNL     1       1.679  -7.412  25.209  0.00  0.00    +0.087 C 
BRANCH  13  14
ATOM     14  N   UNL     1       2.966  -8.106  25.140  0.00  0.00    -0.330 NA
ATOM     15  H   UNL     1       3.123  -8.419  24.181  0.00  0.00    +0.118 HD
ATOM     16  H   UNL     1       3.720  -7.450  25.342  0.00  0.00    +0.118 HD
ENDBRANCH  13  14
ENDBRANCH  12  13
ENDBRANCH   7  12
ENDBRANCH   1   2
BRANCH   1  17
ATOM     17  N   UNL     1       6.956   0.725  24.310  0.00  0.00    -0.178 NA
ATOM     18  H   UNL     1       6.799   0.858  23.308  0.00  0.00    +0.149 HD
BRANCH  17  19
ATOM     19  S   UNL     1       6.956   2.196  25.134  0.00  0.00    +0.060 S 
ATOM     20  O   UNL     1       5.703   2.808  24.753  0.00  0.00    -0.153 OA
ATOM     21  O   UNL     1       7.170   1.911  26.536  0.00  0.00    -0.153 OA
BRANCH  19  25
ATOM     22  C   UNL     1      10.532   4.907  23.713  0.00  0.00    -0.044 A 
ATOM     23  C   UNL     1       9.296   5.429  24.077  0.00  0.00    +0.009 A 
ATOM     24  C   UNL     1       8.250   4.621  24.574  0.00  0.00    -0.018 A 
ATOM     25  C   UNL     1       8.349   3.200  24.482  0.00  0.00    +0.112 A 
ATOM     26  C   UNL     1       9.513   2.642  23.865  0.00  0.00    -0.018 A 
ATOM     27  C   UNL     1      10.604   3.521  23.567  0.00  0.00    +0.009 A 
BRANCH  22  29
ATOM     28  C   UNL     1      12.063   6.590  24.980  0.00  0.00    +0.012 C 
ATOM     29  C   UNL     1      11.732   5.856  23.677  0.00  0.00    +0.013 C 
ATOM     30  C   UNL     1      13.008   5.219  23.114  0.00  0.00    +0.012 C 
ENDBRANCH  22  29
BRANCH  24  31
ATOM     31  C   UNL     1       7.238   5.330  25.460  0.00  0.00    +0.015 C 
ATOM     32  C   UNL     1       6.267   6.335  24.865  0.00  0.00    +0.012 C 
ATOM     33  C   UNL     1       7.888   5.860  26.733  0.00  0.00    +0.012 C 
ENDBRANCH  24  31
BRANCH  26  34
ATOM     34  C   UNL     1       9.674   1.187  23.414  0.00  0.00    +0.015 C 
ATOM     35  C   UNL     1      10.834   0.414  24.066  0.00  0.00    +0.012 C 
ATOM     36  C   UNL     1       9.843   1.154  21.887  0.00  0.00    +0.012 C 
ENDBRANCH  26  34
ENDBRANCH  19  25
ENDBRANCH  17  19
ENDBRANCH   1  17
BRANCH   1  37
ATOM     37  C   UNL     1       7.863  -1.111  25.736  0.00  0.00    +0.065 C 
BRANCH  37  38
ATOM     38  C   UNL     1       8.268  -2.590  25.883  0.00  0.00    -0.045 A 
ATOM     39  C   UNL     1       7.580  -3.400  26.835  0.00  0.00    +0.019 A 
ATOM     40  C   UNL     1       7.670  -4.813  26.821  0.00  0.00    +0.065 A 
ATOM     41  C   UNL     1       8.575  -5.407  25.943  0.00  0.00    +0.016 A 
ATOM     42  C   UNL     1       9.387  -4.612  25.129  0.00  0.00    +0.001 A 
ATOM     43  C   UNL     1       9.234  -3.214  25.091  0.00  0.00    +0.004 A 
BRANCH  40  44
ATOM     44  C   UNL     1       6.722  -5.700  27.586  0.00  0.00    +0.308 C 
ATOM     45  N   UNL     1       6.608  -5.693  28.878  0.00  0.00    -0.099 NA
ATOM     46  H   UNL     1       7.218  -5.003  29.313  0.00  0.00    +0.363 HD
ATOM     47  N   UNL     1       5.863  -6.551  26.950  0.00  0.00    -0.247 N 
ATOM     48  H   UNL     1       5.395  -7.153  27.624  0.00  0.00    +0.288 HD
ATOM     49  H   UNL     1       6.233  -7.073  26.165  0.00  0.00    +0.288 HD
ENDBRANCH  40  44
ENDBRANCH  37  38
ENDBRANCH   1  37
TORSDOF 13
ENDMDL
MODEL 2
REMARK VINA RESULT:      -7.9      2.378      3.221
REMARK  Name = 
REMARK  19 active torsions:
REMARK  status: ('A' for Active; 'I' for Inactive)
REMARK    1  A    between atoms: C_1  and  C_2
REMARK    2  A    between atoms: C_2  and  C_3
REMARK    3  A    between atoms: C_2  and  C_4
REMARK    4  A    between atoms: C_6  and  C_7
REMARK    5  A    between atoms: C_7  and  C_8
REMARK    6  A    between atoms: C_7  and  C_9
REMARK    7  A    between atoms: C_10  and  S_16
REMARK    8  A    between atoms: C_11  and  C_13
REMARK    9  A    between atoms: C_13  and  C_14
REMARK   10  A    between atoms: C_13  and  C_15
REMARK   11  A    between atoms: S_16  and  N_19
REMARK   12  A    between atoms: N_19  and  C_20
REMARK   13  A    between atoms: C_20  and  C_22
REMARK   14  A    between atoms: C_20  and  C_32
REMARK   15  A    between atoms: C_22  and  C_23
REMARK   16  A    between atoms: C_27  and  C_29
REMARK   17  A    between atoms: C_40  and  C_42
REMARK   18  A    between atoms: C_42  and  C_43
REMARK   19  A    between atoms: C_43  and  N_44
REMARK                            x       y       z     vdW  Elec       q    Type
REMARK                         _______ _______ _______ _____ _____    ______ ____
ROOT
ATOM      1  C   UNL     1       6.644  -0.453  24.470  0.00  0.00    +0.166 C 
ENDROOT
BRANCH   1   2
ATOM      2  C   UNL     1       5.393  -0.463  25.389  0.00  0.00    +0.235 C 
ATOM      3  N   UNL     1       5.195  -1.521  26.287  0.00  0.00    -0.297 N 
ATOM      4  C   UNL     1       6.196  -2.534  26.678  0.00  0.00    +0.127 C 
ATOM      5  C   UNL     1       5.559  -3.904  27.013  0.00  0.00    +0.126 C 
ATOM      6  N   UNL     1       4.452  -3.758  27.965  0.00  0.00    -0.298 N 
ATOM      7  C   UNL     1       4.366  -4.331  29.228  0.00  0.00    +0.217 C 
ATOM      8  O   UNL     1       3.428  -4.086  29.989  0.00  0.00    -0.276 OA
ATOM      9  C   UNL     1       3.425  -2.815  27.522  0.00  0.00    +0.126 C 
ATOM     10  C   UNL     1       4.045  -1.439  27.210  0.00  0.00    +0.127 C 
ATOM     11  O   UNL     1       4.562   0.458  25.344  0.00  0.00    -0.274 OA
BRANCH   7  12
ATOM     12  C   UNL     1       5.471  -5.296  29.626  0.00  0.00    +0.111 C 
BRANCH  12  13
ATOM     13  C   UNL     1       4.985  -6.744  29.644  0.00  0.00    +0.087 C 
BRANCH  13  14
ATOM     14  N   UNL     1       5.300  -7.411  28.378  0.00  0.00    -0.330 NA
ATOM     15  H   UNL     1       5.893  -6.797  27.819  0.00  0.00    +0.118 HD
ATOM     16  H   UNL     1       5.861  -8.243  28.561  0.00  0.00    +0.118 HD
ENDBRANCH  13  14
ENDBRANCH  12  13
ENDBRANCH   7  12
ENDBRANCH   1   2
BRANCH   1  17
ATOM     17  N   UNL     1       6.866   0.983  24.064  0.00  0.00    -0.178 NA
ATOM     18  H   UNL     1       6.390   1.292  23.214  0.00  0.00    +0.149 HD
BRANCH  17  19
ATOM     19  S   UNL     1       7.253   2.285  25.063  0.00  0.00    +0.060 S 
ATOM     20  O   UNL     1       6.138   3.191  24.900  0.00  0.00    -0.153 OA
ATOM     21  O   UNL     1       7.510   1.761  26.386  0.00  0.00    -0.153 OA
BRANCH  19  25
ATOM     22  C   UNL     1      11.171   4.440  23.592  0.00  0.00    -0.044 A 
ATOM     23  C   UNL     1       9.998   5.132  23.874  0.00  0.00    +0.009 A 
ATOM     24  C   UNL     1       8.848   4.491  24.386  0.00  0.00    -0.018 A 
ATOM     25  C   UNL     1       8.775   3.066  24.395  0.00  0.00    +0.112 A 
ATOM     26  C   UNL     1       9.880   2.330  23.862  0.00  0.00    -0.018 A 
ATOM     27  C   UNL     1      11.078   3.048  23.544  0.00  0.00    +0.009 A 
BRANCH  22  29
ATOM     28  C   UNL     1      12.991   5.608  22.141  0.00  0.00    +0.012 C 
ATOM     29  C   UNL     1      12.478   5.234  23.535  0.00  0.00    +0.013 C 
ATOM     30  C   UNL     1      12.485   6.479  24.430  0.00  0.00    +0.012 C 
ENDBRANCH  22  29
BRANCH  24  31
ATOM     31  C   UNL     1       7.904   5.379  25.183  0.00  0.00    +0.015 C 
ATOM     32  C   UNL     1       7.012   6.383  24.475  0.00  0.00    +0.012 C 
ATOM     33  C   UNL     1       8.607   5.998  26.386  0.00  0.00    +0.012 C 
ENDBRANCH  24  31
BRANCH  26  34
ATOM     34  C   UNL     1       9.876   0.838  23.517  0.00  0.00    +0.015 C 
ATOM     35  C   UNL     1      10.994   0.003  24.166  0.00  0.00    +0.012 C 
ATOM     36  C   UNL     1       9.950   0.677  21.990  0.00  0.00    +0.012 C 
ENDBRANCH  26  34
ENDBRANCH  19  25
ENDBRANCH  17  19
ENDBRANCH   1  17
BRANCH   1  37
ATOM     37  C   UNL     1       6.430  -1.296  23.145  0.00  0.00    +0.065 C 
BRANCH  37  38
ATOM     38  C   UNL     1       6.924  -2.746  22.986  0.00  0.00    -0.045 A 
ATOM     39  C   UNL     1       7.939  -3.227  23.866  0.00  0.00    +0.019 A 
ATOM     40  C   UNL     1       8.227  -4.607  23.994  0.00  0.00    +0.065 A 
ATOM     41  C   UNL     1       7.599  -5.496  23.124  0.00  0.00    +0.016 A 
ATOM     42  C   UNL     1       6.735  -5.016  22.135  0.00  0.00    +0.001 A 
ATOM     43  C   UNL     1       6.392  -3.653  22.067  0.00  0.00    +0.004 A 
BRANCH  40  44
ATOM     44  C   UNL     1       9.047  -5.169  25.127  0.00  0.00    +0.308 C 
ATOM     45  N   UNL     1      10.344  -5.207  25.132  0.00  0.00    -0.099 NA
ATOM     46  H   UNL     1      10.743  -4.795  24.291  0.00  0.00    +0.363 HD
ATOM     47  N   UNL     1       8.466  -5.635  26.272  0.00  0.00    -0.247 N 
ATOM     48  H   UNL     1       9.160  -6.085  26.865  0.00  0.00    +0.288 HD
ATOM     49  H   UNL     1       7.632  -6.200  26.166  0.00  0.00    +0.288 HD
ENDBRANCH  40  44
ENDBRANCH  37  38
ENDBRANCH   1  37
TORSDOF 13
ENDMDL
MODEL 3
REMARK VINA RESULT:      -7.7      2.925      9.641
REMARK  Name = 
REMARK  19 active torsions:
REMARK  status: ('A' for Active; 'I' for Inactive)
REMARK    1  A    between atoms: C_1  and  C_2
REMARK    2  A    between atoms: C_2  and  C_3
REMARK    3  A    between atoms: C_2  and  C_4
REMARK    4  A    between atoms: C_6  and  C_7
REMARK    5  A    between atoms: C_7  and  C_8
REMARK    6  A    between atoms: C_7  and  C_9
REMARK    7  A    between atoms: C_10  and  S_16
REMARK    8  A    between atoms: C_11  and  C_13
REMARK    9  A    between atoms: C_13  and  C_14
REMARK   10  A    between atoms: C_13  and  C_15
REMARK   11  A    between atoms: S_16  and  N_19
REMARK   12  A    between atoms: N_19  and  C_20
REMARK   13  A    between atoms: C_20  and  C_22
REMARK   14  A    between atoms: C_20  and  C_32
REMARK   15  A    between atoms: C_22  and  C_23
REMARK   16  A    between atoms: C_27  and  C_29
REMARK   17  A    between atoms: C_40  and  C_42
REMARK   18  A    between atoms: C_42  and  C_43
REMARK   19  A    between atoms: C_43  and  N_44
REMARK                            x       y       z     vdW  Elec       q    Type
REMARK                         _______ _______ _______ _____ _____    ______ ____
ROOT
ATOM      1  C   UNL     1       8.499  -1.959  24.904  0.00  0.00    +0.166 C 
ENDROOT
BRANCH   1   2
ATOM      2  C   UNL     1       9.567  -1.175  24.095  0.00  0.00    +0.235 C 
ATOM      3  N   UNL     1       9.530   0.226  24.064  0.00  0.00    -0.297 N 
ATOM      4  C   UNL     1       8.736   1.099  24.953  0.00  0.00    +0.127 C 
ATOM      5  C   UNL     1       8.295   2.412  24.263  0.00  0.00    +0.126 C 
ATOM      6  N   UNL     1       9.432   3.084  23.624  0.00  0.00    -0.298 N 
ATOM      7  C   UNL     1       9.908   4.357  23.912  0.00  0.00    +0.217 C 
ATOM      8  O   UNL     1      10.922   4.808  23.374  0.00  0.00    -0.276 OA
ATOM      9  C   UNL     1      10.157   2.232  22.681  0.00  0.00    +0.126 C 
ATOM     10  C   UNL     1      10.622   0.932  23.365  0.00  0.00    +0.127 C 
ATOM     11  O   UNL     1      10.460  -1.772  23.473  0.00  0.00    -0.274 OA
BRANCH   7  12
ATOM     12  C   UNL     1       9.111   5.185  24.907  0.00  0.00    +0.111 C 
BRANCH  12  13
ATOM     13  C   UNL     1       8.554   6.459  24.273  0.00  0.00    +0.087 C 
BRANCH  13  14
ATOM     14  N   UNL     1       8.555   6.352  22.812  0.00  0.00    -0.330 NA
ATOM     15  H   UNL     1       7.594   6.414  22.475  0.00  0.00    +0.118 HD
ATOM     16  H   UNL     1       9.039   7.155  22.411  0.00  0.00    +0.118 HD
ENDBRANCH  13  14
ENDBRANCH  12  13
ENDBRANCH   7  12
ENDBRANCH   1   2
BRANCH   1  17
ATOM     17  N   UNL     1       8.660  -3.412  24.530  0.00  0.00    -0.178 NA
ATOM     18  H   UNL     1       9.323  -3.616  23.780  0.00  0.00    +0.149 HD
BRANCH  17  19
ATOM     19  S   UNL     1       8.403  -4.760  25.510  0.00  0.00    +0.060 S 
ATOM     20  O   UNL     1       9.274  -5.768  24.949  0.00  0.00    -0.153 OA
ATOM     21  O   UNL     1       8.633  -4.355  26.879  0.00  0.00    -0.153 OA
BRANCH  19  25
ATOM     22  C   UNL     1       4.002  -6.241  24.741  0.00  0.00    -0.044 A 
ATOM     23  C   UNL     1       4.714  -5.496  23.807  0.00  0.00    +0.009 A 
ATOM     24  C   UNL     1       6.059  -5.118  24.010  0.00  0.00    -0.018 A 
ATOM     25  C   UNL     1       6.654  -5.277  25.298  0.00  0.00    +0.112 A 
ATOM     26  C   UNL     1       5.846  -5.807  26.353  0.00  0.00    -0.018 A 
ATOM     27  C   UNL     1       4.561  -6.341  26.016  0.00  0.00    +0.009 A 
BRANCH  22  29
ATOM     28  C   UNL     1       1.685  -7.294  25.295  0.00  0.00    +0.012 C 
ATOM     29  C   UNL     1       2.778  -7.021  24.256  0.00  0.00    +0.013 C 
ATOM     30  C   UNL     1       2.141  -6.446  22.987  0.00  0.00    +0.012 C 
ENDBRANCH  22  29
BRANCH  24  31
ATOM     31  C   UNL     1       6.866  -4.863  22.747  0.00  0.00    +0.015 C 
ATOM     32  C   UNL     1       6.452  -3.769  21.778  0.00  0.00    +0.012 C 
ATOM     33  C   UNL     1       7.191  -6.164  22.021  0.00  0.00    +0.012 C 
ENDBRANCH  24  31
BRANCH  26  34
ATOM     34  C   UNL     1       6.197  -5.782  27.844  0.00  0.00    +0.015 C 
ATOM     35  C   UNL     1       5.739  -7.008  28.655  0.00  0.00    +0.012 C 
ATOM     36  C   UNL     1       5.606  -4.512  28.476  0.00  0.00    +0.012 C 
ENDBRANCH  26  34
ENDBRANCH  19  25
ENDBRANCH  17  19
ENDBRANCH   1  17
BRANCH   1  37
ATOM     37  C   UNL     1       7.019  -1.531  24.529  0.00  0.00    +0.065 C 
BRANCH  37  38
ATOM     38  C   UNL     1       5.897  -1.398  25.576  0.00  0.00    -0.045 A 
ATOM     39  C   UNL     1       4.649  -2.047  25.333  0.00  0.00    +0.019 A 
ATOM     40  C   UNL     1       3.690  -2.234  26.356  0.00  0.00    +0.065 A 
ATOM     41  C   UNL     1       3.919  -1.632  27.593  0.00  0.00    +0.016 A 
ATOM     42  C   UNL     1       5.055  -0.842  27.788  0.00  0.00    +0.001 A 
ATOM     43  C   UNL     1       6.043  -0.728  26.792  0.00  0.00    +0.004 A 
BRANCH  40  44
ATOM     44  C   UNL     1       2.526  -3.182  26.223  0.00  0.00    +0.308 C 
ATOM     45  N   UNL     1       1.815  -3.307  25.146  0.00  0.00    -0.099 NA
ATOM     46  H   UNL     1       2.148  -2.706  24.394  0.00  0.00    +0.363 HD
ATOM     47  N   UNL     1       2.170  -4.029  27.235  0.00  0.00    -0.247 N 
ATOM     48  H   UNL     1       1.295  -4.499  27.013  0.00  0.00    +0.288 HD
ATOM     49  H   UNL     1       2.171  -3.649  28.173  0.00  0.00    +0.288 HD
ENDBRANCH  40  44
ENDBRANCH  37  38
ENDBRANCH   1  37
TORSDOF 13
ENDMDL
MODEL 4
REMARK VINA RESULT:      -7.7      3.161      9.469
REMARK  Name = 
REMARK  19 active torsions:
REMARK  status: ('A' for Active; 'I' for Inactive)
REMARK    1  A    between atoms: C_1  and  C_2
REMARK    2  A    between atoms: C_2  and  C_3
REMARK    3  A    between atoms: C_2  and  C_4
REMARK    4  A    between atoms: C_6  and  C_7
REMARK    5  A    between atoms: C_7  and  C_8
REMARK    6  A    between atoms: C_7  and  C_9
REMARK    7  A    between atoms: C_10  and  S_16
REMARK    8  A    between atoms: C_11  and  C_13
REMARK    9  A    between atoms: C_13  and  C_14
REMARK   10  A    between atoms: C_13  and  C_15
REMARK   11  A    between atoms: S_16  and  N_19
REMARK   12  A    between atoms: N_19  and  C_20
REMARK   13  A    between atoms: C_20  and  C_22
REMARK   14  A    between atoms: C_20  and  C_32
REMARK   15  A    between atoms: C_22  and  C_23
REMARK   16  A    between atoms: C_27  and  C_29
REMARK   17  A    between atoms: C_40  and  C_42
REMARK   18  A    between atoms: C_42  and  C_43
REMARK   19  A    between atoms: C_43  and  N_44
REMARK                            x       y       z     vdW  Elec       q    Type
REMARK                         _______ _______ _______ _____ _____    ______ ____
ROOT
ATOM      1  C   UNL     1       8.589  -1.997  25.002  0.00  0.00    +0.166 C 
ENDROOT
BRANCH   1   2
ATOM      2  C   UNL     1       9.589  -1.215  24.109  0.00  0.00    +0.235 C 
ATOM      3  N   UNL     1       9.535   0.185  24.062  0.00  0.00    -0.297 N 
ATOM      4  C   UNL     1       8.796   1.063  24.992  0.00  0.00    +0.127 C 
ATOM      5  C   UNL     1       8.294   2.361  24.315  0.00  0.00    +0.126 C 
ATOM      6  N   UNL     1       9.376   3.035  23.589  0.00  0.00    -0.298 N 
ATOM      7  C   UNL     1       9.858   4.316  23.826  0.00  0.00    +0.217 C 
ATOM      8  O   UNL     1      10.826   4.769  23.212  0.00  0.00    -0.276 OA
ATOM      9  C   UNL     1      10.042   2.176  22.610  0.00  0.00    +0.126 C 
ATOM     10  C   UNL     1      10.568   0.891  23.278  0.00  0.00    +0.127 C 
ATOM     11  O   UNL     1      10.443  -1.812  23.435  0.00  0.00    -0.274 OA
BRANCH   7  12
ATOM     12  C   UNL     1       9.123   5.151  24.862  0.00  0.00    +0.111 C 
BRANCH  12  13
ATOM     13  C   UNL     1       8.406   6.344  24.231  0.00  0.00    +0.087 C 
BRANCH  13  14
ATOM     14  N   UNL     1       8.517   6.300  22.771  0.00  0.00    -0.330 NA
ATOM     15  H   UNL     1       7.652   6.657  22.363  0.00  0.00    +0.118 HD
ATOM     16  H   UNL     1       9.250   6.939  22.465  0.00  0.00    +0.118 HD
ENDBRANCH  13  14
ENDBRANCH  12  13
ENDBRANCH   7  12
ENDBRANCH   1   2
BRANCH   1  17
ATOM     17  N   UNL     1       8.843  -3.463  24.747  0.00  0.00    -0.178 NA
ATOM     18  H   UNL     1       9.634  -3.687  24.140  0.00  0.00    +0.149 HD
BRANCH  17  19
ATOM     19  S   UNL     1       8.440  -4.764  25.740  0.00  0.00    +0.060 S 
ATOM     20  O   UNL     1       9.356  -5.807  25.336  0.00  0.00    -0.153 OA
ATOM     21  O   UNL     1       8.503  -4.304  27.110  0.00  0.00    -0.153 OA
BRANCH  19  25
ATOM     22  C   UNL     1       3.946  -5.878  24.893  0.00  0.00    -0.044 A 
ATOM     23  C   UNL     1       4.554  -6.107  26.122  0.00  0.00    +0.009 A 
ATOM     24  C   UNL     1       5.879  -5.704  26.396  0.00  0.00    -0.018 A 
ATOM     25  C   UNL     1       6.722  -5.268  25.330  0.00  0.00    +0.112 A 
ATOM     26  C   UNL     1       6.189  -5.273  24.003  0.00  0.00    -0.018 A 
ATOM     27  C   UNL     1       4.786  -5.511  23.841  0.00  0.00    +0.009 A 
BRANCH  22  29
ATOM     28  C   UNL     1       1.691  -5.209  26.011  0.00  0.00    +0.012 C 
ATOM     29  C   UNL     1       2.417  -5.874  24.837  0.00  0.00    +0.013 C 
ATOM     30  C   UNL     1       1.847  -5.339  23.518  0.00  0.00    +0.012 C 
ENDBRANCH  22  29
BRANCH  24  31
ATOM     31  C   UNL     1       6.202  -5.465  27.863  0.00  0.00    +0.015 C 
ATOM     32  C   UNL     1       6.443  -6.637  28.798  0.00  0.00    +0.012 C 
ATOM     33  C   UNL     1       5.258  -4.438  28.480  0.00  0.00    +0.012 C 
ENDBRANCH  24  31
BRANCH  26  34
ATOM     34  C   UNL     1       7.002  -5.127  22.713  0.00  0.00    +0.015 C 
ATOM     35  C   UNL     1       6.674  -3.890  21.858  0.00  0.00    +0.012 C 
ATOM     36  C   UNL     1       6.818  -6.392  21.860  0.00  0.00    +0.012 C 
ENDBRANCH  26  34
ENDBRANCH  19  25
ENDBRANCH  17  19
ENDBRANCH   1  17
BRANCH   1  37
ATOM     37  C   UNL     1       7.078  -1.702  24.623  0.00  0.00    +0.065 C 
BRANCH  37  38
ATOM     38  C   UNL     1       5.943  -1.681  25.665  0.00  0.00    -0.045 A 
ATOM     39  C   UNL     1       6.143  -0.968  26.885  0.00  0.00    +0.019 A 
ATOM     40  C   UNL     1       5.069  -0.641  27.746  0.00  0.00    +0.065 A 
ATOM     41  C   UNL     1       3.809  -1.163  27.457  0.00  0.00    +0.016 A 
ATOM     42  C   UNL     1       3.637  -2.012  26.360  0.00  0.00    +0.001 A 
ATOM     43  C   UNL     1       4.692  -2.267  25.464  0.00  0.00    +0.004 A 
BRANCH  40  44
ATOM     44  C   UNL     1       5.189   0.371  28.856  0.00  0.00    +0.308 C 
ATOM     45  N   UNL     1       4.268   0.585  29.743  0.00  0.00    -0.099 NA
ATOM     46  H   UNL     1       3.463  -0.025  29.615  0.00  0.00    +0.363 HD
ATOM     47  N   UNL     1       6.326   1.108  29.037  0.00  0.00    -0.247 N 
ATOM     48  H   UNL     1       6.179   1.819  29.749  0.00  0.00    +0.288 HD
ATOM     49  H   UNL     1       6.764   1.485  28.206  0.00  0.00    +0.288 HD
ENDBRANCH  40  44
ENDBRANCH  37  38
ENDBRANCH   1  37
TORSDOF 13
ENDMDL
MODEL 5
REMARK VINA RESULT:      -7.5      3.133      9.721
REMARK  Name = 
REMARK  19 active torsions:
REMARK  status: ('A' for Active; 'I' for Inactive)
REMARK    1  A    between atoms: C_1  and  C_2
REMARK    2  A    between atoms: C_2  and  C_3
REMARK    3  A    between atoms: C_2  and  C_4
REMARK    4  A    between atoms: C_6  and  C_7
REMARK    5  A    between atoms: C_7  and  C_8
REMARK    6  A    between atoms: C_7  and  C_9
REMARK    7  A    between atoms: C_10  and  S_16
REMARK    8  A    between atoms: C_11  and  C_13
REMARK    9  A    between atoms: C_13  and  C_14
REMARK   10  A    between atoms: C_13  and  C_15
REMARK   11  A    between atoms: S_16  and  N_19
REMARK   12  A    between atoms: N_19  and  C_20
REMARK   13  A    between atoms: C_20  and  C_22
REMARK   14  A    between atoms: C_20  and  C_32
REMARK   15  A    between atoms: C_22  and  C_23
REMARK   16  A    between atoms: C_27  and  C_29
REMARK   17  A    between atoms: C_40  and  C_42
REMARK   18  A    between atoms: C_42  and  C_43
REMARK   19  A    between atoms: C_43  and  N_44
REMARK                            x       y       z     vdW  Elec       q    Type
REMARK                         _______ _______ _______ _____ _____    ______ ____
ROOT
ATOM      1  C   UNL     1       8.352  -1.821  25.068  0.00  0.00    +0.166 C 
ENDROOT
BRANCH   1   2
ATOM      2  C   UNL     1       9.298  -0.847  24.316  0.00  0.00    +0.235 C 
ATOM      3  N   UNL     1       9.121   0.538  24.446  0.00  0.00    -0.297 N 
ATOM      4  C   UNL     1       8.287   1.221  25.456  0.00  0.00    +0.127 C 
ATOM      5  C   UNL     1       7.687   2.549  24.935  0.00  0.00    +0.126 C 
ATOM      6  N   UNL     1       8.720   3.401  24.337  0.00  0.00    -0.298 N 
ATOM      7  C   UNL     1       9.081   4.677  24.751  0.00  0.00    +0.217 C 
ATOM      8  O   UNL     1      10.019   5.287  24.232  0.00  0.00    -0.276 OA
ATOM      9  C   UNL     1       9.481   2.737  23.278  0.00  0.00    +0.126 C 
ATOM     10  C   UNL     1      10.104   1.425  23.794  0.00  0.00    +0.127 C 
ATOM     11  O   UNL     1      10.216  -1.276  23.599  0.00  0.00    -0.274 OA
BRANCH   7  12
ATOM     12  C   UNL     1       8.253   5.304  25.861  0.00  0.00    +0.111 C 
BRANCH  12  13
ATOM     13  C   UNL     1       8.657   6.755  26.124  0.00  0.00    +0.087 C 
BRANCH  13  14
ATOM     14  N   UNL     1       9.824   6.814  27.008  0.00  0.00    -0.330 NA
ATOM     15  H   UNL     1      10.666   6.891  26.437  0.00  0.00    +0.118 HD
ATOM     16  H   UNL     1       9.788   7.669  27.563  0.00  0.00    +0.118 HD
ENDBRANCH  13  14
ENDBRANCH  12  13
ENDBRANCH   7  12
ENDBRANCH   1   2
BRANCH   1  17
ATOM     17  N   UNL     1       8.743  -3.214  24.641  0.00  0.00    -0.178 NA
ATOM     18  H   UNL     1       9.498  -3.282  23.955  0.00  0.00    +0.149 HD
BRANCH  17  19
ATOM     19  S   UNL     1       8.576  -4.643  25.518  0.00  0.00    +0.060 S 
ATOM     20  O   UNL     1       9.493  -5.557  24.873  0.00  0.00    -0.153 OA
ATOM     21  O   UNL     1       8.804  -4.330  26.912  0.00  0.00    -0.153 OA
BRANCH  19  25
ATOM     22  C   UNL     1       4.260  -6.338  24.709  0.00  0.00    -0.044 A 
ATOM     23  C   UNL     1       4.969  -5.612  23.758  0.00  0.00    +0.009 A 
ATOM     24  C   UNL     1       6.292  -5.170  23.977  0.00  0.00    -0.018 A 
ATOM     25  C   UNL     1       6.856  -5.242  25.287  0.00  0.00    +0.112 A 
ATOM     26  C   UNL     1       6.039  -5.751  26.345  0.00  0.00    -0.018 A 
ATOM     27  C   UNL     1       4.786  -6.354  26.001  0.00  0.00    +0.009 A 
BRANCH  22  29
ATOM     28  C   UNL     1       2.377  -8.040  25.294  0.00  0.00    +0.012 C 
ATOM     29  C   UNL     1       3.082  -7.191  24.231  0.00  0.00    +0.013 C 
ATOM     30  C   UNL     1       2.036  -6.407  23.430  0.00  0.00    +0.012 C 
ENDBRANCH  22  29
BRANCH  24  31
ATOM     31  C   UNL     1       7.124  -4.944  22.724  0.00  0.00    +0.015 C 
ATOM     32  C   UNL     1       6.839  -3.760  21.816  0.00  0.00    +0.012 C 
ATOM     33  C   UNL     1       7.295  -6.234  21.930  0.00  0.00    +0.012 C 
ENDBRANCH  24  31
BRANCH  26  34
ATOM     34  C   UNL     1       6.346  -5.640  27.842  0.00  0.00    +0.015 C 
ATOM     35  C   UNL     1       6.126  -6.923  28.663  0.00  0.00    +0.012 C 
ATOM     36  C   UNL     1       5.499  -4.507  28.443  0.00  0.00    +0.012 C 
ENDBRANCH  26  34
ENDBRANCH  19  25
ENDBRANCH  17  19
ENDBRANCH   1  17
BRANCH   1  37
ATOM     37  C   UNL     1       6.829  -1.612  24.677  0.00  0.00    +0.065 C 
BRANCH  37  38
ATOM     38  C   UNL     1       5.677  -1.773  25.685  0.00  0.00    -0.045 A 
ATOM     39  C   UNL     1       5.787  -1.145  26.962  0.00  0.00    +0.019 A 
ATOM     40  C   UNL     1       4.671  -0.983  27.816  0.00  0.00    +0.065 A 
ATOM     41  C   UNL     1       3.468  -1.588  27.453  0.00  0.00    +0.016 A 
ATOM     42  C   UNL     1       3.395  -2.359  26.289  0.00  0.00    +0.001 A 
ATOM     43  C   UNL     1       4.487  -2.448  25.405  0.00  0.00    +0.004 A 
BRANCH  40  44
ATOM     44  C   UNL     1       4.678  -0.055  29.004  0.00  0.00    +0.308 C 
ATOM     45  N   UNL     1       4.202  -0.369  30.170  0.00  0.00    -0.099 NA
ATOM     46  H   UNL     1       3.843  -1.321  30.193  0.00  0.00    +0.363 HD
ATOM     47  N   UNL     1       5.249   1.185  28.944  0.00  0.00    -0.247 N 
ATOM     48  H   UNL     1       5.050   1.709  29.793  0.00  0.00    +0.288 HD
ATOM     49  H   UNL     1       5.073   1.730  28.110  0.00  0.00    +0.288 HD
ENDBRANCH  40  44
ENDBRANCH  37  38
ENDBRANCH   1  37
TORSDOF 13
ENDMDL
MODEL 6
REMARK VINA RESULT:      -7.5      0.694      2.663
REMARK  Name = 
REMARK  19 active torsions:
REMARK  status: ('A' for Active; 'I' for Inactive)
REMARK    1  A    between atoms: C_1  and  C_2
REMARK    2  A    between atoms: C_2  and  C_3
REMARK    3  A    between atoms: C_2  and  C_4
REMARK    4  A    between atoms: C_6  and  C_7
REMARK    5  A    between atoms: C_7  and  C_8
REMARK    6  A    between atoms: C_7  and  C_9
REMARK    7  A    between atoms: C_10  and  S_16
REMARK    8  A    between atoms: C_11  and  C_13
REMARK    9  A    between atoms: C_13  and  C_14
REMARK   10  A    between atoms: C_13  and  C_15
REMARK   11  A    between atoms: S_16  and  N_19
REMARK   12  A    between atoms: N_19  and  C_20
REMARK   13  A    between atoms: C_20  and  C_22
REMARK   14  A    between atoms: C_20  and  C_32
REMARK   15  A    between atoms: C_22  and  C_23
REMARK   16  A    between atoms: C_27  and  C_29
REMARK   17  A    between atoms: C_40  and  C_42
REMARK   18  A    between atoms: C_42  and  C_43
REMARK   19  A    between atoms: C_43  and  N_44
REMARK                            x       y       z     vdW  Elec       q    Type
REMARK                         _______ _______ _______ _____ _____    ______ ____
ROOT
ATOM      1  C   UNL     1       6.870  -0.794  24.457  0.00  0.00    +0.166 C 
ENDROOT
BRANCH   1   2
ATOM      2  C   UNL     1       6.623  -1.816  23.315  0.00  0.00    +0.235 C 
ATOM      3  N   UNL     1       5.701  -2.856  23.497  0.00  0.00    -0.297 N 
ATOM      4  C   UNL     1       4.698  -2.955  24.577  0.00  0.00    +0.127 C 
ATOM      5  C   UNL     1       4.392  -4.419  24.976  0.00  0.00    +0.126 C 
ATOM      6  N   UNL     1       4.086  -5.238  23.797  0.00  0.00    -0.298 N 
ATOM      7  C   UNL     1       2.902  -5.920  23.550  0.00  0.00    +0.217 C 
ATOM      8  O   UNL     1       2.708  -6.521  22.491  0.00  0.00    -0.276 OA
ATOM      9  C   UNL     1       5.130  -5.197  22.774  0.00  0.00    +0.126 C 
ATOM     10  C   UNL     1       5.425  -3.745  22.351  0.00  0.00    +0.127 C 
ATOM     11  O   UNL     1       7.230  -1.726  22.236  0.00  0.00    -0.274 OA
BRANCH   7  12
ATOM     12  C   UNL     1       1.857  -5.915  24.654  0.00  0.00    +0.111 C 
BRANCH  12  13
ATOM     13  C   UNL     1       1.535  -7.327  25.142  0.00  0.00    +0.087 C 
BRANCH  13  14
ATOM     14  N   UNL     1       2.746  -8.150  25.177  0.00  0.00    -0.330 NA
ATOM     15  H   UNL     1       3.437  -7.697  25.776  0.00  0.00    +0.118 HD
ATOM     16  H   UNL     1       2.539  -9.043  25.623  0.00  0.00    +0.118 HD
ENDBRANCH  13  14
ENDBRANCH  12  13
ENDBRANCH   7  12
ENDBRANCH   1   2
BRANCH   1  17
ATOM     17  N   UNL     1       7.460   0.435  23.810  0.00  0.00    -0.178 NA
ATOM     18  H   UNL     1       8.153   0.273  23.076  0.00  0.00    +0.149 HD
BRANCH  17  19
ATOM     19  S   UNL     1       6.755   1.960  23.667  0.00  0.00    +0.060 S 
ATOM     20  O   UNL     1       6.276   1.995  22.303  0.00  0.00    -0.153 OA
ATOM     21  O   UNL     1       5.782   2.093  24.728  0.00  0.00    -0.153 OA
BRANCH  19  25
ATOM     22  C   UNL     1      10.286   5.058  23.976  0.00  0.00    -0.044 A 
ATOM     23  C   UNL     1      10.487   3.684  24.055  0.00  0.00    +0.009 A 
ATOM     24  C   UNL     1       9.436   2.756  23.887  0.00  0.00    -0.018 A 
ATOM     25  C   UNL     1       8.083   3.210  23.878  0.00  0.00    +0.112 A 
ATOM     26  C   UNL     1       7.840   4.608  24.061  0.00  0.00    -0.018 A 
ATOM     27  C   UNL     1       8.963   5.498  24.030  0.00  0.00    +0.009 A 
BRANCH  22  29
ATOM     28  C   UNL     1      12.111   6.698  24.848  0.00  0.00    +0.012 C 
ATOM     29  C   UNL     1      11.493   5.945  23.666  0.00  0.00    +0.013 C 
ATOM     30  C   UNL     1      12.601   5.230  22.884  0.00  0.00    +0.012 C 
ENDBRANCH  22  29
BRANCH  24  31
ATOM     31  C   UNL     1       9.853   1.374  23.407  0.00  0.00    +0.015 C 
ATOM     32  C   UNL     1      10.921   0.592  24.152  0.00  0.00    +0.012 C 
ATOM     33  C   UNL     1      10.088   1.355  21.901  0.00  0.00    +0.012 C 
ENDBRANCH  24  31
BRANCH  26  34
ATOM     34  C   UNL     1       6.482   5.245  24.371  0.00  0.00    +0.015 C 
ATOM     35  C   UNL     1       5.651   5.667  23.146  0.00  0.00    +0.012 C 
ATOM     36  C   UNL     1       6.699   6.468  25.277  0.00  0.00    +0.012 C 
ENDBRANCH  26  34
ENDBRANCH  19  25
ENDBRANCH  17  19
ENDBRANCH   1  17
BRANCH   1  37
ATOM     37  C   UNL     1       7.917  -1.319  25.526  0.00  0.00    +0.065 C 
BRANCH  37  38
ATOM     38  C   UNL     1       8.210  -2.815  25.745  0.00  0.00    -0.045 A 
ATOM     39  C   UNL     1       7.530  -3.502  26.794  0.00  0.00    +0.019 A 
ATOM     40  C   UNL     1       7.504  -4.916  26.870  0.00  0.00    +0.065 A 
ATOM     41  C   UNL     1       8.290  -5.639  25.975  0.00  0.00    +0.016 A 
ATOM     42  C   UNL     1       9.102  -4.969  25.055  0.00  0.00    +0.001 A 
ATOM     43  C   UNL     1       9.061  -3.568  24.933  0.00  0.00    +0.004 A 
BRANCH  40  44
ATOM     44  C   UNL     1       6.545  -5.669  27.756  0.00  0.00    +0.308 C 
ATOM     45  N   UNL     1       6.261  -5.323  28.973  0.00  0.00    -0.099 NA
ATOM     46  H   UNL     1       6.744  -4.471  29.252  0.00  0.00    +0.363 HD
ATOM     47  N   UNL     1       5.857  -6.761  27.306  0.00  0.00    -0.247 N 
ATOM     48  H   UNL     1       5.359  -7.207  28.072  0.00  0.00    +0.288 HD
ATOM     49  H   UNL     1       6.372  -7.428  26.746  0.00  0.00    +0.288 HD
ENDBRANCH  40  44
ENDBRANCH  37  38
ENDBRANCH   1  37
TORSDOF 13
ENDMDL
MODEL 7
REMARK VINA RESULT:      -7.4      3.178      9.172
REMARK  Name = 
REMARK  19 active torsions:
REMARK  status: ('A' for Active; 'I' for Inactive)
REMARK    1  A    between atoms: C_1  and  C_2
REMARK    2  A    between atoms: C_2  and  C_3
REMARK    3  A    between atoms: C_2  and  C_4
REMARK    4  A    between atoms: C_6  and  C_7
REMARK    5  A    between atoms: C_7  and  C_8
REMARK    6  A    between atoms: C_7  and  C_9
REMARK    7  A    between atoms: C_10  and  S_16
REMARK    8  A    between atoms: C_11  and  C_13
REMARK    9  A    between atoms: C_13  and  C_14
REMARK   10  A    between atoms: C_13  and  C_15
REMARK   11  A    between atoms: S_16  and  N_19
REMARK   12  A    between atoms: N_19  and  C_20
REMARK   13  A    between atoms: C_20  and  C_22
REMARK   14  A    between atoms: C_20  and  C_32
REMARK   15  A    between atoms: C_22  and  C_23
REMARK   16  A    between atoms: C_27  and  C_29
REMARK   17  A    between atoms: C_40  and  C_42
REMARK   18  A    between atoms: C_42  and  C_43
REMARK   19  A    between atoms: C_43  and  N_44
REMARK                            x       y       z     vdW  Elec       q    Type
REMARK                         _______ _______ _______ _____ _____    ______ ____
ROOT
ATOM      1  C   UNL     1       7.643  -1.442  25.537  0.00  0.00    +0.166 C 
ENDROOT
BRANCH   1   2
ATOM      2  C   UNL     1       6.552  -0.620  26.274  0.00  0.00    +0.235 C 
ATOM      3  N   UNL     1       5.841   0.372  25.586  0.00  0.00    -0.297 N 
ATOM      4  C   UNL     1       5.806   0.566  24.122  0.00  0.00    +0.127 C 
ATOM      5  C   UNL     1       5.628   2.050  23.720  0.00  0.00    +0.126 C 
ATOM      6  N   UNL     1       4.499   2.661  24.431  0.00  0.00    -0.298 N 
ATOM      7  C   UNL     1       3.365   3.219  23.856  0.00  0.00    +0.217 C 
ATOM      8  O   UNL     1       2.431   3.641  24.541  0.00  0.00    -0.276 OA
ATOM      9  C   UNL     1       4.592   2.536  25.886  0.00  0.00    +0.126 C 
ATOM     10  C   UNL     1       4.745   1.059  26.298  0.00  0.00    +0.127 C 
ATOM     11  O   UNL     1       6.294  -0.831  27.470  0.00  0.00    -0.274 OA
BRANCH   7  12
ATOM     12  C   UNL     1       3.332   3.311  22.339  0.00  0.00    +0.111 C 
BRANCH  12  13
ATOM     13  C   UNL     1       1.914   3.163  21.789  0.00  0.00    +0.087 C 
BRANCH  13  14
ATOM     14  N   UNL     1       1.869   2.136  20.745  0.00  0.00    -0.330 NA
ATOM     15  H   UNL     1       2.538   1.401  20.976  0.00  0.00    +0.118 HD
ATOM     16  H   UNL     1       0.954   1.686  20.748  0.00  0.00    +0.118 HD
ENDBRANCH  13  14
ENDBRANCH  12  13
ENDBRANCH   7  12
ENDBRANCH   1   2
BRANCH   1  17
ATOM     17  N   UNL     1       7.980  -2.608  26.433  0.00  0.00    -0.178 NA
ATOM     18  H   UNL     1       7.550  -2.605  27.361  0.00  0.00    +0.149 HD
BRANCH  17  19
ATOM     19  S   UNL     1       8.435  -4.163  25.969  0.00  0.00    +0.060 S 
ATOM     20  O   UNL     1       9.316  -3.946  24.843  0.00  0.00    -0.153 OA
ATOM     21  O   UNL     1       8.979  -4.826  27.134  0.00  0.00    -0.153 OA
BRANCH  19  25
ATOM     22  C   UNL     1       4.415  -6.262  24.706  0.00  0.00    -0.044 A 
ATOM     23  C   UNL     1       4.942  -6.365  25.989  0.00  0.00    +0.009 A 
ATOM     24  C   UNL     1       6.108  -5.674  26.385  0.00  0.00    -0.018 A 
ATOM     25  C   UNL     1       6.925  -5.040  25.401  0.00  0.00    +0.112 A 
ATOM     26  C   UNL     1       6.533  -5.146  24.029  0.00  0.00    -0.018 A 
ATOM     27  C   UNL     1       5.244  -5.696  23.736  0.00  0.00    +0.009 A 
BRANCH  22  29
ATOM     28  C   UNL     1       1.974  -6.149  25.605  0.00  0.00    +0.012 C 
ATOM     29  C   UNL     1       2.938  -6.606  24.506  0.00  0.00    +0.013 C 
ATOM     30  C   UNL     1       2.385  -6.188  23.139  0.00  0.00    +0.012 C 
ENDBRANCH  22  29
BRANCH  24  31
ATOM     31  C   UNL     1       6.228  -5.391  27.874  0.00  0.00    +0.015 C 
ATOM     32  C   UNL     1       6.216  -6.531  28.877  0.00  0.00    +0.012 C 
ATOM     33  C   UNL     1       5.303  -4.256  28.301  0.00  0.00    +0.012 C 
ENDBRANCH  24  31
BRANCH  26  34
ATOM     34  C   UNL     1       7.409  -4.798  22.821  0.00  0.00    +0.015 C 
ATOM     35  C   UNL     1       7.226  -3.378  22.256  0.00  0.00    +0.012 C 
ATOM     36  C   UNL     1       7.150  -5.821  21.704  0.00  0.00    +0.012 C 
ENDBRANCH  26  34
ENDBRANCH  19  25
ENDBRANCH  17  19
ENDBRANCH   1  17
BRANCH   1  37
ATOM     37  C   UNL     1       8.976  -0.614  25.310  0.00  0.00    +0.065 C 
BRANCH  37  38
ATOM     38  C   UNL     1       9.228   0.239  24.053  0.00  0.00    -0.045 A 
ATOM     39  C   UNL     1       9.416   1.645  24.202  0.00  0.00    +0.019 A 
ATOM     40  C   UNL     1       9.949   2.444  23.162  0.00  0.00    +0.065 A 
ATOM     41  C   UNL     1      10.151   1.855  21.915  0.00  0.00    +0.016 A 
ATOM     42  C   UNL     1       9.800   0.518  21.706  0.00  0.00    +0.001 A 
ATOM     43  C   UNL     1       9.348  -0.290  22.766  0.00  0.00    +0.004 A 
BRANCH  40  44
ATOM     44  C   UNL     1      10.458   3.845  23.386  0.00  0.00    +0.308 C 
ATOM     45  N   UNL     1       9.711   4.833  23.770  0.00  0.00    -0.099 NA
ATOM     46  H   UNL     1       8.746   4.548  23.922  0.00  0.00    +0.363 HD
ATOM     47  N   UNL     1      11.781   4.159  23.249  0.00  0.00    -0.247 N 
ATOM     48  H   UNL     1      11.916   5.165  23.317  0.00  0.00    +0.288 HD
ATOM     49  H   UNL     1      12.266   3.762  22.454  0.00  0.00    +0.288 HD
ENDBRANCH  40  44
ENDBRANCH  37  38
ENDBRANCH   1  37
TORSDOF 13
ENDMDL
MODEL 8
REMARK VINA RESULT:      -7.2      3.166      9.482
REMARK  Name = 
REMARK  19 active torsions:
REMARK  status: ('A' for Active; 'I' for Inactive)
REMARK    1  A    between atoms: C_1  and  C_2
REMARK    2  A    between atoms: C_2  and  C_3
REMARK    3  A    between atoms: C_2  and  C_4
REMARK    4  A    between atoms: C_6  and  C_7
REMARK    5  A    between atoms: C_7  and  C_8
REMARK    6  A    between atoms: C_7  and  C_9
REMARK    7  A    between atoms: C_10  and  S_16
REMARK    8  A    between atoms: C_11  and  C_13
REMARK    9  A    between atoms: C_13  and  C_14
REMARK   10  A    between atoms: C_13  and  C_15
REMARK   11  A    between atoms: S_16  and  N_19
REMARK   12  A    between atoms: N_19  and  C_20
REMARK   13  A    between atoms: C_20  and  C_22
REMARK   14  A    between atoms: C_20  and  C_32
REMARK   15  A    between atoms: C_22  and  C_23
REMARK   16  A    between atoms: C_27  and  C_29
REMARK   17  A    between atoms: C_40  and  C_42
REMARK   18  A    between atoms: C_42  and  C_43
REMARK   19  A    between atoms: C_43  and  N_44
REMARK                            x       y       z     vdW  Elec       q    Type
REMARK                         _______ _______ _______ _____ _____    ______ ____
ROOT
ATOM      1  C   UNL     1       7.819  -1.929  25.275  0.00  0.00    +0.166 C 
ENDROOT
BRANCH   1   2
ATOM      2  C   UNL     1       6.743  -1.173  26.099  0.00  0.00    +0.235 C 
ATOM      3  N   UNL     1       6.074  -0.078  25.536  0.00  0.00    -0.297 N 
ATOM      4  C   UNL     1       6.069   0.303  24.108  0.00  0.00    +0.127 C 
ATOM      5  C   UNL     1       5.943   1.831  23.898  0.00  0.00    +0.126 C 
ATOM      6  N   UNL     1       4.823   2.383  24.668  0.00  0.00    -0.298 N 
ATOM      7  C   UNL     1       3.715   3.047  24.156  0.00  0.00    +0.217 C 
ATOM      8  O   UNL     1       2.784   3.408  24.879  0.00  0.00    -0.276 OA
ATOM      9  C   UNL     1       4.888   2.069  26.096  0.00  0.00    +0.126 C 
ATOM     10  C   UNL     1       4.989   0.548  26.317  0.00  0.00    +0.127 C 
ATOM     11  O   UNL     1       6.460  -1.527  27.255  0.00  0.00    -0.274 OA
BRANCH   7  12
ATOM     12  C   UNL     1       3.709   3.333  22.664  0.00  0.00    +0.111 C 
BRANCH  12  13
ATOM     13  C   UNL     1       3.390   4.797  22.364  0.00  0.00    +0.087 C 
BRANCH  13  14
ATOM     14  N   UNL     1       4.623   5.579  22.235  0.00  0.00    -0.330 NA
ATOM     15  H   UNL     1       4.383   6.529  21.952  0.00  0.00    +0.118 HD
ATOM     16  H   UNL     1       5.067   5.667  23.149  0.00  0.00    +0.118 HD
ENDBRANCH  13  14
ENDBRANCH  12  13
ENDBRANCH   7  12
ENDBRANCH   1   2
BRANCH   1  17
ATOM     17  N   UNL     1       8.194  -3.151  26.078  0.00  0.00    -0.178 NA
ATOM     18  H   UNL     1       8.077  -3.080  27.091  0.00  0.00    +0.149 HD
BRANCH  17  19
ATOM     19  S   UNL     1       8.190  -4.757  25.566  0.00  0.00    +0.060 S 
ATOM     20  O   UNL     1       9.032  -4.749  24.391  0.00  0.00    -0.153 OA
ATOM     21  O   UNL     1       8.603  -5.573  26.687  0.00  0.00    -0.153 OA
BRANCH  19  25
ATOM     22  C   UNL     1       3.890  -5.986  24.098  0.00  0.00    -0.044 A 
ATOM     23  C   UNL     1       4.736  -5.179  23.344  0.00  0.00    +0.009 A 
ATOM     24  C   UNL     1       6.052  -4.874  23.754  0.00  0.00    -0.018 A 
ATOM     25  C   UNL     1       6.471  -5.184  25.083  0.00  0.00    +0.112 A 
ATOM     26  C   UNL     1       5.521  -5.786  25.967  0.00  0.00    -0.018 A 
ATOM     27  C   UNL     1       4.277  -6.235  25.416  0.00  0.00    +0.009 A 
BRANCH  22  29
ATOM     28  C   UNL     1       2.119  -7.895  24.074  0.00  0.00    +0.012 C 
ATOM     29  C   UNL     1       2.721  -6.667  23.384  0.00  0.00    +0.013 C 
ATOM     30  C   UNL     1       1.595  -5.706  22.985  0.00  0.00    +0.012 C 
ENDBRANCH  22  29
BRANCH  24  31
ATOM     31  C   UNL     1       7.022  -4.524  22.636  0.00  0.00    +0.015 C 
ATOM     32  C   UNL     1       6.976  -3.156  21.979  0.00  0.00    +0.012 C 
ATOM     33  C   UNL     1       7.106  -5.642  21.602  0.00  0.00    +0.012 C 
ENDBRANCH  24  31
BRANCH  26  34
ATOM     34  C   UNL     1       5.676  -5.924  27.484  0.00  0.00    +0.015 C 
ATOM     35  C   UNL     1       4.943  -7.119  28.121  0.00  0.00    +0.012 C 
ATOM     36  C   UNL     1       5.200  -4.626  28.156  0.00  0.00    +0.012 C 
ENDBRANCH  26  34
ENDBRANCH  19  25
ENDBRANCH  17  19
ENDBRANCH   1  17
BRANCH   1  37
ATOM     37  C   UNL     1       9.137  -1.072  25.068  0.00  0.00    +0.065 C 
BRANCH  37  38
ATOM     38  C   UNL     1       9.333  -0.111  23.881  0.00  0.00    -0.045 A 
ATOM     39  C   UNL     1       9.508   1.281  24.145  0.00  0.00    +0.019 A 
ATOM     40  C   UNL     1       9.993   2.174  23.160  0.00  0.00    +0.065 A 
ATOM     41  C   UNL     1      10.158   1.698  21.860  0.00  0.00    +0.016 A 
ATOM     42  C   UNL     1       9.817   0.378  21.549  0.00  0.00    +0.001 A 
ATOM     43  C   UNL     1       9.413  -0.525  22.550  0.00  0.00    +0.004 A 
BRANCH  40  44
ATOM     44  C   UNL     1      10.492   3.558  23.486  0.00  0.00    +0.308 C 
ATOM     45  N   UNL     1      11.656   4.009  23.134  0.00  0.00    -0.099 NA
ATOM     46  H   UNL     1      12.184   3.327  22.594  0.00  0.00    +0.363 HD
ATOM     47  N   UNL     1       9.711   4.468  24.143  0.00  0.00    -0.247 N 
ATOM     48  H   UNL     1      10.254   5.294  24.383  0.00  0.00    +0.288 HD
ATOM     49  H   UNL     1       9.171   4.125  24.928  0.00  0.00    +0.288 HD
ENDBRANCH  40  44
ENDBRANCH  37  38
ENDBRANCH   1  37
TORSDOF 13
ENDMDL
MODEL 9
REMARK VINA RESULT:      -7.2      3.019      8.875
REMARK  Name = 
REMARK  19 active torsions:
REMARK  status: ('A' for Active; 'I' for Inactive)
REMARK    1  A    between atoms: C_1  and  C_2
REMARK    2  A    between atoms: C_2  and  C_3
REMARK    3  A    between atoms: C_2  and  C_4
REMARK    4  A    between atoms: C_6  and  C_7
REMARK    5  A    between atoms: C_7  and  C_8
REMARK    6  A    between atoms: C_7  and  C_9
REMARK    7  A    between atoms: C_10  and  S_16
REMARK    8  A    between atoms: C_11  and  C_13
REMARK    9  A    between atoms: C_13  and  C_14
REMARK   10  A    between atoms: C_13  and  C_15
REMARK   11  A    between atoms: S_16  and  N_19
REMARK   12  A    between atoms: N_19  and  C_20
REMARK   13  A    between atoms: C_20  and  C_22
REMARK   14  A    between atoms: C_20  and  C_32
REMARK   15  A    between atoms: C_22  and  C_23
REMARK   16  A    between atoms: C_27  and  C_29
REMARK   17  A    between atoms: C_40  and  C_42
REMARK   18  A    between atoms: C_42  and  C_43
REMARK   19  A    between atoms: C_43  and  N_44
REMARK                            x       y       z     vdW  Elec       q    Type
REMARK                         _______ _______ _______ _____ _____    ______ ____
ROOT
ATOM      1  C   UNL     1       6.196  -3.017  24.003  0.00  0.00    +0.166 C 
ENDROOT
BRANCH   1   2
ATOM      2  C   UNL     1       7.418  -2.580  23.152  0.00  0.00    +0.235 C 
ATOM      3  N   UNL     1       7.839  -1.244  23.170  0.00  0.00    -0.297 N 
ATOM      4  C   UNL     1       7.419  -0.208  24.136  0.00  0.00    +0.127 C 
ATOM      5  C   UNL     1       7.396   1.211  23.518  0.00  0.00    +0.126 C 
ATOM      6  N   UNL     1       8.656   1.511  22.829  0.00  0.00    -0.298 N 
ATOM      7  C   UNL     1       9.536   2.544  23.127  0.00  0.00    +0.217 C 
ATOM      8  O   UNL     1      10.612   2.670  22.539  0.00  0.00    -0.276 OA
ATOM      9  C   UNL     1       9.014   0.520  21.814  0.00  0.00    +0.126 C 
ATOM     10  C   UNL     1       9.064  -0.894  22.424  0.00  0.00    +0.127 C 
ATOM     11  O   UNL     1       8.035  -3.401  22.455  0.00  0.00    -0.274 OA
BRANCH   7  12
ATOM     12  C   UNL     1       9.104   3.533  24.197  0.00  0.00    +0.111 C 
BRANCH  12  13
ATOM     13  C   UNL     1       8.962   4.950  23.642  0.00  0.00    +0.087 C 
BRANCH  13  14
ATOM     14  N   UNL     1      10.273   5.497  23.281  0.00  0.00    -0.330 NA
ATOM     15  H   UNL     1      10.992   5.016  23.822  0.00  0.00    +0.118 HD
ATOM     16  H   UNL     1      10.474   5.285  22.305  0.00  0.00    +0.118 HD
ENDBRANCH  13  14
ENDBRANCH  12  13
ENDBRANCH   7  12
ENDBRANCH   1   2
BRANCH   1  17
ATOM     17  N   UNL     1       6.725  -3.944  25.070  0.00  0.00    -0.178 NA
ATOM     18  H   UNL     1       7.289  -4.733  24.745  0.00  0.00    +0.149 HD
BRANCH  17  19
ATOM     19  S   UNL     1       7.050  -3.577  26.683  0.00  0.00    +0.060 S 
ATOM     20  O   UNL     1       7.803  -4.717  27.154  0.00  0.00    -0.153 OA
ATOM     21  O   UNL     1       7.693  -2.282  26.715  0.00  0.00    -0.153 OA
BRANCH  19  25
ATOM     22  C   UNL     1       2.843  -3.189  28.760  0.00  0.00    -0.044 A 
ATOM     23  C   UNL     1       3.701  -2.107  28.600  0.00  0.00    +0.009 A 
ATOM     24  C   UNL     1       4.929  -2.211  27.910  0.00  0.00    -0.018 A 
ATOM     25  C   UNL     1       5.444  -3.498  27.570  0.00  0.00    +0.112 A 
ATOM     26  C   UNL     1       4.693  -4.650  27.963  0.00  0.00    -0.018 A 
ATOM     27  C   UNL     1       3.373  -4.451  28.483  0.00  0.00    +0.009 A 
BRANCH  22  29
ATOM     28  C   UNL     1       0.772  -1.655  28.387  0.00  0.00    +0.012 C 
ATOM     29  C   UNL     1       1.368  -2.902  29.048  0.00  0.00    +0.013 C 
ATOM     30  C   UNL     1       0.445  -4.100  28.799  0.00  0.00    +0.012 C 
ENDBRANCH  22  29
BRANCH  24  31
ATOM     31  C   UNL     1       5.451  -0.918  27.302  0.00  0.00    +0.015 C 
ATOM     32  C   UNL     1       5.889   0.229  28.195  0.00  0.00    +0.012 C 
ATOM     33  C   UNL     1       4.555  -0.437  26.166  0.00  0.00    +0.012 C 
ENDBRANCH  24  31
BRANCH  26  34
ATOM     34  C   UNL     1       5.204  -6.094  27.954  0.00  0.00    +0.015 C 
ATOM     35  C   UNL     1       5.033  -6.852  26.626  0.00  0.00    +0.012 C 
ATOM     36  C   UNL     1       4.503  -6.879  29.075  0.00  0.00    +0.012 C 
ENDBRANCH  26  34
ENDBRANCH  19  25
ENDBRANCH  17  19
ENDBRANCH   1  17
BRANCH   1  37
ATOM     37  C   UNL     1       5.125  -3.825  23.158  0.00  0.00    +0.065 C 
BRANCH  37  38
ATOM     38  C   UNL     1       3.835  -4.399  23.772  0.00  0.00    -0.045 A 
ATOM     39  C   UNL     1       3.438  -5.725  23.424  0.00  0.00    +0.019 A 
ATOM     40  C   UNL     1       2.458  -6.432  24.162  0.00  0.00    +0.065 A 
ATOM     41  C   UNL     1       1.764  -5.750  25.160  0.00  0.00    +0.016 A 
ATOM     42  C   UNL     1       2.020  -4.395  25.390  0.00  0.00    +0.001 A 
ATOM     43  C   UNL     1       3.051  -3.722  24.708  0.00  0.00    +0.004 A 
BRANCH  40  44
ATOM     44  C   UNL     1       2.251  -7.919  24.030  0.00  0.00    +0.308 C 
ATOM     45  N   UNL     1       2.574  -8.778  24.947  0.00  0.00    -0.099 NA
ATOM     46  H   UNL     1       2.963  -8.328  25.773  0.00  0.00    +0.363 HD
ATOM     47  N   UNL     1       1.646  -8.466  22.934  0.00  0.00    -0.247 N 
ATOM     48  H   UNL     1       1.706  -9.481  22.965  0.00  0.00    +0.288 HD
ATOM     49  H   UNL     1       1.914  -8.096  22.031  0.00  0.00    +0.288 HD
ENDBRANCH  40  44
ENDBRANCH  37  38
ENDBRANCH   1  37
TORSDOF 13
ENDMDL
