MODEL 1
REMARK VINA RESULT:      -6.6      0.000      0.000
REMARK  Name = 
REMARK  0 active torsions:
REMARK  status: ('A' for Active; 'I' for Inactive)
REMARK                            x       y       z     vdW  Elec       q    Type
REMARK                         _______ _______ _______ _____ _____    ______ ____
ROOT
ATOM      1  N   UNL     1       5.741  -6.771  22.634  0.00  0.00    -0.313 N 
ATOM      2  H   UNL     1       5.726  -7.071  23.599  0.00  0.00    +0.147 HD
ATOM      3  H   UNL     1       5.799  -7.521  21.959  0.00  0.00    +0.147 HD
ATOM      4  C   UNL     1       6.554  -5.710  22.332  0.00  0.00    +0.308 C 
ATOM      5  N   UNL     1       6.773  -4.812  23.367  0.00  0.00    -0.223 N 
ATOM      6  C   UNL     1       6.049  -4.825  24.593  0.00  0.00    +0.050 A 
ATOM      7  C   UNL     1       6.681  -5.079  25.821  0.00  0.00    -0.003 A 
ATOM      8  C   UNL     1       5.907  -5.114  26.990  0.00  0.00    +0.010 A 
ATOM      9  C   UNL     1       4.532  -4.869  26.944  0.00  0.00    +0.001 A 
ATOM     10  C   UNL     1       3.909  -4.611  25.727  0.00  0.00    +0.002 A 
ATOM     11  C   UNL     1       8.102  -5.434  25.920  0.00  0.00    +0.010 C 
ATOM     12  C   UNL     1       9.078  -4.872  25.192  0.00  0.00    +0.010 C 
ATOM     13  C   UNL     1       8.873  -3.816  24.191  0.00  0.00    -0.003 A 
ATOM     14  C   UNL     1       9.853  -2.817  24.088  0.00  0.00    +0.010 A 
ATOM     15  C   UNL     1       9.754  -1.820  23.117  0.00  0.00    +0.001 A 
ATOM     16  C   UNL     1       8.693  -1.837  22.212  0.00  0.00    +0.002 A 
ATOM     17  C   UNL     1       7.731  -2.847  22.281  0.00  0.00    +0.024 A 
ATOM     18  C   UNL     1       4.662  -4.598  24.554  0.00  0.00    +0.024 A 
ATOM     19  C   UNL     1       7.801  -3.833  23.280  0.00  0.00    +0.050 A 
ATOM     20  O   UNL     1       7.081  -5.680  21.223  0.00  0.00    -0.252 OA
ENDROOT
TORSDOF 0
ENDMDL
MODEL 2
REMARK VINA RESULT:      -6.6      3.196      5.536
REMARK  Name = 
REMARK  0 active torsions:
REMARK  status: ('A' for Active; 'I' for Inactive)
REMARK                            x       y       z     vdW  Elec       q    Type
REMARK                         _______ _______ _______ _____ _____    ______ ____
ROOT
ATOM      1  N   UNL     1       6.268   0.589  25.158  0.00  0.00    -0.313 N 
ATOM      2  H   UNL     1       7.249   0.835  25.166  0.00  0.00    +0.147 HD
ATOM      3  H   UNL     1       5.768   0.817  26.006  0.00  0.00    +0.147 HD
ATOM      4  C   UNL     1       5.949  -0.646  24.660  0.00  0.00    +0.308 C 
ATOM      5  N   UNL     1       6.825  -1.151  23.709  0.00  0.00    -0.223 N 
ATOM      6  C   UNL     1       7.860  -0.386  23.100  0.00  0.00    +0.050 A 
ATOM      7  C   UNL     1       9.216  -0.706  23.277  0.00  0.00    -0.003 A 
ATOM      8  C   UNL     1      10.190   0.108  22.680  0.00  0.00    +0.010 A 
ATOM      9  C   UNL     1       9.822   1.203  21.894  0.00  0.00    +0.001 A 
ATOM     10  C   UNL     1       8.477   1.514  21.715  0.00  0.00    +0.002 A 
ATOM     11  C   UNL     1       9.665  -1.785  24.164  0.00  0.00    +0.010 C 
ATOM     12  C   UNL     1       9.059  -2.977  24.277  0.00  0.00    +0.010 C 
ATOM     13  C   UNL     1       7.862  -3.382  23.528  0.00  0.00    -0.003 A 
ATOM     14  C   UNL     1       7.779  -4.717  23.103  0.00  0.00    +0.010 A 
ATOM     15  C   UNL     1       6.642  -5.185  22.443  0.00  0.00    +0.001 A 
ATOM     16  C   UNL     1       5.560  -4.330  22.237  0.00  0.00    +0.002 A 
ATOM     17  C   UNL     1       5.616  -3.010  22.687  0.00  0.00    +0.024 A 
ATOM     18  C   UNL     1       7.499   0.728  22.323  0.00  0.00    +0.024 A 
ATOM     19  C   UNL     1       6.771  -2.519  23.319  0.00  0.00    +0.050 A 
ATOM     20  O   UNL     1       4.984  -1.235  25.140  0.00  0.00    -0.252 OA
ENDROOT
TORSDOF 0
ENDMDL
MODEL 3
REMARK VINA RESULT:      -6.5      2.956      5.304
REMARK  Name = 
REMARK  0 active torsions:
REMARK  status: ('A' for Active; 'I' for Inactive)
REMARK                            x       y       z     vdW  Elec       q    Type
REMARK                         _______ _______ _______ _____ _____    ______ ____
ROOT
ATOM      1  N   UNL     1       6.194  -0.196  23.101  0.00  0.00    -0.313 N 
ATOM      2  H   UNL     1       6.689   0.519  23.616  0.00  0.00    +0.147 HD
ATOM      3  H   UNL     1       5.201  -0.034  23.000  0.00  0.00    +0.147 HD
ATOM      4  C   UNL     1       6.499  -1.496  23.406  0.00  0.00    +0.308 C 
ATOM      5  N   UNL     1       7.785  -1.713  23.880  0.00  0.00    -0.223 N 
ATOM      6  C   UNL     1       8.816  -0.730  23.851  0.00  0.00    +0.050 A 
ATOM      7  C   UNL     1       9.385  -0.222  25.030  0.00  0.00    -0.003 A 
ATOM      8  C   UNL     1      10.371   0.770  24.937  0.00  0.00    +0.010 A 
ATOM      9  C   UNL     1      10.807   1.229  23.691  0.00  0.00    +0.001 A 
ATOM     10  C   UNL     1      10.246   0.720  22.524  0.00  0.00    +0.002 A 
ATOM     11  C   UNL     1       8.904  -0.597  26.365  0.00  0.00    +0.010 C 
ATOM     12  C   UNL     1       8.537  -1.838  26.720  0.00  0.00    +0.010 C 
ATOM     13  C   UNL     1       8.566  -3.006  25.830  0.00  0.00    -0.003 A 
ATOM     14  C   UNL     1       8.935  -4.241  26.386  0.00  0.00    +0.010 A 
ATOM     15  C   UNL     1       8.922  -5.402  25.612  0.00  0.00    +0.001 A 
ATOM     16  C   UNL     1       8.500  -5.345  24.284  0.00  0.00    +0.002 A 
ATOM     17  C   UNL     1       8.095  -4.129  23.730  0.00  0.00    +0.024 A 
ATOM     18  C   UNL     1       9.247  -0.250  22.602  0.00  0.00    +0.024 A 
ATOM     19  C   UNL     1       8.142  -2.948  24.489  0.00  0.00    +0.050 A 
ATOM     20  O   UNL     1       5.608  -2.337  23.320  0.00  0.00    -0.252 OA
ENDROOT
TORSDOF 0
ENDMDL
MODEL 4
REMARK VINA RESULT:      -6.5      2.432      3.488
REMARK  Name = 
REMARK  0 active torsions:
REMARK  status: ('A' for Active; 'I' for Inactive)
REMARK                            x       y       z     vdW  Elec       q    Type
REMARK                         _______ _______ _______ _____ _____    ______ ____
ROOT
ATOM      1  N   UNL     1       8.735  -5.090  24.957  0.00  0.00    -0.313 N 
ATOM      2  H   UNL     1       7.758  -5.175  25.201  0.00  0.00    +0.147 HD
ATOM      3  H   UNL     1       9.379  -5.341  25.694  0.00  0.00    +0.147 HD
ATOM      4  C   UNL     1       9.103  -3.955  24.283  0.00  0.00    +0.308 C 
ATOM      5  N   UNL     1       8.113  -3.378  23.500  0.00  0.00    -0.223 N 
ATOM      6  C   UNL     1       6.868  -4.005  23.207  0.00  0.00    +0.050 A 
ATOM      7  C   UNL     1       5.648  -3.463  23.642  0.00  0.00    -0.003 A 
ATOM      8  C   UNL     1       4.458  -4.147  23.352  0.00  0.00    +0.010 A 
ATOM      9  C   UNL     1       4.478  -5.334  22.617  0.00  0.00    +0.001 A 
ATOM     10  C   UNL     1       5.688  -5.866  22.182  0.00  0.00    +0.002 A 
ATOM     11  C   UNL     1       5.572  -2.272  24.496  0.00  0.00    +0.010 C 
ATOM     12  C   UNL     1       6.349  -1.187  24.358  0.00  0.00    +0.010 C 
ATOM     13  C   UNL     1       7.388  -1.027  23.331  0.00  0.00    -0.003 A 
ATOM     14  C   UNL     1       7.559   0.249  22.771  0.00  0.00    +0.010 A 
ATOM     15  C   UNL     1       8.568   0.486  21.838  0.00  0.00    +0.001 A 
ATOM     16  C   UNL     1       9.443  -0.542  21.486  0.00  0.00    +0.002 A 
ATOM     17  C   UNL     1       9.305  -1.805  22.064  0.00  0.00    +0.024 A 
ATOM     18  C   UNL     1       6.881  -5.210  22.483  0.00  0.00    +0.024 A 
ATOM     19  C   UNL     1       8.269  -2.064  22.976  0.00  0.00    +0.050 A 
ATOM     20  O   UNL     1      10.226  -3.499  24.483  0.00  0.00    -0.252 OA
ENDROOT
TORSDOF 0
ENDMDL
MODEL 5
REMARK VINA RESULT:      -6.4      3.307      5.893
REMARK  Name = 
REMARK  0 active torsions:
REMARK  status: ('A' for Active; 'I' for Inactive)
REMARK                            x       y       z     vdW  Elec       q    Type
REMARK                         _______ _______ _______ _____ _____    ______ ____
ROOT
ATOM      1  N   UNL     1       8.275   1.006  26.093  0.00  0.00    -0.313 N 
ATOM      2  H   UNL     1       9.000   1.237  25.428  0.00  0.00    +0.147 HD
ATOM      3  H   UNL     1       8.471   1.284  27.045  0.00  0.00    +0.147 HD
ATOM      4  C   UNL     1       7.730  -0.247  25.999  0.00  0.00    +0.308 C 
ATOM      5  N   UNL     1       7.749  -0.812  24.731  0.00  0.00    -0.223 N 
ATOM      6  C   UNL     1       8.088  -0.094  23.549  0.00  0.00    +0.050 A 
ATOM      7  C   UNL     1       9.216  -0.426  22.782  0.00  0.00    -0.003 A 
ATOM      8  C   UNL     1       9.517   0.342  21.647  0.00  0.00    +0.010 A 
ATOM      9  C   UNL     1       8.693   1.403  21.263  0.00  0.00    +0.001 A 
ATOM     10  C   UNL     1       7.572   1.725  22.022  0.00  0.00    +0.002 A 
ATOM     11  C   UNL     1      10.168  -1.467  23.185  0.00  0.00    +0.010 C 
ATOM     12  C   UNL     1       9.822  -2.642  23.732  0.00  0.00    +0.010 C 
ATOM     13  C   UNL     1       8.442  -3.065  24.004  0.00  0.00    -0.003 A 
ATOM     14  C   UNL     1       8.123  -4.418  23.810  0.00  0.00    +0.010 A 
ATOM     15  C   UNL     1       6.849  -4.899  24.110  0.00  0.00    +0.001 A 
ATOM     16  C   UNL     1       5.891  -4.039  24.646  0.00  0.00    +0.002 A 
ATOM     17  C   UNL     1       6.207  -2.699  24.878  0.00  0.00    +0.024 A 
ATOM     18  C   UNL     1       7.274   0.986  23.166  0.00  0.00    +0.024 A 
ATOM     19  C   UNL     1       7.475  -2.196  24.544  0.00  0.00    +0.050 A 
ATOM     20  O   UNL     1       7.352  -0.795  27.030  0.00  0.00    -0.252 OA
ENDROOT
TORSDOF 0
ENDMDL
MODEL 6
REMARK VINA RESULT:      -6.3      3.656      6.121
REMARK  Name = 
REMARK  0 active torsions:
REMARK  status: ('A' for Active; 'I' for Inactive)
REMARK                            x       y       z     vdW  Elec       q    Type
REMARK                         _______ _______ _______ _____ _____    ______ ____
ROOT
ATOM      1  N   UNL     1       9.091  -0.419  27.254  0.00  0.00    -0.313 N 
ATOM      2  H   UNL     1       9.867   0.050  26.807  0.00  0.00    +0.147 HD
ATOM      3  H   UNL     1       9.320  -0.883  28.122  0.00  0.00    +0.147 HD
ATOM      4  C   UNL     1       8.273  -1.163  26.445  0.00  0.00    +0.308 C 
ATOM      5  N   UNL     1       8.193  -0.740  25.126  0.00  0.00    -0.223 N 
ATOM      6  C   UNL     1       8.720   0.497  24.657  0.00  0.00    +0.050 A 
ATOM      7  C   UNL     1       9.761   0.547  23.715  0.00  0.00    -0.003 A 
ATOM      8  C   UNL     1      10.261   1.797  23.320  0.00  0.00    +0.010 A 
ATOM      9  C   UNL     1       9.715   2.978  23.829  0.00  0.00    +0.001 A 
ATOM     10  C   UNL     1       8.680   2.926  24.757  0.00  0.00    +0.002 A 
ATOM     11  C   UNL     1      10.434  -0.658  23.217  0.00  0.00    +0.010 C 
ATOM     12  C   UNL     1       9.811  -1.806  22.914  0.00  0.00    +0.010 C 
ATOM     13  C   UNL     1       8.363  -2.029  23.030  0.00  0.00    -0.003 A 
ATOM     14  C   UNL     1       7.745  -2.823  22.051  0.00  0.00    +0.010 A 
ATOM     15  C   UNL     1       6.386  -3.127  22.136  0.00  0.00    +0.001 A 
ATOM     16  C   UNL     1       5.641  -2.673  23.223  0.00  0.00    +0.002 A 
ATOM     17  C   UNL     1       6.253  -1.913  24.222  0.00  0.00    +0.024 A 
ATOM     18  C   UNL     1       8.189   1.690  25.178  0.00  0.00    +0.024 A 
ATOM     19  C   UNL     1       7.611  -1.569  24.126  0.00  0.00    +0.050 A 
ATOM     20  O   UNL     1       7.751  -2.170  26.916  0.00  0.00    -0.252 OA
ENDROOT
TORSDOF 0
ENDMDL
MODEL 7
REMARK VINA RESULT:      -6.3      2.066      5.100
REMARK  Name = 
REMARK  0 active torsions:
REMARK  status: ('A' for Active; 'I' for Inactive)
REMARK                            x       y       z     vdW  Elec       q    Type
REMARK                         _______ _______ _______ _____ _____    ______ ____
ROOT
ATOM      1  N   UNL     1       9.384  -5.157  26.370  0.00  0.00    -0.313 N 
ATOM      2  H   UNL     1       9.764  -4.945  25.457  0.00  0.00    +0.147 HD
ATOM      3  H   UNL     1       9.815  -5.944  26.835  0.00  0.00    +0.147 HD
ATOM      4  C   UNL     1       8.019  -5.142  26.486  0.00  0.00    +0.308 C 
ATOM      5  N   UNL     1       7.354  -4.297  25.609  0.00  0.00    -0.223 N 
ATOM      6  C   UNL     1       8.007  -3.330  24.793  0.00  0.00    +0.050 A 
ATOM      7  C   UNL     1       7.979  -3.408  23.391  0.00  0.00    -0.003 A 
ATOM      8  C   UNL     1       8.672  -2.445  22.642  0.00  0.00    +0.010 A 
ATOM      9  C   UNL     1       9.355  -1.404  23.275  0.00  0.00    +0.001 A 
ATOM     10  C   UNL     1       9.375  -1.325  24.664  0.00  0.00    +0.002 A 
ATOM     11  C   UNL     1       7.358  -4.528  22.674  0.00  0.00    +0.010 C 
ATOM     12  C   UNL     1       6.204  -5.111  23.029  0.00  0.00    +0.010 C 
ATOM     13  C   UNL     1       5.386  -4.714  24.183  0.00  0.00    -0.003 A 
ATOM     14  C   UNL     1       3.990  -4.768  24.043  0.00  0.00    +0.010 A 
ATOM     15  C   UNL     1       3.155  -4.466  25.119  0.00  0.00    +0.001 A 
ATOM     16  C   UNL     1       3.709  -4.146  26.357  0.00  0.00    +0.002 A 
ATOM     17  C   UNL     1       5.095  -4.124  26.519  0.00  0.00    +0.024 A 
ATOM     18  C   UNL     1       8.712  -2.289  25.422  0.00  0.00    +0.024 A 
ATOM     19  C   UNL     1       5.945  -4.389  25.432  0.00  0.00    +0.050 A 
ATOM     20  O   UNL     1       7.496  -5.921  27.279  0.00  0.00    -0.252 OA
ENDROOT
TORSDOF 0
ENDMDL
MODEL 8
REMARK VINA RESULT:      -6.3      2.378      3.024
REMARK  Name = 
REMARK  0 active torsions:
REMARK  status: ('A' for Active; 'I' for Inactive)
REMARK                            x       y       z     vdW  Elec       q    Type
REMARK                         _______ _______ _______ _____ _____    ______ ____
ROOT
ATOM      1  N   UNL     1       8.310  -5.667  25.987  0.00  0.00    -0.313 N 
ATOM      2  H   UNL     1       7.532  -5.328  26.537  0.00  0.00    +0.147 HD
ATOM      3  H   UNL     1       8.877  -6.368  26.444  0.00  0.00    +0.147 HD
ATOM      4  C   UNL     1       9.049  -4.725  25.322  0.00  0.00    +0.308 C 
ATOM      5  N   UNL     1       8.364  -3.572  24.964  0.00  0.00    -0.223 N 
ATOM      6  C   UNL     1       6.950  -3.430  25.056  0.00  0.00    +0.050 A 
ATOM      7  C   UNL     1       6.357  -2.491  25.916  0.00  0.00    -0.003 A 
ATOM      8  C   UNL     1       4.958  -2.424  25.988  0.00  0.00    +0.010 A 
ATOM      9  C   UNL     1       4.161  -3.254  25.196  0.00  0.00    +0.001 A 
ATOM     10  C   UNL     1       4.751  -4.179  24.341  0.00  0.00    +0.002 A 
ATOM     11  C   UNL     1       7.139  -1.659  26.838  0.00  0.00    +0.010 C 
ATOM     12  C   UNL     1       8.313  -1.087  26.534  0.00  0.00    +0.010 C 
ATOM     13  C   UNL     1       8.990  -1.202  25.235  0.00  0.00    -0.003 A 
ATOM     14  C   UNL     1       9.673  -0.075  24.753  0.00  0.00    +0.010 A 
ATOM     15  C   UNL     1      10.390  -0.134  23.558  0.00  0.00    +0.001 A 
ATOM     16  C   UNL     1      10.463  -1.335  22.853  0.00  0.00    +0.002 A 
ATOM     17  C   UNL     1       9.819  -2.473  23.342  0.00  0.00    +0.024 A 
ATOM     18  C   UNL     1       6.141  -4.274  24.276  0.00  0.00    +0.024 A 
ATOM     19  C   UNL     1       9.063  -2.414  24.524  0.00  0.00    +0.050 A 
ATOM     20  O   UNL     1      10.250  -4.931  25.170  0.00  0.00    -0.252 OA
ENDROOT
TORSDOF 0
ENDMDL
MODEL 9
REMARK VINA RESULT:      -6.2      6.562      8.607
REMARK  Name = 
REMARK  0 active torsions:
REMARK  status: ('A' for Active; 'I' for Inactive)
REMARK                            x       y       z     vdW  Elec       q    Type
REMARK                         _______ _______ _______ _____ _____    ______ ____
ROOT
ATOM      1  N   UNL     1       7.845   1.533  26.337  0.00  0.00    -0.313 N 
ATOM      2  H   UNL     1       7.660   0.825  25.640  0.00  0.00    +0.147 HD
ATOM      3  H   UNL     1       7.306   1.440  27.187  0.00  0.00    +0.147 HD
ATOM      4  C   UNL     1       7.932   2.826  25.892  0.00  0.00    +0.308 C 
ATOM      5  N   UNL     1       8.361   2.979  24.581  0.00  0.00    -0.223 N 
ATOM      6  C   UNL     1       8.899   1.920  23.795  0.00  0.00    +0.050 A 
ATOM      7  C   UNL     1       8.258   1.465  22.631  0.00  0.00    -0.003 A 
ATOM      8  C   UNL     1       8.820   0.394  21.920  0.00  0.00    +0.010 A 
ATOM      9  C   UNL     1      10.015  -0.194  22.341  0.00  0.00    +0.001 A 
ATOM     10  C   UNL     1      10.652   0.263  23.491  0.00  0.00    +0.002 A 
ATOM     11  C   UNL     1       6.956   1.980  22.193  0.00  0.00    +0.010 C 
ATOM     12  C   UNL     1       6.590   3.269  22.251  0.00  0.00    +0.010 C 
ATOM     13  C   UNL     1       7.438   4.358  22.756  0.00  0.00    -0.003 A 
ATOM     14  C   UNL     1       7.359   5.600  22.108  0.00  0.00    +0.010 A 
ATOM     15  C   UNL     1       8.088   6.694  22.575  0.00  0.00    +0.001 A 
ATOM     16  C   UNL     1       8.874   6.565  23.720  0.00  0.00    +0.002 A 
ATOM     17  C   UNL     1       8.932   5.344  24.394  0.00  0.00    +0.024 A 
ATOM     18  C   UNL     1      10.092   1.310  24.221  0.00  0.00    +0.024 A 
ATOM     19  C   UNL     1       8.232   4.227  23.910  0.00  0.00    +0.050 A 
ATOM     20  O   UNL     1       7.553   3.724  26.639  0.00  0.00    -0.252 OA
ENDROOT
TORSDOF 0
ENDMDL
