MODEL 1
REMARK VINA RESULT:      -7.8      0.000      0.000
REMARK  Name = 
REMARK  5 active torsions:
REMARK  status: ('A' for Active; 'I' for Inactive)
REMARK    1  A    between atoms: C_5  and  C_7
REMARK    2  A    between atoms: N_9  and  C_10
REMARK    3  A    between atoms: C_10  and  C_11
REMARK    4  A    between atoms: N_14  and  C_18
REMARK    5  A    between atoms: C_21  and  N_24
REMARK                            x       y       z     vdW  Elec       q    Type
REMARK                         _______ _______ _______ _____ _____    ______ ____
ROOT
ATOM      1  C   UNL     1       9.469  -2.191  23.606  0.00  0.00    +0.213 C 
ATOM      2  O   UNL     1      10.095  -3.381  24.107  0.00  0.00    -0.444 OA
ATOM      3  C   UNL     1       9.105  -4.334  24.215  0.00  0.00    +0.408 C 
ATOM      4  O   UNL     1       9.285  -5.369  24.834  0.00  0.00    -0.226 OA
ATOM      5  N   UNL     1       7.980  -3.900  23.515  0.00  0.00    -0.234 N 
ATOM      6  C   UNL     1       8.346  -2.738  22.761  0.00  0.00    +0.163 C 
ENDROOT
BRANCH   5   7
ATOM      7  C   UNL     1       6.700  -4.503  23.493  0.00  0.00    +0.040 A 
ATOM      8  C   UNL     1       6.370  -5.486  22.553  0.00  0.00    +0.025 A 
ATOM      9  C   UNL     1       5.089  -6.066  22.514  0.00  0.00    +0.025 A 
ATOM     10  C   UNL     1       4.098  -5.708  23.435  0.00  0.00    +0.037 A 
ATOM     11  C   UNL     1       4.427  -4.710  24.356  0.00  0.00    +0.025 A 
ATOM     12  C   UNL     1       5.697  -4.116  24.382  0.00  0.00    +0.025 A 
BRANCH  10  13
ATOM     13  N   UNL     1       2.840  -6.389  23.515  0.00  0.00    -0.267 N 
ATOM     14  C   UNL     1       2.689  -7.611  24.201  0.00  0.00    +0.246 C 
ATOM     15  O   UNL     1       3.405  -8.017  25.115  0.00  0.00    -0.273 OA
ATOM     16  C   UNL     1       1.603  -8.523  23.602  0.00  0.00    +0.256 C 
ATOM     17  O   UNL     1       0.443  -7.906  23.066  0.00  0.00    -0.369 OA
ATOM     18  C   UNL     1       0.812  -6.854  22.179  0.00  0.00    +0.180 C 
ATOM     19  C   UNL     1       1.626  -5.809  22.937  0.00  0.00    +0.142 C 
ENDBRANCH  10  13
ENDBRANCH   5   7
BRANCH   1  20
ATOM     20  C   UNL     1      10.475  -1.344  22.838  0.00  0.00    +0.150 C 
BRANCH  20  22
ATOM     21  C   UNL     1       9.551   0.874  22.214  0.00  0.00    +0.251 C 
ATOM     22  N   UNL     1      10.265   0.074  23.084  0.00  0.00    -0.307 N 
ATOM     23  H   UNL     1      10.389   0.417  24.030  0.00  0.00    +0.149 HD
ATOM     24  O   UNL     1       9.190   0.452  21.117  0.00  0.00    -0.270 OA
BRANCH  21  28
ATOM     25 CL   UNL     1       9.788   5.846  24.594  0.00  0.00    -0.076 Cl
ATOM     26  C   UNL     1       9.316   4.438  23.732  0.00  0.00    +0.079 A 
ATOM     27  S   UNL     1      10.374   3.126  23.627  0.00  0.00    -0.072 S 
ATOM     28  C   UNL     1       9.256   2.221  22.685  0.00  0.00    +0.075 A 
ATOM     29  C   UNL     1       8.091   2.944  22.474  0.00  0.00    +0.022 A 
ATOM     30  C   UNL     1       8.129   4.238  23.077  0.00  0.00    +0.028 A 
ENDBRANCH  21  28
ENDBRANCH  20  22
ENDBRANCH   1  20
TORSDOF 5
ENDMDL
MODEL 2
REMARK VINA RESULT:      -7.6      3.312      4.948
REMARK  Name = 
REMARK  5 active torsions:
REMARK  status: ('A' for Active; 'I' for Inactive)
REMARK    1  A    between atoms: C_5  and  C_7
REMARK    2  A    between atoms: N_9  and  C_10
REMARK    3  A    between atoms: C_10  and  C_11
REMARK    4  A    between atoms: N_14  and  C_18
REMARK    5  A    between atoms: C_21  and  N_24
REMARK                            x       y       z     vdW  Elec       q    Type
REMARK                         _______ _______ _______ _____ _____    ______ ____
ROOT
ATOM      1  C   UNL     1      10.576   1.818  23.345  0.00  0.00    +0.213 C 
ATOM      2  O   UNL     1      10.193   1.485  22.003  0.00  0.00    -0.444 OA
ATOM      3  C   UNL     1       9.548   0.267  22.066  0.00  0.00    +0.408 C 
ATOM      4  O   UNL     1       9.320  -0.382  21.061  0.00  0.00    -0.226 OA
ATOM      5  N   UNL     1       9.237  -0.012  23.396  0.00  0.00    -0.234 N 
ATOM      6  C   UNL     1       9.497   1.165  24.171  0.00  0.00    +0.163 C 
ENDROOT
BRANCH   5   7
ATOM      7  C   UNL     1       8.711  -1.218  23.917  0.00  0.00    +0.040 A 
ATOM      8  C   UNL     1       9.477  -2.388  23.967  0.00  0.00    +0.025 A 
ATOM      9  C   UNL     1       8.946  -3.594  24.462  0.00  0.00    +0.025 A 
ATOM     10  C   UNL     1       7.638  -3.668  24.953  0.00  0.00    +0.037 A 
ATOM     11  C   UNL     1       6.872  -2.501  24.878  0.00  0.00    +0.025 A 
ATOM     12  C   UNL     1       7.394  -1.304  24.367  0.00  0.00    +0.025 A 
BRANCH  10  13
ATOM     13  N   UNL     1       7.124  -4.838  25.599  0.00  0.00    -0.267 N 
ATOM     14  C   UNL     1       6.131  -5.647  25.011  0.00  0.00    +0.246 C 
ATOM     15  O   UNL     1       5.897  -5.739  23.807  0.00  0.00    -0.273 OA
ATOM     16  C   UNL     1       5.209  -6.332  26.036  0.00  0.00    +0.256 C 
ATOM     17  O   UNL     1       5.783  -6.758  27.262  0.00  0.00    -0.369 OA
ATOM     18  C   UNL     1       6.542  -5.701  27.842  0.00  0.00    +0.180 C 
ATOM     19  C   UNL     1       7.658  -5.290  26.887  0.00  0.00    +0.142 C 
ENDBRANCH  10  13
ENDBRANCH   5   7
BRANCH   1  20
ATOM     20  C   UNL     1      10.665   3.329  23.513  0.00  0.00    +0.150 C 
BRANCH  20  22
ATOM     21  C   UNL     1       8.706   4.802  23.908  0.00  0.00    +0.251 C 
ATOM     22  N   UNL     1       9.441   3.980  23.075  0.00  0.00    -0.307 N 
ATOM     23  H   UNL     1       9.279   4.069  22.079  0.00  0.00    +0.149 HD
ATOM     24  O   UNL     1       8.977   4.898  25.103  0.00  0.00    -0.270 OA
BRANCH  21  28
ATOM     25 CL   UNL     1       3.759   6.733  22.411  0.00  0.00    -0.076 Cl
ATOM     26  C   UNL     1       5.439   6.421  22.577  0.00  0.00    +0.079 A 
ATOM     27  S   UNL     1       5.970   5.261  23.685  0.00  0.00    -0.072 S 
ATOM     28  C   UNL     1       7.618   5.538  23.277  0.00  0.00    +0.075 A 
ATOM     29  C   UNL     1       7.725   6.512  22.296  0.00  0.00    +0.022 A 
ATOM     30  C   UNL     1       6.457   7.032  21.893  0.00  0.00    +0.028 A 
ENDBRANCH  21  28
ENDBRANCH  20  22
ENDBRANCH   1  20
TORSDOF 5
ENDMDL
MODEL 3
REMARK VINA RESULT:      -7.3      3.592      9.260
REMARK  Name = 
REMARK  5 active torsions:
REMARK  status: ('A' for Active; 'I' for Inactive)
REMARK    1  A    between atoms: C_5  and  C_7
REMARK    2  A    between atoms: N_9  and  C_10
REMARK    3  A    between atoms: C_10  and  C_11
REMARK    4  A    between atoms: N_14  and  C_18
REMARK    5  A    between atoms: C_21  and  N_24
REMARK                            x       y       z     vdW  Elec       q    Type
REMARK                         _______ _______ _______ _____ _____    ______ ____
ROOT
ATOM      1  C   UNL     1       7.377  -5.297  22.149  0.00  0.00    +0.213 C 
ATOM      2  O   UNL     1       8.144  -5.481  23.348  0.00  0.00    -0.444 OA
ATOM      3  C   UNL     1       8.587  -4.232  23.730  0.00  0.00    +0.408 C 
ATOM      4  O   UNL     1       9.455  -4.099  24.575  0.00  0.00    -0.226 OA
ATOM      5  N   UNL     1       7.878  -3.263  23.021  0.00  0.00    -0.234 N 
ATOM      6  C   UNL     1       6.804  -3.913  22.331  0.00  0.00    +0.163 C 
ENDROOT
BRANCH   5   7
ATOM      7  C   UNL     1       8.121  -1.869  23.001  0.00  0.00    +0.040 A 
ATOM      8  C   UNL     1       8.850  -1.270  21.969  0.00  0.00    +0.025 A 
ATOM      9  C   UNL     1       9.114   0.113  21.961  0.00  0.00    +0.025 A 
ATOM     10  C   UNL     1       8.631   0.953  22.971  0.00  0.00    +0.037 A 
ATOM     11  C   UNL     1       7.924   0.342  24.010  0.00  0.00    +0.025 A 
ATOM     12  C   UNL     1       7.677  -1.038  24.029  0.00  0.00    +0.025 A 
BRANCH  10  13
ATOM     13  N   UNL     1       8.754   2.379  22.910  0.00  0.00    -0.267 N 
ATOM     14  C   UNL     1       9.866   3.061  23.442  0.00  0.00    +0.246 C 
ATOM     15  O   UNL     1      10.988   2.586  23.614  0.00  0.00    -0.273 OA
ATOM     16  C   UNL     1       9.533   4.471  23.961  0.00  0.00    +0.256 C 
ATOM     17  O   UNL     1       8.558   5.223  23.254  0.00  0.00    -0.369 OA
ATOM     18  C   UNL     1       7.389   4.437  23.043  0.00  0.00    +0.180 C 
ATOM     19  C   UNL     1       7.749   3.197  22.228  0.00  0.00    +0.142 C 
ENDBRANCH  10  13
ENDBRANCH   5   7
BRANCH   1  20
ATOM     20  C   UNL     1       6.330  -6.395  22.013  0.00  0.00    +0.150 C 
BRANCH  20  22
ATOM     21  C   UNL     1       4.326  -6.308  23.475  0.00  0.00    +0.251 C 
ATOM     22  N   UNL     1       5.003  -5.900  22.342  0.00  0.00    -0.307 N 
ATOM     23  H   UNL     1       4.692  -5.042  21.903  0.00  0.00    +0.149 HD
ATOM     24  O   UNL     1       4.756  -7.223  24.175  0.00  0.00    -0.270 OA
BRANCH  21  28
ATOM     25 CL   UNL     1       0.544  -2.921  25.634  0.00  0.00    -0.076 Cl
ATOM     26  C   UNL     1       1.383  -4.100  24.710  0.00  0.00    +0.079 A 
ATOM     27  S   UNL     1       3.022  -4.385  25.006  0.00  0.00    -0.072 S 
ATOM     28  C   UNL     1       3.097  -5.585  23.777  0.00  0.00    +0.075 A 
ATOM     29  C   UNL     1       1.862  -5.745  23.168  0.00  0.00    +0.022 A 
ATOM     30  C   UNL     1       0.865  -4.875  23.706  0.00  0.00    +0.028 A 
ENDBRANCH  21  28
ENDBRANCH  20  22
ENDBRANCH   1  20
TORSDOF 5
ENDMDL
MODEL 4
REMARK VINA RESULT:      -7.2      4.621     10.214
REMARK  Name = 
REMARK  5 active torsions:
REMARK  status: ('A' for Active; 'I' for Inactive)
REMARK    1  A    between atoms: C_5  and  C_7
REMARK    2  A    between atoms: N_9  and  C_10
REMARK    3  A    between atoms: C_10  and  C_11
REMARK    4  A    between atoms: N_14  and  C_18
REMARK    5  A    between atoms: C_21  and  N_24
REMARK                            x       y       z     vdW  Elec       q    Type
REMARK                         _______ _______ _______ _____ _____    ______ ____
ROOT
ATOM      1  C   UNL     1       8.730  -3.248  24.536  0.00  0.00    +0.213 C 
ATOM      2  O   UNL     1       9.909  -3.285  23.718  0.00  0.00    -0.444 OA
ATOM      3  C   UNL     1      10.118  -1.999  23.267  0.00  0.00    +0.408 C 
ATOM      4  O   UNL     1      10.902  -1.763  22.364  0.00  0.00    -0.226 OA
ATOM      5  N   UNL     1       9.327  -1.123  24.009  0.00  0.00    -0.234 N 
ATOM      6  C   UNL     1       8.766  -1.853  25.108  0.00  0.00    +0.163 C 
ENDROOT
BRANCH   5   7
ATOM      7  C   UNL     1       9.127   0.258  23.776  0.00  0.00    +0.040 A 
ATOM      8  C   UNL     1       8.926   0.759  22.485  0.00  0.00    +0.025 A 
ATOM      9  C   UNL     1       8.753   2.136  22.249  0.00  0.00    +0.025 A 
ATOM     10  C   UNL     1       8.744   3.060  23.300  0.00  0.00    +0.037 A 
ATOM     11  C   UNL     1       8.968   2.554  24.583  0.00  0.00    +0.025 A 
ATOM     12  C   UNL     1       9.161   1.185  24.817  0.00  0.00    +0.025 A 
BRANCH  10  13
ATOM     13  N   UNL     1       8.419   4.442  23.106  0.00  0.00    -0.267 N 
ATOM     14  C   UNL     1       9.267   5.481  23.539  0.00  0.00    +0.246 C 
ATOM     15  O   UNL     1      10.481   5.393  23.718  0.00  0.00    -0.273 OA
ATOM     16  C   UNL     1       8.515   6.763  23.939  0.00  0.00    +0.256 C 
ATOM     17  O   UNL     1       7.355   7.108  23.198  0.00  0.00    -0.369 OA
ATOM     18  C   UNL     1       6.486   5.984  23.095  0.00  0.00    +0.180 C 
ATOM     19  C   UNL     1       7.209   4.843  22.385  0.00  0.00    +0.142 C 
ENDBRANCH  10  13
ENDBRANCH   5   7
BRANCH   1  20
ATOM     20  C   UNL     1       8.773  -4.355  25.581  0.00  0.00    +0.150 C 
BRANCH  20  22
ATOM     21  C   UNL     1       6.725  -5.331  26.588  0.00  0.00    +0.251 C 
ATOM     22  N   UNL     1       7.583  -5.187  25.515  0.00  0.00    -0.307 N 
ATOM     23  H   UNL     1       7.222  -5.430  24.600  0.00  0.00    +0.149 HD
ATOM     24  O   UNL     1       7.013  -4.879  27.694  0.00  0.00    -0.270 OA
BRANCH  21  28
ATOM     25 CL   UNL     1       2.437  -7.800  24.147  0.00  0.00    -0.076 Cl
ATOM     26  C   UNL     1       3.550  -7.134  25.272  0.00  0.00    +0.079 A 
ATOM     27  S   UNL     1       4.960  -6.389  24.714  0.00  0.00    -0.072 S 
ATOM     28  C   UNL     1       5.478  -6.034  26.315  0.00  0.00    +0.075 A 
ATOM     29  C   UNL     1       4.554  -6.490  27.244  0.00  0.00    +0.022 A 
ATOM     30  C   UNL     1       3.436  -7.138  26.637  0.00  0.00    +0.028 A 
ENDBRANCH  21  28
ENDBRANCH  20  22
ENDBRANCH   1  20
TORSDOF 5
ENDMDL
MODEL 5
REMARK VINA RESULT:      -7.0      4.752     10.103
REMARK  Name = 
REMARK  5 active torsions:
REMARK  status: ('A' for Active; 'I' for Inactive)
REMARK    1  A    between atoms: C_5  and  C_7
REMARK    2  A    between atoms: N_9  and  C_10
REMARK    3  A    between atoms: C_10  and  C_11
REMARK    4  A    between atoms: N_14  and  C_18
REMARK    5  A    between atoms: C_21  and  N_24
REMARK                            x       y       z     vdW  Elec       q    Type
REMARK                         _______ _______ _______ _____ _____    ______ ____
ROOT
ATOM      1  C   UNL     1       8.722  -3.618  24.638  0.00  0.00    +0.213 C 
ATOM      2  O   UNL     1       9.930  -3.525  23.870  0.00  0.00    -0.444 OA
ATOM      3  C   UNL     1      10.066  -2.203  23.504  0.00  0.00    +0.408 C 
ATOM      4  O   UNL     1      10.865  -1.860  22.650  0.00  0.00    -0.226 OA
ATOM      5  N   UNL     1       9.188  -1.430  24.262  0.00  0.00    -0.234 N 
ATOM      6  C   UNL     1       8.639  -2.261  25.292  0.00  0.00    +0.163 C 
ENDROOT
BRANCH   5   7
ATOM      7  C   UNL     1       8.901  -0.053  24.101  0.00  0.00    +0.040 A 
ATOM      8  C   UNL     1       8.566   0.756  25.193  0.00  0.00    +0.025 A 
ATOM      9  C   UNL     1       8.255   2.118  25.030  0.00  0.00    +0.025 A 
ATOM     10  C   UNL     1       8.296   2.731  23.772  0.00  0.00    +0.037 A 
ATOM     11  C   UNL     1       8.608   1.910  22.685  0.00  0.00    +0.025 A 
ATOM     12  C   UNL     1       8.899   0.548  22.843  0.00  0.00    +0.025 A 
BRANCH  10  13
ATOM     13  N   UNL     1       8.134   4.143  23.598  0.00  0.00    -0.267 N 
ATOM     14  C   UNL     1       7.113   4.689  22.794  0.00  0.00    +0.246 C 
ATOM     15  O   UNL     1       6.047   4.142  22.514  0.00  0.00    -0.273 OA
ATOM     16  C   UNL     1       7.498   6.024  22.132  0.00  0.00    +0.256 C 
ATOM     17  O   UNL     1       8.322   6.915  22.869  0.00  0.00    -0.369 OA
ATOM     18  C   UNL     1       9.455   6.223  23.385  0.00  0.00    +0.180 C 
ATOM     19  C   UNL     1       8.990   5.098  24.306  0.00  0.00    +0.142 C 
ENDBRANCH  10  13
ENDBRANCH   5   7
BRANCH   1  20
ATOM     20  C   UNL     1       8.803  -4.781  25.618  0.00  0.00    +0.150 C 
BRANCH  20  22
ATOM     21  C   UNL     1       6.700  -5.391  26.787  0.00  0.00    +0.251 C 
ATOM     22  N   UNL     1       7.538  -5.494  25.694  0.00  0.00    -0.307 N 
ATOM     23  H   UNL     1       7.131  -5.835  24.831  0.00  0.00    +0.149 HD
ATOM     24  O   UNL     1       7.059  -4.809  27.808  0.00  0.00    -0.270 OA
BRANCH  21  28
ATOM     25 CL   UNL     1       1.563  -7.222  27.627  0.00  0.00    -0.076 Cl
ATOM     26  C   UNL     1       3.103  -6.838  26.972  0.00  0.00    +0.079 A 
ATOM     27  S   UNL     1       4.222  -5.985  27.907  0.00  0.00    -0.072 S 
ATOM     28  C   UNL     1       5.384  -6.001  26.640  0.00  0.00    +0.075 A 
ATOM     29  C   UNL     1       4.890  -6.665  25.527  0.00  0.00    +0.022 A 
ATOM     30  C   UNL     1       3.559  -7.145  25.717  0.00  0.00    +0.028 A 
ENDBRANCH  21  28
ENDBRANCH  20  22
ENDBRANCH   1  20
TORSDOF 5
ENDMDL
MODEL 6
REMARK VINA RESULT:      -7.0      1.132      1.569
REMARK  Name = 
REMARK  5 active torsions:
REMARK  status: ('A' for Active; 'I' for Inactive)
REMARK    1  A    between atoms: C_5  and  C_7
REMARK    2  A    between atoms: N_9  and  C_10
REMARK    3  A    between atoms: C_10  and  C_11
REMARK    4  A    between atoms: N_14  and  C_18
REMARK    5  A    between atoms: C_21  and  N_24
REMARK                            x       y       z     vdW  Elec       q    Type
REMARK                         _______ _______ _______ _____ _____    ______ ____
ROOT
ATOM      1  C   UNL     1       9.330  -1.618  23.313  0.00  0.00    +0.213 C 
ATOM      2  O   UNL     1      10.115  -2.668  23.895  0.00  0.00    -0.444 OA
ATOM      3  C   UNL     1       9.241  -3.688  24.209  0.00  0.00    +0.408 C 
ATOM      4  O   UNL     1       9.577  -4.612  24.929  0.00  0.00    -0.226 OA
ATOM      5  N   UNL     1       8.025  -3.456  23.568  0.00  0.00    -0.234 N 
ATOM      6  C   UNL     1       8.206  -2.372  22.648  0.00  0.00    +0.163 C 
ENDROOT
BRANCH   5   7
ATOM      7  C   UNL     1       6.816  -4.173  23.738  0.00  0.00    +0.040 A 
ATOM      8  C   UNL     1       6.599  -5.400  23.101  0.00  0.00    +0.025 A 
ATOM      9  C   UNL     1       5.388  -6.101  23.249  0.00  0.00    +0.025 A 
ATOM     10  C   UNL     1       4.359  -5.615  24.064  0.00  0.00    +0.037 A 
ATOM     11  C   UNL     1       4.575  -4.378  24.678  0.00  0.00    +0.025 A 
ATOM     12  C   UNL     1       5.774  -3.669  24.515  0.00  0.00    +0.025 A 
BRANCH  10  13
ATOM     13  N   UNL     1       3.181  -6.377  24.353  0.00  0.00    -0.267 N 
ATOM     14  C   UNL     1       1.947  -6.123  23.721  0.00  0.00    +0.246 C 
ATOM     15  O   UNL     1       1.797  -5.583  22.626  0.00  0.00    -0.273 OA
ATOM     16  C   UNL     1       0.726  -6.446  24.601  0.00  0.00    +0.256 C 
ATOM     17  O   UNL     1       0.817  -7.562  25.473  0.00  0.00    -0.369 OA
ATOM     18  C   UNL     1       2.023  -7.499  26.228  0.00  0.00    +0.180 C 
ATOM     19  C   UNL     1       3.219  -7.510  25.281  0.00  0.00    +0.142 C 
ENDBRANCH  10  13
ENDBRANCH   5   7
BRANCH   1  20
ATOM     20  C   UNL     1      10.178  -0.788  22.358  0.00  0.00    +0.150 C 
BRANCH  20  22
ATOM     21  C   UNL     1       9.295   1.528  22.218  0.00  0.00    +0.251 C 
ATOM     22  N   UNL     1      10.186   0.614  22.746  0.00  0.00    -0.307 N 
ATOM     23  H   UNL     1      10.648   0.866  23.612  0.00  0.00    +0.149 HD
ATOM     24  O   UNL     1       8.553   1.225  21.286  0.00  0.00    -0.270 OA
BRANCH  21  28
ATOM     25 CL   UNL     1      10.745   6.252  24.673  0.00  0.00    -0.076 Cl
ATOM     26  C   UNL     1       9.891   4.956  23.938  0.00  0.00    +0.079 A 
ATOM     27  S   UNL     1      10.735   3.594  23.403  0.00  0.00    -0.072 S 
ATOM     28  C   UNL     1       9.292   2.846  22.842  0.00  0.00    +0.075 A 
ATOM     29  C   UNL     1       8.192   3.655  23.081  0.00  0.00    +0.022 A 
ATOM     30  C   UNL     1       8.541   4.888  23.713  0.00  0.00    +0.028 A 
ENDBRANCH  21  28
ENDBRANCH  20  22
ENDBRANCH   1  20
TORSDOF 5
ENDMDL
MODEL 7
REMARK VINA RESULT:      -6.9      4.610     10.244
REMARK  Name = 
REMARK  5 active torsions:
REMARK  status: ('A' for Active; 'I' for Inactive)
REMARK    1  A    between atoms: C_5  and  C_7
REMARK    2  A    between atoms: N_9  and  C_10
REMARK    3  A    between atoms: C_10  and  C_11
REMARK    4  A    between atoms: N_14  and  C_18
REMARK    5  A    between atoms: C_21  and  N_24
REMARK                            x       y       z     vdW  Elec       q    Type
REMARK                         _______ _______ _______ _____ _____    ______ ____
ROOT
ATOM      1  C   UNL     1       7.574  -3.893  24.417  0.00  0.00    +0.213 C 
ATOM      2  O   UNL     1       8.948  -4.085  24.050  0.00  0.00    -0.444 OA
ATOM      3  C   UNL     1       9.465  -2.835  23.782  0.00  0.00    +0.408 C 
ATOM      4  O   UNL     1      10.537  -2.699  23.219  0.00  0.00    -0.226 OA
ATOM      5  N   UNL     1       8.586  -1.868  24.267  0.00  0.00    -0.234 N 
ATOM      6  C   UNL     1       7.590  -2.528  25.057  0.00  0.00    +0.163 C 
ENDROOT
BRANCH   5   7
ATOM      7  C   UNL     1       8.659  -0.468  24.071  0.00  0.00    +0.040 A 
ATOM      8  C   UNL     1       8.967   0.402  25.122  0.00  0.00    +0.025 A 
ATOM      9  C   UNL     1       9.014   1.796  24.933  0.00  0.00    +0.025 A 
ATOM     10  C   UNL     1       8.785   2.370  23.678  0.00  0.00    +0.037 A 
ATOM     11  C   UNL     1       8.456   1.496  22.638  0.00  0.00    +0.025 A 
ATOM     12  C   UNL     1       8.389   0.108  22.830  0.00  0.00    +0.025 A 
BRANCH  10  13
ATOM     13  N   UNL     1       8.976   3.767  23.424  0.00  0.00    -0.267 N 
ATOM     14  C   UNL     1      10.242   4.381  23.513  0.00  0.00    +0.246 C 
ATOM     15  O   UNL     1      11.327   3.816  23.387  0.00  0.00    -0.273 OA
ATOM     16  C   UNL     1      10.181   5.856  23.948  0.00  0.00    +0.256 C 
ATOM     17  O   UNL     1       9.085   6.636  23.492  0.00  0.00    -0.369 OA
ATOM     18  C   UNL     1       7.860   5.951  23.736  0.00  0.00    +0.180 C 
ATOM     19  C   UNL     1       7.864   4.618  22.994  0.00  0.00    +0.142 C 
ENDBRANCH  10  13
ENDBRANCH   5   7
BRANCH   1  20
ATOM     20  C   UNL     1       7.109  -5.013  25.338  0.00  0.00    +0.150 C 
BRANCH  20  22
ATOM     21  C   UNL     1       4.643  -5.110  25.072  0.00  0.00    +0.251 C 
ATOM     22  N   UNL     1       5.897  -5.639  24.835  0.00  0.00    -0.307 N 
ATOM     23  H   UNL     1       5.984  -6.296  24.069  0.00  0.00    +0.149 HD
ATOM     24  O   UNL     1       4.489  -4.169  25.847  0.00  0.00    -0.270 OA
BRANCH  21  28
ATOM     25 CL   UNL     1       0.963  -8.676  23.025  0.00  0.00    -0.076 Cl
ATOM     26  C   UNL     1       1.892  -7.283  23.405  0.00  0.00    +0.079 A 
ATOM     27  S   UNL     1       3.177  -7.405  24.496  0.00  0.00    -0.072 S 
ATOM     28  C   UNL     1       3.543  -5.731  24.345  0.00  0.00    +0.075 A 
ATOM     29  C   UNL     1       2.675  -5.115  23.456  0.00  0.00    +0.022 A 
ATOM     30  C   UNL     1       1.709  -6.017  22.914  0.00  0.00    +0.028 A 
ENDBRANCH  21  28
ENDBRANCH  20  22
ENDBRANCH   1  20
TORSDOF 5
ENDMDL
MODEL 8
REMARK VINA RESULT:      -6.9      4.442     10.172
REMARK  Name = 
REMARK  5 active torsions:
REMARK  status: ('A' for Active; 'I' for Inactive)
REMARK    1  A    between atoms: C_5  and  C_7
REMARK    2  A    between atoms: N_9  and  C_10
REMARK    3  A    between atoms: C_10  and  C_11
REMARK    4  A    between atoms: N_14  and  C_18
REMARK    5  A    between atoms: C_21  and  N_24
REMARK                            x       y       z     vdW  Elec       q    Type
REMARK                         _______ _______ _______ _____ _____    ______ ____
ROOT
ATOM      1  C   UNL     1       7.147  -3.457  22.472  0.00  0.00    +0.213 C 
ATOM      2  O   UNL     1       8.387  -3.747  23.132  0.00  0.00    -0.444 OA
ATOM      3  C   UNL     1       8.981  -2.534  23.409  0.00  0.00    +0.408 C 
ATOM      4  O   UNL     1      10.149  -2.463  23.751  0.00  0.00    -0.226 OA
ATOM      5  N   UNL     1       8.039  -1.520  23.245  0.00  0.00    -0.234 N 
ATOM      6  C   UNL     1       6.754  -2.130  23.070  0.00  0.00    +0.163 C 
ENDROOT
BRANCH   5   7
ATOM      7  C   UNL     1       8.267  -0.124  23.283  0.00  0.00    +0.040 A 
ATOM      8  C   UNL     1       8.284   0.581  24.491  0.00  0.00    +0.025 A 
ATOM      9  C   UNL     1       8.485   1.974  24.528  0.00  0.00    +0.025 A 
ATOM     10  C   UNL     1       8.708   2.709  23.358  0.00  0.00    +0.037 A 
ATOM     11  C   UNL     1       8.667   2.001  22.154  0.00  0.00    +0.025 A 
ATOM     12  C   UNL     1       8.447   0.617  22.115  0.00  0.00    +0.025 A 
BRANCH  10  13
ATOM     13  N   UNL     1       9.066   4.096  23.378  0.00  0.00    -0.267 N 
ATOM     14  C   UNL     1      10.389   4.528  23.598  0.00  0.00    +0.246 C 
ATOM     15  O   UNL     1      11.407   3.872  23.381  0.00  0.00    -0.273 OA
ATOM     16  C   UNL     1      10.482   5.892  24.306  0.00  0.00    +0.256 C 
ATOM     17  O   UNL     1       9.500   6.868  23.993  0.00  0.00    -0.369 OA
ATOM     18  C   UNL     1       8.196   6.300  24.085  0.00  0.00    +0.180 C 
ATOM     19  C   UNL     1       8.074   5.139  23.103  0.00  0.00    +0.142 C 
ENDBRANCH  10  13
ENDBRANCH   5   7
BRANCH   1  20
ATOM     20  C   UNL     1       6.142  -4.575  22.714  0.00  0.00    +0.150 C 
BRANCH  20  22
ATOM     21  C   UNL     1       5.383  -5.932  24.649  0.00  0.00    +0.251 C 
ATOM     22  N   UNL     1       5.882  -4.752  24.134  0.00  0.00    -0.307 N 
ATOM     23  H   UNL     1       6.337  -4.120  24.783  0.00  0.00    +0.149 HD
ATOM     24  O   UNL     1       4.995  -6.833  23.908  0.00  0.00    -0.270 OA
BRANCH  21  28
ATOM     25 CL   UNL     1       3.935  -6.844  29.895  0.00  0.00    -0.076 Cl
ATOM     26  C   UNL     1       4.756  -6.415  28.449  0.00  0.00    +0.079 A 
ATOM     27  S   UNL     1       3.999  -6.645  26.956  0.00  0.00    -0.072 S 
ATOM     28  C   UNL     1       5.360  -6.032  26.103  0.00  0.00    +0.075 A 
ATOM     29  C   UNL     1       6.366  -5.659  26.983  0.00  0.00    +0.022 A 
ATOM     30  C   UNL     1       6.017  -5.889  28.348  0.00  0.00    +0.028 A 
ENDBRANCH  21  28
ENDBRANCH  20  22
ENDBRANCH   1  20
TORSDOF 5
ENDMDL
MODEL 9
REMARK VINA RESULT:      -6.6      4.418     10.319
REMARK  Name = 
REMARK  5 active torsions:
REMARK  status: ('A' for Active; 'I' for Inactive)
REMARK    1  A    between atoms: C_5  and  C_7
REMARK    2  A    between atoms: N_9  and  C_10
REMARK    3  A    between atoms: C_10  and  C_11
REMARK    4  A    between atoms: N_14  and  C_18
REMARK    5  A    between atoms: C_21  and  N_24
REMARK                            x       y       z     vdW  Elec       q    Type
REMARK                         _______ _______ _______ _____ _____    ______ ____
ROOT
ATOM      1  C   UNL     1       8.152  -3.574  24.371  0.00  0.00    +0.213 C 
ATOM      2  O   UNL     1       9.434  -3.551  23.726  0.00  0.00    -0.444 OA
ATOM      3  C   UNL     1       9.738  -2.226  23.497  0.00  0.00    +0.408 C 
ATOM      4  O   UNL     1      10.649  -1.904  22.754  0.00  0.00    -0.226 OA
ATOM      5  N   UNL     1       8.872  -1.427  24.242  0.00  0.00    -0.234 N 
ATOM      6  C   UNL     1       8.142  -2.275  25.136  0.00  0.00    +0.163 C 
ENDROOT
BRANCH   5   7
ATOM      7  C   UNL     1       8.743  -0.019  24.183  0.00  0.00    +0.040 A 
ATOM      8  C   UNL     1       7.521   0.591  23.878  0.00  0.00    +0.025 A 
ATOM      9  C   UNL     1       7.398   1.990  23.795  0.00  0.00    +0.025 A 
ATOM     10  C   UNL     1       8.486   2.834  24.043  0.00  0.00    +0.037 A 
ATOM     11  C   UNL     1       9.708   2.217  24.324  0.00  0.00    +0.025 A 
ATOM     12  C   UNL     1       9.837   0.822  24.388  0.00  0.00    +0.025 A 
BRANCH  10  13
ATOM     13  N   UNL     1       8.355   4.259  24.114  0.00  0.00    -0.267 N 
ATOM     14  C   UNL     1       7.961   5.034  23.005  0.00  0.00    +0.246 C 
ATOM     15  O   UNL     1       7.303   4.635  22.045  0.00  0.00    -0.273 OA
ATOM     16  C   UNL     1       8.563   6.451  22.998  0.00  0.00    +0.256 C 
ATOM     17  O   UNL     1       8.733   7.103  24.247  0.00  0.00    -0.369 OA
ATOM     18  C   UNL     1       9.397   6.240  25.166  0.00  0.00    +0.180 C 
ATOM     19  C   UNL     1       8.564   4.978  25.373  0.00  0.00    +0.142 C 
ENDBRANCH  10  13
ENDBRANCH   5   7
BRANCH   1  20
ATOM     20  C   UNL     1       8.018  -4.816  25.242  0.00  0.00    +0.150 C 
BRANCH  20  22
ATOM     21  C   UNL     1       5.855  -5.861  25.869  0.00  0.00    +0.251 C 
ATOM     22  N   UNL     1       6.810  -5.558  24.918  0.00  0.00    -0.307 N 
ATOM     23  H   UNL     1       6.524  -5.601  23.947  0.00  0.00    +0.149 HD
ATOM     24  O   UNL     1       6.059  -5.646  27.062  0.00  0.00    -0.270 OA
BRANCH  21  28
ATOM     25 CL   UNL     1       1.590  -7.355  22.703  0.00  0.00    -0.076 Cl
ATOM     26  C   UNL     1       2.697  -7.115  23.994  0.00  0.00    +0.079 A 
ATOM     27  S   UNL     1       4.102  -6.213  23.736  0.00  0.00    -0.072 S 
ATOM     28  C   UNL     1       4.614  -6.433  25.363  0.00  0.00    +0.075 A 
ATOM     29  C   UNL     1       3.692  -7.190  26.071  0.00  0.00    +0.022 A 
ATOM     30  C   UNL     1       2.579  -7.594  25.272  0.00  0.00    +0.028 A 
ENDBRANCH  21  28
ENDBRANCH  20  22
ENDBRANCH   1  20
TORSDOF 5
ENDMDL
