MODEL 1
REMARK VINA RESULT:      -5.9      0.000      0.000
REMARK  Name = 
REMARK  7 active torsions:
REMARK  status: ('A' for Active; 'I' for Inactive)
REMARK    1  A    between atoms: C_1  and  C_2
REMARK    2  A    between atoms: N_7  and  C_8
REMARK    3  A    between atoms: C_11  and  C_13
REMARK    4  A    between atoms: C_13  and  O_14
REMARK    5  A    between atoms: C_15  and  O_17
REMARK    6  A    between atoms: C_18  and  O_20
REMARK    7  A    between atoms: C_21  and  O_23
REMARK                            x       y       z     vdW  Elec       q    Type
REMARK                         _______ _______ _______ _____ _____    ______ ____
ROOT
ATOM      1  C   UNL     1       8.875  -1.582  24.360  0.00  0.00    +0.238 C 
ATOM      2  C   UNL     1       8.353  -0.428  25.256  0.00  0.00    +0.192 C 
ATOM      3  C   UNL     1       8.299   0.899  24.483  0.00  0.00    +0.178 C 
ATOM      4  C   UNL     1       9.626   1.185  23.767  0.00  0.00    +0.177 C 
ATOM      5  C   UNL     1      10.172  -0.032  22.983  0.00  0.00    +0.177 C 
ATOM      6  O   UNL     1      10.103  -1.274  23.692  0.00  0.00    -0.348 OA
ENDROOT
BRANCH   1  12
ATOM      7  C   UNL     1       7.273  -6.183  22.283  0.00  0.00    +0.109 C 
ATOM      8  C   UNL     1       6.647  -4.970  21.650  0.00  0.00    +0.217 C 
ATOM      9  N   UNL     1       7.041  -3.726  22.073  0.00  0.00    -0.240 N 
ATOM     10  H   UNL     1       6.512  -2.976  21.661  0.00  0.00    +0.159 HD
ATOM     11  C   UNL     1       7.952  -3.417  23.059  0.00  0.00    +0.308 C 
ATOM     12  N   UNL     1       7.961  -2.072  23.354  0.00  0.00    -0.271 N 
ATOM     13  H   UNL     1       7.890  -1.465  22.553  0.00  0.00    +0.153 HD
ATOM     14  O   UNL     1       8.675  -4.227  23.624  0.00  0.00    -0.252 OA
ATOM     15  O   UNL     1       5.781  -5.061  20.780  0.00  0.00    -0.276 OA
ENDBRANCH   1  12
BRANCH   2  16
ATOM     16  O   UNL     1       9.205  -0.338  26.413  0.00  0.00    -0.385 OA
ATOM     17  H   UNL     1       8.830  -0.911  27.104  0.00  0.00    +0.210 HD
ENDBRANCH   2  16
BRANCH   3  18
ATOM     18  O   UNL     1       7.160   0.929  23.618  0.00  0.00    -0.386 OA
ATOM     19  H   UNL     1       7.374   0.529  22.761  0.00  0.00    +0.210 HD
ENDBRANCH   3  18
BRANCH   4  20
ATOM     20  O   UNL     1      10.568   1.591  24.778  0.00  0.00    -0.386 OA
ATOM     21  H   UNL     1      10.836   2.510  24.609  0.00  0.00    +0.210 HD
ENDBRANCH   4  20
BRANCH   5  22
ATOM     22  C   UNL     1       9.608  -0.189  21.561  0.00  0.00    +0.190 C 
BRANCH  22  23
ATOM     23  O   UNL     1       9.037   1.018  21.082  0.00  0.00    -0.392 OA
ATOM     24  H   UNL     1       9.761   1.650  20.927  0.00  0.00    +0.210 HD
ENDBRANCH  22  23
ENDBRANCH   5  22
TORSDOF 6
ENDMDL
MODEL 2
REMARK VINA RESULT:      -5.7      3.543      6.851
REMARK  Name = 
REMARK  7 active torsions:
REMARK  status: ('A' for Active; 'I' for Inactive)
REMARK    1  A    between atoms: C_1  and  C_2
REMARK    2  A    between atoms: N_7  and  C_8
REMARK    3  A    between atoms: C_11  and  C_13
REMARK    4  A    between atoms: C_13  and  O_14
REMARK    5  A    between atoms: C_15  and  O_17
REMARK    6  A    between atoms: C_18  and  O_20
REMARK    7  A    between atoms: C_21  and  O_23
REMARK                            x       y       z     vdW  Elec       q    Type
REMARK                         _______ _______ _______ _____ _____    ______ ____
ROOT
ATOM      1  C   UNL     1       8.647   2.393  23.441  0.00  0.00    +0.238 C 
ATOM      2  C   UNL     1       8.498   1.907  24.907  0.00  0.00    +0.192 C 
ATOM      3  C   UNL     1       9.072   0.494  25.089  0.00  0.00    +0.178 C 
ATOM      4  C   UNL     1       8.525  -0.473  24.029  0.00  0.00    +0.177 C 
ATOM      5  C   UNL     1       8.582   0.101  22.592  0.00  0.00    +0.177 C 
ATOM      6  O   UNL     1       8.146   1.459  22.479  0.00  0.00    -0.348 OA
ENDROOT
BRANCH   1  12
ATOM      7  C   UNL     1      12.228   6.205  24.276  0.00  0.00    +0.109 C 
ATOM      8  C   UNL     1      12.656   5.166  23.276  0.00  0.00    +0.217 C 
ATOM      9  N   UNL     1      11.775   4.168  22.941  0.00  0.00    -0.240 N 
ATOM     10  H   UNL     1      12.172   3.469  22.335  0.00  0.00    +0.159 HD
ATOM     11  C   UNL     1      10.506   3.960  23.433  0.00  0.00    +0.308 C 
ATOM     12  N   UNL     1       9.981   2.755  23.022  0.00  0.00    -0.271 N 
ATOM     13  H   UNL     1      10.173   2.520  22.060  0.00  0.00    +0.153 HD
ATOM     14  O   UNL     1       9.899   4.737  24.158  0.00  0.00    -0.252 OA
ATOM     15  O   UNL     1      13.776   5.173  22.765  0.00  0.00    -0.276 OA
ENDBRANCH   1  12
BRANCH   2  16
ATOM     16  O   UNL     1       7.104   1.968  25.261  0.00  0.00    -0.385 OA
ATOM     17  H   UNL     1       6.907   1.205  25.831  0.00  0.00    +0.210 HD
ENDBRANCH   2  16
BRANCH   3  18
ATOM     18  O   UNL     1      10.500   0.535  25.148  0.00  0.00    -0.386 OA
ATOM     19  H   UNL     1      10.871  -0.352  25.021  0.00  0.00    +0.210 HD
ENDBRANCH   3  18
BRANCH   4  20
ATOM     20  O   UNL     1       7.164  -0.770  24.394  0.00  0.00    -0.386 OA
ATOM     21  H   UNL     1       7.144  -1.074  25.318  0.00  0.00    +0.210 HD
ENDBRANCH   4  20
BRANCH   5  22
ATOM     22  C   UNL     1       9.925  -0.099  21.871  0.00  0.00    +0.190 C 
BRANCH  22  23
ATOM     23  O   UNL     1      10.138  -1.456  21.515  0.00  0.00    -0.392 OA
ATOM     24  H   UNL     1      10.647  -1.470  20.684  0.00  0.00    +0.210 HD
ENDBRANCH  22  23
ENDBRANCH   5  22
TORSDOF 6
ENDMDL
MODEL 3
REMARK VINA RESULT:      -5.7      2.578      3.586
REMARK  Name = 
REMARK  7 active torsions:
REMARK  status: ('A' for Active; 'I' for Inactive)
REMARK    1  A    between atoms: C_1  and  C_2
REMARK    2  A    between atoms: N_7  and  C_8
REMARK    3  A    between atoms: C_11  and  C_13
REMARK    4  A    between atoms: C_13  and  O_14
REMARK    5  A    between atoms: C_15  and  O_17
REMARK    6  A    between atoms: C_18  and  O_20
REMARK    7  A    between atoms: C_21  and  O_23
REMARK                            x       y       z     vdW  Elec       q    Type
REMARK                         _______ _______ _______ _____ _____    ______ ____
ROOT
ATOM      1  C   UNL     1       7.686   0.312  23.787  0.00  0.00    +0.238 C 
ATOM      2  C   UNL     1       7.231   0.834  22.398  0.00  0.00    +0.192 C 
ATOM      3  C   UNL     1       8.372   1.570  21.677  0.00  0.00    +0.178 C 
ATOM      4  C   UNL     1       9.020   2.624  22.585  0.00  0.00    +0.177 C 
ATOM      5  C   UNL     1       9.347   2.093  24.001  0.00  0.00    +0.177 C 
ATOM      6  O   UNL     1       8.304   1.316  24.598  0.00  0.00    -0.348 OA
ENDROOT
BRANCH   1  12
ATOM      7  C   UNL     1       8.056  -4.505  25.957  0.00  0.00    +0.109 C 
ATOM      8  C   UNL     1       9.220  -4.134  25.079  0.00  0.00    +0.217 C 
ATOM      9  N   UNL     1       9.252  -2.882  24.518  0.00  0.00    -0.240 N 
ATOM     10  H   UNL     1      10.018  -2.749  23.878  0.00  0.00    +0.159 HD
ATOM     11  C   UNL     1       8.313  -1.881  24.630  0.00  0.00    +0.308 C 
ATOM     12  N   UNL     1       8.572  -0.829  23.780  0.00  0.00    -0.271 N 
ATOM     13  H   UNL     1       9.546  -0.575  23.710  0.00  0.00    +0.153 HD
ATOM     14  O   UNL     1       7.350  -1.904  25.385  0.00  0.00    -0.252 OA
ATOM     15  O   UNL     1      10.132  -4.923  24.835  0.00  0.00    -0.276 OA
ENDBRANCH   1  12
BRANCH   2  16
ATOM     16  O   UNL     1       6.085   1.684  22.592  0.00  0.00    -0.385 OA
ATOM     17  H   UNL     1       6.387   2.608  22.541  0.00  0.00    +0.210 HD
ENDBRANCH   2  16
BRANCH   3  18
ATOM     18  O   UNL     1       9.302   0.634  21.125  0.00  0.00    -0.386 OA
ATOM     19  H   UNL     1      10.017   1.099  20.663  0.00  0.00    +0.210 HD
ENDBRANCH   3  18
BRANCH   4  20
ATOM     20  O   UNL     1       8.100   3.730  22.666  0.00  0.00    -0.386 OA
ATOM     21  H   UNL     1       7.553   3.746  21.862  0.00  0.00    +0.210 HD
ENDBRANCH   4  20
BRANCH   5  22
ATOM     22  C   UNL     1      10.698   1.370  24.123  0.00  0.00    +0.190 C 
BRANCH  22  23
ATOM     23  O   UNL     1      10.778   0.592  25.306  0.00  0.00    -0.392 OA
ATOM     24  H   UNL     1      10.118  -0.122  25.239  0.00  0.00    +0.210 HD
ENDBRANCH  22  23
ENDBRANCH   5  22
TORSDOF 6
ENDMDL
MODEL 4
REMARK VINA RESULT:      -5.7      2.290      5.473
REMARK  Name = 
REMARK  7 active torsions:
REMARK  status: ('A' for Active; 'I' for Inactive)
REMARK    1  A    between atoms: C_1  and  C_2
REMARK    2  A    between atoms: N_7  and  C_8
REMARK    3  A    between atoms: C_11  and  C_13
REMARK    4  A    between atoms: C_13  and  O_14
REMARK    5  A    between atoms: C_15  and  O_17
REMARK    6  A    between atoms: C_18  and  O_20
REMARK    7  A    between atoms: C_21  and  O_23
REMARK                            x       y       z     vdW  Elec       q    Type
REMARK                         _______ _______ _______ _____ _____    ______ ____
ROOT
ATOM      1  C   UNL     1       8.935  -3.370  24.548  0.00  0.00    +0.238 C 
ATOM      2  C   UNL     1       8.488  -4.807  24.172  0.00  0.00    +0.192 C 
ATOM      3  C   UNL     1       7.145  -5.164  24.828  0.00  0.00    +0.178 C 
ATOM      4  C   UNL     1       7.160  -4.863  26.333  0.00  0.00    +0.177 C 
ATOM      5  C   UNL     1       7.727  -3.463  26.671  0.00  0.00    +0.177 C 
ATOM      6  O   UNL     1       8.918  -3.118  25.957  0.00  0.00    -0.348 OA
ENDROOT
BRANCH   1  12
ATOM      7  C   UNL     1       9.895   1.166  21.986  0.00  0.00    +0.109 C 
ATOM      8  C   UNL     1       8.434   0.867  22.184  0.00  0.00    +0.217 C 
ATOM      9  N   UNL     1       8.078  -0.254  22.891  0.00  0.00    -0.240 N 
ATOM     10  H   UNL     1       7.086  -0.424  22.901  0.00  0.00    +0.159 HD
ATOM     11  C   UNL     1       8.907  -1.201  23.449  0.00  0.00    +0.308 C 
ATOM     12  N   UNL     1       8.209  -2.291  23.918  0.00  0.00    -0.271 N 
ATOM     13  H   UNL     1       7.345  -2.067  24.387  0.00  0.00    +0.153 HD
ATOM     14  O   UNL     1      10.125  -1.108  23.525  0.00  0.00    -0.252 OA
ATOM     15  O   UNL     1       7.551   1.586  21.716  0.00  0.00    -0.276 OA
ENDBRANCH   1  12
BRANCH   2  16
ATOM     16  O   UNL     1       9.533  -5.718  24.562  0.00  0.00    -0.385 OA
ATOM     17  H   UNL     1      10.254  -5.639  23.914  0.00  0.00    +0.210 HD
ENDBRANCH   2  16
BRANCH   3  18
ATOM     18  O   UNL     1       6.064  -4.543  24.128  0.00  0.00    -0.386 OA
ATOM     19  H   UNL     1       5.214  -4.891  24.439  0.00  0.00    +0.210 HD
ENDBRANCH   3  18
BRANCH   4  20
ATOM     20  O   UNL     1       7.957  -5.888  26.958  0.00  0.00    -0.386 OA
ATOM     21  H   UNL     1       7.431  -6.704  27.019  0.00  0.00    +0.210 HD
ENDBRANCH   4  20
BRANCH   5  22
ATOM     22  C   UNL     1       6.703  -2.319  26.602  0.00  0.00    +0.190 C 
BRANCH  22  23
ATOM     23  O   UNL     1       7.327  -1.046  26.655  0.00  0.00    -0.392 OA
ATOM     24  H   UNL     1       7.829  -0.925  25.830  0.00  0.00    +0.210 HD
ENDBRANCH  22  23
ENDBRANCH   5  22
TORSDOF 6
ENDMDL
MODEL 5
REMARK VINA RESULT:      -5.7      2.086      3.600
REMARK  Name = 
REMARK  7 active torsions:
REMARK  status: ('A' for Active; 'I' for Inactive)
REMARK    1  A    between atoms: C_1  and  C_2
REMARK    2  A    between atoms: N_7  and  C_8
REMARK    3  A    between atoms: C_11  and  C_13
REMARK    4  A    between atoms: C_13  and  O_14
REMARK    5  A    between atoms: C_15  and  O_17
REMARK    6  A    between atoms: C_18  and  O_20
REMARK    7  A    between atoms: C_21  and  O_23
REMARK                            x       y       z     vdW  Elec       q    Type
REMARK                         _______ _______ _______ _____ _____    ______ ____
ROOT
ATOM      1  C   UNL     1       8.116  -1.057  22.684  0.00  0.00    +0.238 C 
ATOM      2  C   UNL     1       9.585  -0.840  22.232  0.00  0.00    +0.192 C 
ATOM      3  C   UNL     1      10.231   0.339  22.977  0.00  0.00    +0.178 C 
ATOM      4  C   UNL     1       9.345   1.591  22.918  0.00  0.00    +0.177 C 
ATOM      5  C   UNL     1       7.862   1.306  23.259  0.00  0.00    +0.177 C 
ATOM      6  O   UNL     1       7.325   0.135  22.636  0.00  0.00    -0.348 OA
ENDROOT
BRANCH   1  12
ATOM      7  C   UNL     1       9.155  -5.553  25.282  0.00  0.00    +0.109 C 
ATOM      8  C   UNL     1       8.404  -4.532  26.093  0.00  0.00    +0.217 C 
ATOM      9  N   UNL     1       8.031  -3.355  25.493  0.00  0.00    -0.240 N 
ATOM     10  H   UNL     1       7.612  -2.697  26.128  0.00  0.00    +0.159 HD
ATOM     11  C   UNL     1       8.280  -2.949  24.201  0.00  0.00    +0.308 C 
ATOM     12  N   UNL     1       7.931  -1.633  23.995  0.00  0.00    -0.271 N 
ATOM     13  H   UNL     1       7.066  -1.354  24.433  0.00  0.00    +0.153 HD
ATOM     14  O   UNL     1       8.761  -3.654  23.325  0.00  0.00    -0.252 OA
ATOM     15  O   UNL     1       8.132  -4.712  27.280  0.00  0.00    -0.276 OA
ENDBRANCH   1  12
BRANCH   2  16
ATOM     16  O   UNL     1       9.592  -0.640  20.807  0.00  0.00    -0.385 OA
ATOM     17  H   UNL     1       9.987  -1.429  20.397  0.00  0.00    +0.210 HD
ENDBRANCH   2  16
BRANCH   3  18
ATOM     18  O   UNL     1      10.597  -0.047  24.305  0.00  0.00    -0.386 OA
ATOM     19  H   UNL     1       9.829  -0.401  24.779  0.00  0.00    +0.210 HD
ENDBRANCH   3  18
BRANCH   4  20
ATOM     20  O   UNL     1       9.458   2.122  21.584  0.00  0.00    -0.386 OA
ATOM     21  H   UNL     1      10.379   2.031  21.285  0.00  0.00    +0.210 HD
ENDBRANCH   4  20
BRANCH   5  22
ATOM     22  C   UNL     1       7.531   1.321  24.760  0.00  0.00    +0.190 C 
BRANCH  22  23
ATOM     23  O   UNL     1       8.600   1.843  25.533  0.00  0.00    -0.392 OA
ATOM     24  H   UNL     1       9.218   1.113  25.720  0.00  0.00    +0.210 HD
ENDBRANCH  22  23
ENDBRANCH   5  22
TORSDOF 6
ENDMDL
MODEL 6
REMARK VINA RESULT:      -5.6      1.834      5.986
REMARK  Name = 
REMARK  7 active torsions:
REMARK  status: ('A' for Active; 'I' for Inactive)
REMARK    1  A    between atoms: C_1  and  C_2
REMARK    2  A    between atoms: N_7  and  C_8
REMARK    3  A    between atoms: C_11  and  C_13
REMARK    4  A    between atoms: C_13  and  O_14
REMARK    5  A    between atoms: C_15  and  O_17
REMARK    6  A    between atoms: C_18  and  O_20
REMARK    7  A    between atoms: C_21  and  O_23
REMARK                            x       y       z     vdW  Elec       q    Type
REMARK                         _______ _______ _______ _____ _____    ______ ____
ROOT
ATOM      1  C   UNL     1       7.515  -3.229  22.197  0.00  0.00    +0.238 C 
ATOM      2  C   UNL     1       5.966  -3.296  22.128  0.00  0.00    +0.192 C 
ATOM      3  C   UNL     1       5.382  -3.992  23.367  0.00  0.00    +0.178 C 
ATOM      4  C   UNL     1       6.076  -5.334  23.635  0.00  0.00    +0.177 C 
ATOM      5  C   UNL     1       7.620  -5.246  23.575  0.00  0.00    +0.177 C 
ATOM      6  O   UNL     1       8.128  -4.494  22.468  0.00  0.00    -0.348 OA
ENDROOT
BRANCH   1  12
ATOM      7  C   UNL     1      10.101   1.393  22.187  0.00  0.00    +0.109 C 
ATOM      8  C   UNL     1       9.876   0.816  23.558  0.00  0.00    +0.217 C 
ATOM      9  N   UNL     1       9.269  -0.410  23.668  0.00  0.00    -0.240 N 
ATOM     10  H   UNL     1       9.079  -0.679  24.619  0.00  0.00    +0.159 HD
ATOM     11  C   UNL     1       8.793  -1.212  22.655  0.00  0.00    +0.308 C 
ATOM     12  N   UNL     1       8.071  -2.281  23.135  0.00  0.00    -0.271 N 
ATOM     13  H   UNL     1       8.463  -2.718  23.955  0.00  0.00    +0.153 HD
ATOM     14  O   UNL     1       8.973  -1.013  21.460  0.00  0.00    -0.252 OA
ATOM     15  O   UNL     1      10.201   1.418  24.581  0.00  0.00    -0.276 OA
ENDBRANCH   1  12
BRANCH   2  16
ATOM     16  O   UNL     1       5.600  -3.972  20.912  0.00  0.00    -0.385 OA
ATOM     17  H   UNL     1       6.248  -4.682  20.759  0.00  0.00    +0.210 HD
ENDBRANCH   2  16
BRANCH   3  18
ATOM     18  O   UNL     1       5.388  -3.106  24.491  0.00  0.00    -0.386 OA
ATOM     19  H   UNL     1       5.730  -2.236  24.234  0.00  0.00    +0.210 HD
ENDBRANCH   3  18
BRANCH   4  20
ATOM     20  O   UNL     1       5.590  -6.262  22.646  0.00  0.00    -0.386 OA
ATOM     21  H   UNL     1       5.555  -7.152  23.038  0.00  0.00    +0.210 HD
ENDBRANCH   4  20
BRANCH   5  22
ATOM     22  C   UNL     1       8.292  -4.804  24.884  0.00  0.00    +0.190 C 
BRANCH  22  23
ATOM     23  O   UNL     1       9.654  -4.457  24.689  0.00  0.00    -0.392 OA
ATOM     24  H   UNL     1      10.033  -4.233  25.559  0.00  0.00    +0.210 HD
ENDBRANCH  22  23
ENDBRANCH   5  22
TORSDOF 6
ENDMDL
MODEL 7
REMARK VINA RESULT:      -5.6      1.663      3.318
REMARK  Name = 
REMARK  7 active torsions:
REMARK  status: ('A' for Active; 'I' for Inactive)
REMARK    1  A    between atoms: C_1  and  C_2
REMARK    2  A    between atoms: N_7  and  C_8
REMARK    3  A    between atoms: C_11  and  C_13
REMARK    4  A    between atoms: C_13  and  O_14
REMARK    5  A    between atoms: C_15  and  O_17
REMARK    6  A    between atoms: C_18  and  O_20
REMARK    7  A    between atoms: C_21  and  O_23
REMARK                            x       y       z     vdW  Elec       q    Type
REMARK                         _______ _______ _______ _____ _____    ______ ____
ROOT
ATOM      1  C   UNL     1       8.849   0.072  22.651  0.00  0.00    +0.238 C 
ATOM      2  C   UNL     1      10.070   1.030  22.656  0.00  0.00    +0.192 C 
ATOM      3  C   UNL     1      10.170   1.801  23.981  0.00  0.00    +0.178 C 
ATOM      4  C   UNL     1       8.832   2.457  24.350  0.00  0.00    +0.177 C 
ATOM      5  C   UNL     1       7.624   1.498  24.215  0.00  0.00    +0.177 C 
ATOM      6  O   UNL     1       7.622   0.712  23.019  0.00  0.00    -0.348 OA
ENDROOT
BRANCH   1  12
ATOM      7  C   UNL     1       7.369  -5.013  22.587  0.00  0.00    +0.109 C 
ATOM      8  C   UNL     1       8.116  -4.604  23.827  0.00  0.00    +0.217 C 
ATOM      9  N   UNL     1       8.491  -3.292  23.971  0.00  0.00    -0.240 N 
ATOM     10  H   UNL     1       9.059  -3.124  24.785  0.00  0.00    +0.159 HD
ATOM     11  C   UNL     1       8.292  -2.254  23.088  0.00  0.00    +0.308 C 
ATOM     12  N   UNL     1       8.967  -1.115  23.466  0.00  0.00    -0.271 N 
ATOM     13  H   UNL     1       8.943  -0.921  24.455  0.00  0.00    +0.153 HD
ATOM     14  O   UNL     1       7.606  -2.315  22.077  0.00  0.00    -0.252 OA
ATOM     15  O   UNL     1       8.417  -5.413  24.705  0.00  0.00    -0.276 OA
ENDBRANCH   1  12
BRANCH   2  16
ATOM     16  O   UNL     1       9.948   1.917  21.528  0.00  0.00    -0.385 OA
ATOM     17  H   UNL     1       9.471   1.442  20.825  0.00  0.00    +0.210 HD
ENDBRANCH   2  16
BRANCH   3  18
ATOM     18  O   UNL     1      10.704   0.964  25.010  0.00  0.00    -0.386 OA
ATOM     19  H   UNL     1      11.336   0.329  24.637  0.00  0.00    +0.210 HD
ENDBRANCH   3  18
BRANCH   4  20
ATOM     20  O   UNL     1       8.667   3.592  23.479  0.00  0.00    -0.386 OA
ATOM     21  H   UNL     1       9.154   4.348  23.850  0.00  0.00    +0.210 HD
ENDBRANCH   4  20
BRANCH   5  22
ATOM     22  C   UNL     1       7.363   0.613  25.445  0.00  0.00    +0.190 C 
BRANCH  22  23
ATOM     23  O   UNL     1       8.092   1.055  26.580  0.00  0.00    -0.392 OA
ATOM     24  H   UNL     1       8.108   0.327  27.226  0.00  0.00    +0.210 HD
ENDBRANCH  22  23
ENDBRANCH   5  22
TORSDOF 6
ENDMDL
MODEL 8
REMARK VINA RESULT:      -5.6      2.201      2.635
REMARK  Name = 
REMARK  7 active torsions:
REMARK  status: ('A' for Active; 'I' for Inactive)
REMARK    1  A    between atoms: C_1  and  C_2
REMARK    2  A    between atoms: N_7  and  C_8
REMARK    3  A    between atoms: C_11  and  C_13
REMARK    4  A    between atoms: C_13  and  O_14
REMARK    5  A    between atoms: C_15  and  O_17
REMARK    6  A    between atoms: C_18  and  O_20
REMARK    7  A    between atoms: C_21  and  O_23
REMARK                            x       y       z     vdW  Elec       q    Type
REMARK                         _______ _______ _______ _____ _____    ______ ____
ROOT
ATOM      1  C   UNL     1       8.989   0.092  24.458  0.00  0.00    +0.238 C 
ATOM      2  C   UNL     1       8.024   1.305  24.534  0.00  0.00    +0.192 C 
ATOM      3  C   UNL     1       7.577   1.753  23.134  0.00  0.00    +0.178 C 
ATOM      4  C   UNL     1       8.778   1.939  22.196  0.00  0.00    +0.177 C 
ATOM      5  C   UNL     1       9.777   0.758  22.242  0.00  0.00    +0.177 C 
ATOM      6  O   UNL     1      10.085   0.293  23.560  0.00  0.00    -0.348 OA
ENDROOT
BRANCH   1  12
ATOM      7  C   UNL     1       7.547  -4.433  26.803  0.00  0.00    +0.109 C 
ATOM      8  C   UNL     1       7.325  -4.412  25.315  0.00  0.00    +0.217 C 
ATOM      9  N   UNL     1       7.723  -3.308  24.602  0.00  0.00    -0.240 N 
ATOM     10  H   UNL     1       7.459  -3.341  23.632  0.00  0.00    +0.159 HD
ATOM     11  C   UNL     1       8.300  -2.154  25.083  0.00  0.00    +0.308 C 
ATOM     12  N   UNL     1       8.391  -1.178  24.117  0.00  0.00    -0.271 N 
ATOM     13  H   UNL     1       8.663  -1.513  23.206  0.00  0.00    +0.153 HD
ATOM     14  O   UNL     1       8.689  -1.991  26.232  0.00  0.00    -0.252 OA
ATOM     15  O   UNL     1       6.782  -5.344  24.722  0.00  0.00    -0.276 OA
ENDBRANCH   1  12
BRANCH   2  16
ATOM     16  O   UNL     1       8.690   2.364  25.247  0.00  0.00    -0.385 OA
ATOM     17  H   UNL     1       9.042   1.991  26.074  0.00  0.00    +0.210 HD
ENDBRANCH   2  16
BRANCH   3  18
ATOM     18  O   UNL     1       6.577   0.869  22.620  0.00  0.00    -0.386 OA
ATOM     19  H   UNL     1       6.357   1.101  21.705  0.00  0.00    +0.210 HD
ENDBRANCH   3  18
BRANCH   4  20
ATOM     20  O   UNL     1       9.430   3.162  22.589  0.00  0.00    -0.386 OA
ATOM     21  H   UNL     1       8.756   3.802  22.874  0.00  0.00    +0.210 HD
ENDBRANCH   4  20
BRANCH   5  22
ATOM     22  C   UNL     1       9.427  -0.420  21.319  0.00  0.00    +0.190 C 
BRANCH  22  23
ATOM     23  O   UNL     1      10.219  -1.564  21.597  0.00  0.00    -0.392 OA
ATOM     24  H   UNL     1       9.770  -2.339  21.213  0.00  0.00    +0.210 HD
ENDBRANCH  22  23
ENDBRANCH   5  22
TORSDOF 6
ENDMDL
MODEL 9
REMARK VINA RESULT:      -5.5      2.811      6.391
REMARK  Name = 
REMARK  7 active torsions:
REMARK  status: ('A' for Active; 'I' for Inactive)
REMARK    1  A    between atoms: C_1  and  C_2
REMARK    2  A    between atoms: N_7  and  C_8
REMARK    3  A    between atoms: C_11  and  C_13
REMARK    4  A    between atoms: C_13  and  O_14
REMARK    5  A    between atoms: C_15  and  O_17
REMARK    6  A    between atoms: C_18  and  O_20
REMARK    7  A    between atoms: C_21  and  O_23
REMARK                            x       y       z     vdW  Elec       q    Type
REMARK                         _______ _______ _______ _____ _____    ______ ____
ROOT
ATOM      1  C   UNL     1      10.048   0.368  23.005  0.00  0.00    +0.238 C 
ATOM      2  C   UNL     1       9.390  -0.665  22.052  0.00  0.00    +0.192 C 
ATOM      3  C   UNL     1       8.313  -1.487  22.777  0.00  0.00    +0.178 C 
ATOM      4  C   UNL     1       8.846  -2.069  24.094  0.00  0.00    +0.177 C 
ATOM      5  C   UNL     1       9.601  -1.032  24.959  0.00  0.00    +0.177 C 
ATOM      6  O   UNL     1      10.515  -0.205  24.230  0.00  0.00    -0.348 OA
ENDROOT
BRANCH   1  12
ATOM      7  C   UNL     1      10.604   5.573  23.809  0.00  0.00    +0.109 C 
ATOM      8  C   UNL     1       9.207   5.061  24.034  0.00  0.00    +0.217 C 
ATOM      9  N   UNL     1       8.969   3.714  23.913  0.00  0.00    -0.240 N 
ATOM     10  H   UNL     1       7.997   3.470  23.994  0.00  0.00    +0.159 HD
ATOM     11  C   UNL     1       9.865   2.725  23.573  0.00  0.00    +0.308 C 
ATOM     12  N   UNL     1       9.244   1.515  23.356  0.00  0.00    -0.271 N 
ATOM     13  H   UNL     1       8.506   1.299  24.008  0.00  0.00    +0.153 HD
ATOM     14  O   UNL     1      11.074   2.880  23.466  0.00  0.00    -0.252 OA
ATOM     15  O   UNL     1       8.271   5.812  24.305  0.00  0.00    -0.276 OA
ENDBRANCH   1  12
BRANCH   2  16
ATOM     16  O   UNL     1      10.428  -1.502  21.511  0.00  0.00    -0.385 OA
ATOM     17  H   UNL     1      11.127  -0.921  21.162  0.00  0.00    +0.210 HD
ENDBRANCH   2  16
BRANCH   3  18
ATOM     18  O   UNL     1       7.114  -0.722  22.929  0.00  0.00    -0.386 OA
ATOM     19  H   UNL     1       7.326   0.202  23.135  0.00  0.00    +0.210 HD
ENDBRANCH   3  18
BRANCH   4  20
ATOM     20  O   UNL     1       9.719  -3.161  23.746  0.00  0.00    -0.386 OA
ATOM     21  H   UNL     1       9.857  -3.161  22.784  0.00  0.00    +0.210 HD
ENDBRANCH   4  20
BRANCH   5  22
ATOM     22  C   UNL     1       8.706  -0.177  25.870  0.00  0.00    +0.190 C 
BRANCH  22  23
ATOM     23  O   UNL     1       9.001  -0.378  27.243  0.00  0.00    -0.392 OA
ATOM     24  H   UNL     1       8.396   0.181  27.763  0.00  0.00    +0.210 HD
ENDBRANCH  22  23
ENDBRANCH   5  22
TORSDOF 6
ENDMDL
