MODEL 1
REMARK VINA RESULT:      -6.9      0.000      0.000
REMARK  Name = 
REMARK  14 active torsions:
REMARK  status: ('A' for Active; 'I' for Inactive)
REMARK    1  A    between atoms: C_1  and  O_2
REMARK    2  A    between atoms: O_2  and  C_3
REMARK    3  A    between atoms: C_4  and  C_5
REMARK    4  A    between atoms: C_5  and  C_6
REMARK    5  A    between atoms: C_7  and  C_8
REMARK    6  A    between atoms: C_7  and  C_9
REMARK    7  A    between atoms: C_9  and  C_10
REMARK    8  A    between atoms: C_10  and  C_11
REMARK    9  A    between atoms: C_11  and  O_13
REMARK   10  A    between atoms: O_13  and  C_14
REMARK   11  A    between atoms: C_14  and  C_15
REMARK   12  A    between atoms: C_15  and  N_16
REMARK   13  A    between atoms: C_22  and  O_23
REMARK   14  A    between atoms: C_30  and  C_31
REMARK                            x       y       z     vdW  Elec       q    Type
REMARK                         _______ _______ _______ _____ _____    ______ ____
ROOT
ATOM      1  C   UNL     1       9.213  -3.714  24.351  0.00  0.00    +0.069 C 
ENDROOT
BRANCH   1  12
ATOM      2  C   UNL     1       6.923  -4.704  23.865  0.00  0.00    +0.130 A 
ATOM      3  C   UNL     1       5.756  -5.438  24.204  0.00  0.00    -0.001 A 
ATOM      4  C   UNL     1       4.658  -5.680  23.205  0.00  0.00    +0.048 C 
ATOM      5  C   UNL     1       5.663  -5.957  25.490  0.00  0.00    +0.014 A 
ATOM      6  C   UNL     1       6.666  -5.742  26.408  0.00  0.00    +0.107 A 
ATOM      7  C   UNL     1       6.278  -6.368  27.680  0.00  0.00    +0.343 C 
ATOM      8  O   UNL     1       5.057  -6.950  27.468  0.00  0.00    -0.456 OA
ATOM      9  O   UNL     1       6.883  -6.393  28.731  0.00  0.00    -0.245 OA
ATOM     10  C   UNL     1       7.817  -5.022  26.103  0.00  0.00    +0.138 A 
ATOM     11  C   UNL     1       4.594  -6.759  26.121  0.00  0.00    +0.269 C 
ATOM     12  C   UNL     1       7.995  -4.506  24.799  0.00  0.00    +0.040 A 
BRANCH   2  14
ATOM     13  C   UNL     1       6.638  -2.957  22.256  0.00  0.00    +0.277 C 
ATOM     14  O   UNL     1       6.980  -4.312  22.544  0.00  0.00    -0.494 OA
ENDBRANCH   2  14
BRANCH  10  15
ATOM     15  O   UNL     1       8.696  -4.872  27.132  0.00  0.00    -0.506 OA
ATOM     16  H   UNL     1       9.281  -5.629  27.224  0.00  0.00    +0.292 HD
ENDBRANCH  10  15
ENDBRANCH   1  12
BRANCH   1  17
ATOM     17  C   UNL     1       9.387  -2.293  24.789  0.00  0.00    -0.023 C 
ATOM     18  C   UNL     1       9.816  -1.248  24.050  0.00  0.00    -0.076 C 
ATOM     19  C   UNL     1      10.209  -1.332  22.601  0.00  0.00    +0.039 C 
BRANCH  18  20
ATOM     20  C   UNL     1       9.858   0.114  24.720  0.00  0.00    +0.041 C 
BRANCH  20  21
ATOM     21  C   UNL     1      10.958   1.031  24.206  0.00  0.00    +0.125 C 
BRANCH  21  22
ATOM     22  C   UNL     1      10.386   2.299  23.635  0.00  0.00    +0.307 C 
ATOM     23  O   UNL     1      10.983   3.346  23.440  0.00  0.00    -0.251 OA
BRANCH  22  24
ATOM     24  O   UNL     1       9.035   2.139  23.528  0.00  0.00    -0.463 OA
BRANCH  24  25
ATOM     25  C   UNL     1       8.553   2.437  22.217  0.00  0.00    +0.247 C 
BRANCH  25  26
ATOM     26  C   UNL     1       7.308   3.322  22.255  0.00  0.00    +0.125 C 
BRANCH  26  27
ATOM     27  N   UNL     1       7.377   4.327  23.333  0.00  0.00    -0.295 NA
ATOM     28  C   UNL     1       6.024   4.685  23.816  0.00  0.00    +0.112 C 
ATOM     29  C   UNL     1       5.228   5.568  22.838  0.00  0.00    +0.175 C 
ATOM     30  O   UNL     1       5.951   6.756  22.490  0.00  0.00    -0.377 OA
ATOM     31  C   UNL     1       7.235   6.432  21.942  0.00  0.00    +0.175 C 
ATOM     32  C   UNL     1       8.051   5.583  22.927  0.00  0.00    +0.112 C 
ENDBRANCH  26  27
ENDBRANCH  25  26
ENDBRANCH  24  25
ENDBRANCH  22  24
ENDBRANCH  21  22
ENDBRANCH  20  21
ENDBRANCH  18  20
ENDBRANCH   1  17
TORSDOF 11
ENDMDL
MODEL 2
REMARK VINA RESULT:      -6.8      1.799      2.490
REMARK  Name = 
REMARK  14 active torsions:
REMARK  status: ('A' for Active; 'I' for Inactive)
REMARK    1  A    between atoms: C_1  and  O_2
REMARK    2  A    between atoms: O_2  and  C_3
REMARK    3  A    between atoms: C_4  and  C_5
REMARK    4  A    between atoms: C_5  and  C_6
REMARK    5  A    between atoms: C_7  and  C_8
REMARK    6  A    between atoms: C_7  and  C_9
REMARK    7  A    between atoms: C_9  and  C_10
REMARK    8  A    between atoms: C_10  and  C_11
REMARK    9  A    between atoms: C_11  and  O_13
REMARK   10  A    between atoms: O_13  and  C_14
REMARK   11  A    between atoms: C_14  and  C_15
REMARK   12  A    between atoms: C_15  and  N_16
REMARK   13  A    between atoms: C_22  and  O_23
REMARK   14  A    between atoms: C_30  and  C_31
REMARK                            x       y       z     vdW  Elec       q    Type
REMARK                         _______ _______ _______ _____ _____    ______ ____
ROOT
ATOM      1  C   UNL     1       8.769  -3.854  24.201  0.00  0.00    +0.069 C 
ENDROOT
BRANCH   1  12
ATOM      2  C   UNL     1       6.505  -4.973  23.914  0.00  0.00    +0.130 A 
ATOM      3  C   UNL     1       5.374  -5.696  24.378  0.00  0.00    -0.001 A 
ATOM      4  C   UNL     1       4.262  -6.101  23.450  0.00  0.00    +0.048 C 
ATOM      5  C   UNL     1       5.333  -6.049  25.721  0.00  0.00    +0.014 A 
ATOM      6  C   UNL     1       6.350  -5.684  26.575  0.00  0.00    +0.107 A 
ATOM      7  C   UNL     1       6.017  -6.154  27.927  0.00  0.00    +0.343 C 
ATOM      8  O   UNL     1       4.814  -6.799  27.827  0.00  0.00    -0.456 OA
ATOM      9  O   UNL     1       6.649  -6.024  28.954  0.00  0.00    -0.245 OA
ATOM     10  C   UNL     1       7.466  -4.972  26.146  0.00  0.00    +0.138 A 
ATOM     11  C   UNL     1       4.311  -6.798  26.481  0.00  0.00    +0.269 C 
ATOM     12  C   UNL     1       7.592  -4.622  24.782  0.00  0.00    +0.040 A 
BRANCH   2  14
ATOM     13  C   UNL     1       7.135  -5.748  21.740  0.00  0.00    +0.277 C 
ATOM     14  O   UNL     1       6.515  -4.753  22.552  0.00  0.00    -0.494 OA
ENDBRANCH   2  14
BRANCH  10  15
ATOM     15  O   UNL     1       8.364  -4.662  27.121  0.00  0.00    -0.506 OA
ATOM     16  H   UNL     1       7.976  -4.125  27.817  0.00  0.00    +0.292 HD
ENDBRANCH  10  15
ENDBRANCH   1  12
BRANCH   1  17
ATOM     17  C   UNL     1       9.084  -2.477  24.696  0.00  0.00    -0.023 C 
ATOM     18  C   UNL     1       9.762  -1.503  24.051  0.00  0.00    -0.076 C 
ATOM     19  C   UNL     1      10.339  -1.637  22.669  0.00  0.00    +0.039 C 
BRANCH  18  20
ATOM     20  C   UNL     1       9.906  -0.165  24.756  0.00  0.00    +0.041 C 
BRANCH  20  21
ATOM     21  C   UNL     1      10.939   0.762  24.132  0.00  0.00    +0.125 C 
BRANCH  21  22
ATOM     22  C   UNL     1      10.279   1.853  23.335  0.00  0.00    +0.307 C 
ATOM     23  O   UNL     1      10.224   1.936  22.118  0.00  0.00    -0.251 OA
BRANCH  22  24
ATOM     24  O   UNL     1       9.896   2.834  24.203  0.00  0.00    -0.463 OA
BRANCH  24  25
ATOM     25  C   UNL     1       8.627   3.395  23.865  0.00  0.00    +0.247 C 
BRANCH  25  26
ATOM     26  C   UNL     1       7.492   2.765  24.672  0.00  0.00    +0.125 C 
BRANCH  26  27
ATOM     27  N   UNL     1       6.438   2.209  23.802  0.00  0.00    -0.295 NA
ATOM     28  C   UNL     1       5.091   2.502  24.344  0.00  0.00    +0.112 C 
ATOM     29  C   UNL     1       4.723   1.664  25.581  0.00  0.00    +0.175 C 
ATOM     30  O   UNL     1       4.850   0.259  25.326  0.00  0.00    -0.377 OA
ATOM     31  C   UNL     1       6.174  -0.062  24.879  0.00  0.00    +0.175 C 
ATOM     32  C   UNL     1       6.535   0.742  23.621  0.00  0.00    +0.112 C 
ENDBRANCH  26  27
ENDBRANCH  25  26
ENDBRANCH  24  25
ENDBRANCH  22  24
ENDBRANCH  21  22
ENDBRANCH  20  21
ENDBRANCH  18  20
ENDBRANCH   1  17
TORSDOF 11
ENDMDL
MODEL 3
REMARK VINA RESULT:      -6.7      1.691      2.092
REMARK  Name = 
REMARK  14 active torsions:
REMARK  status: ('A' for Active; 'I' for Inactive)
REMARK    1  A    between atoms: C_1  and  O_2
REMARK    2  A    between atoms: O_2  and  C_3
REMARK    3  A    between atoms: C_4  and  C_5
REMARK    4  A    between atoms: C_5  and  C_6
REMARK    5  A    between atoms: C_7  and  C_8
REMARK    6  A    between atoms: C_7  and  C_9
REMARK    7  A    between atoms: C_9  and  C_10
REMARK    8  A    between atoms: C_10  and  C_11
REMARK    9  A    between atoms: C_11  and  O_13
REMARK   10  A    between atoms: O_13  and  C_14
REMARK   11  A    between atoms: C_14  and  C_15
REMARK   12  A    between atoms: C_15  and  N_16
REMARK   13  A    between atoms: C_22  and  O_23
REMARK   14  A    between atoms: C_30  and  C_31
REMARK                            x       y       z     vdW  Elec       q    Type
REMARK                         _______ _______ _______ _____ _____    ______ ____
ROOT
ATOM      1  C   UNL     1       9.284  -4.307  24.817  0.00  0.00    +0.069 C 
ENDROOT
BRANCH   1  12
ATOM      2  C   UNL     1       7.018  -4.858  23.806  0.00  0.00    +0.130 A 
ATOM      3  C   UNL     1       5.707  -5.402  23.841  0.00  0.00    -0.001 A 
ATOM      4  C   UNL     1       4.815  -5.389  22.630  0.00  0.00    +0.048 C 
ATOM      5  C   UNL     1       5.272  -5.979  25.028  0.00  0.00    +0.014 A 
ATOM      6  C   UNL     1       6.085  -5.997  26.139  0.00  0.00    +0.107 A 
ATOM      7  C   UNL     1       5.352  -6.628  27.246  0.00  0.00    +0.343 C 
ATOM      8  O   UNL     1       4.126  -6.978  26.747  0.00  0.00    -0.456 OA
ATOM      9  O   UNL     1       5.716  -6.823  28.385  0.00  0.00    -0.245 OA
ATOM     10  C   UNL     1       7.372  -5.467  26.132  0.00  0.00    +0.138 A 
ATOM     11  C   UNL     1       3.986  -6.625  25.361  0.00  0.00    +0.269 C 
ATOM     12  C   UNL     1       7.892  -4.907  24.943  0.00  0.00    +0.040 A 
BRANCH   2  14
ATOM     13  C   UNL     1       6.953  -3.099  22.186  0.00  0.00    +0.277 C 
ATOM     14  O   UNL     1       7.406  -4.398  22.565  0.00  0.00    -0.494 OA
ENDBRANCH   2  14
BRANCH  10  15
ATOM     15  O   UNL     1       8.032  -5.535  27.321  0.00  0.00    -0.506 OA
ATOM     16  H   UNL     1       7.433  -5.520  28.072  0.00  0.00    +0.292 HD
ENDBRANCH  10  15
ENDBRANCH   1  12
BRANCH   1  17
ATOM     17  C   UNL     1       9.451  -2.883  24.388  0.00  0.00    -0.023 C 
ATOM     18  C   UNL     1       9.115  -1.769  25.074  0.00  0.00    -0.076 C 
ATOM     19  C   UNL     1       8.492  -1.766  26.442  0.00  0.00    +0.039 C 
BRANCH  18  20
ATOM     20  C   UNL     1       9.434  -0.429  24.435  0.00  0.00    +0.041 C 
BRANCH  20  21
ATOM     21  C   UNL     1      10.381  -0.512  23.247  0.00  0.00    +0.125 C 
BRANCH  21  22
ATOM     22  C   UNL     1       9.716  -0.030  21.987  0.00  0.00    +0.307 C 
ATOM     23  O   UNL     1       9.321  -0.721  21.060  0.00  0.00    -0.251 OA
BRANCH  22  24
ATOM     24  O   UNL     1       9.780   1.333  21.974  0.00  0.00    -0.463 OA
BRANCH  24  25
ATOM     25  C   UNL     1       8.511   1.935  21.716  0.00  0.00    +0.247 C 
BRANCH  25  26
ATOM     26  C   UNL     1       8.225   3.092  22.673  0.00  0.00    +0.125 C 
BRANCH  26  27
ATOM     27  N   UNL     1       9.188   3.137  23.789  0.00  0.00    -0.295 NA
ATOM     28  C   UNL     1       8.494   3.075  25.096  0.00  0.00    +0.112 C 
ATOM     29  C   UNL     1       7.765   4.377  25.474  0.00  0.00    +0.175 C 
ATOM     30  O   UNL     1       8.648   5.506  25.445  0.00  0.00    -0.377 OA
ATOM     31  C   UNL     1       9.270   5.636  24.160  0.00  0.00    +0.175 C 
ATOM     32  C   UNL     1      10.033   4.355  23.792  0.00  0.00    +0.112 C 
ENDBRANCH  26  27
ENDBRANCH  25  26
ENDBRANCH  24  25
ENDBRANCH  22  24
ENDBRANCH  21  22
ENDBRANCH  20  21
ENDBRANCH  18  20
ENDBRANCH   1  17
TORSDOF 11
ENDMDL
MODEL 4
REMARK VINA RESULT:      -6.5      2.758      9.290
REMARK  Name = 
REMARK  14 active torsions:
REMARK  status: ('A' for Active; 'I' for Inactive)
REMARK    1  A    between atoms: C_1  and  O_2
REMARK    2  A    between atoms: O_2  and  C_3
REMARK    3  A    between atoms: C_4  and  C_5
REMARK    4  A    between atoms: C_5  and  C_6
REMARK    5  A    between atoms: C_7  and  C_8
REMARK    6  A    between atoms: C_7  and  C_9
REMARK    7  A    between atoms: C_9  and  C_10
REMARK    8  A    between atoms: C_10  and  C_11
REMARK    9  A    between atoms: C_11  and  O_13
REMARK   10  A    between atoms: O_13  and  C_14
REMARK   11  A    between atoms: C_14  and  C_15
REMARK   12  A    between atoms: C_15  and  N_16
REMARK   13  A    between atoms: C_22  and  O_23
REMARK   14  A    between atoms: C_30  and  C_31
REMARK                            x       y       z     vdW  Elec       q    Type
REMARK                         _______ _______ _______ _____ _____    ______ ____
ROOT
ATOM      1  C   UNL     1       7.967   1.307  23.243  0.00  0.00    +0.069 C 
ENDROOT
BRANCH   1  12
ATOM      2  C   UNL     1       7.665   3.382  24.679  0.00  0.00    +0.130 A 
ATOM      3  C   UNL     1       8.076   4.632  25.213  0.00  0.00    -0.001 A 
ATOM      4  C   UNL     1       7.236   5.378  26.213  0.00  0.00    +0.048 C 
ATOM      5  C   UNL     1       9.302   5.143  24.805  0.00  0.00    +0.014 A 
ATOM      6  C   UNL     1      10.078   4.463  23.892  0.00  0.00    +0.107 A 
ATOM      7  C   UNL     1      11.286   5.256  23.622  0.00  0.00    +0.343 C 
ATOM      8  O   UNL     1      11.193   6.379  24.400  0.00  0.00    -0.456 OA
ATOM      9  O   UNL     1      12.207   5.006  22.874  0.00  0.00    -0.245 OA
ATOM     10  C   UNL     1       9.695   3.240  23.351  0.00  0.00    +0.138 A 
ATOM     11  C   UNL     1       9.991   6.393  25.187  0.00  0.00    +0.269 C 
ATOM     12  C   UNL     1       8.481   2.642  23.760  0.00  0.00    +0.040 A 
BRANCH   2  14
ATOM     13  C   UNL     1       6.596   2.016  26.326  0.00  0.00    +0.277 C 
ATOM     14  O   UNL     1       6.487   2.901  25.212  0.00  0.00    -0.494 OA
ENDBRANCH   2  14
BRANCH  10  15
ATOM     15  O   UNL     1      10.559   2.715  22.439  0.00  0.00    -0.506 OA
ATOM     16  H   UNL     1      10.193   1.947  21.991  0.00  0.00    +0.292 HD
ENDBRANCH  10  15
ENDBRANCH   1  12
BRANCH   1  17
ATOM     17  C   UNL     1       8.569   0.030  23.738  0.00  0.00    -0.023 C 
ATOM     18  C   UNL     1       9.287  -0.872  23.035  0.00  0.00    -0.076 C 
ATOM     19  C   UNL     1       9.620  -0.744  21.575  0.00  0.00    +0.039 C 
BRANCH  18  20
ATOM     20  C   UNL     1       9.832  -2.074  23.787  0.00  0.00    +0.041 C 
BRANCH  20  21
ATOM     21  C   UNL     1       8.976  -2.517  24.964  0.00  0.00    +0.125 C 
BRANCH  21  22
ATOM     22  C   UNL     1       9.145  -3.986  25.235  0.00  0.00    +0.307 C 
ATOM     23  O   UNL     1       9.870  -4.762  24.630  0.00  0.00    -0.251 OA
BRANCH  22  24
ATOM     24  O   UNL     1       8.218  -4.350  26.168  0.00  0.00    -0.463 OA
BRANCH  24  25
ATOM     25  C   UNL     1       6.883  -4.070  25.747  0.00  0.00    +0.247 C 
BRANCH  25  26
ATOM     26  C   UNL     1       6.370  -5.110  24.751  0.00  0.00    +0.125 C 
BRANCH  26  27
ATOM     27  N   UNL     1       5.226  -4.607  23.966  0.00  0.00    -0.295 NA
ATOM     28  C   UNL     1       4.806  -5.592  22.943  0.00  0.00    +0.112 C 
ATOM     29  C   UNL     1       5.773  -5.698  21.750  0.00  0.00    +0.175 C 
ATOM     30  O   UNL     1       5.998  -4.423  21.134  0.00  0.00    -0.377 OA
ATOM     31  C   UNL     1       6.484  -3.472  22.090  0.00  0.00    +0.175 C 
ATOM     32  C   UNL     1       5.507  -3.331  23.266  0.00  0.00    +0.112 C 
ENDBRANCH  26  27
ENDBRANCH  25  26
ENDBRANCH  24  25
ENDBRANCH  22  24
ENDBRANCH  21  22
ENDBRANCH  20  21
ENDBRANCH  18  20
ENDBRANCH   1  17
TORSDOF 11
ENDMDL
MODEL 5
REMARK VINA RESULT:      -6.5      2.557      4.011
REMARK  Name = 
REMARK  14 active torsions:
REMARK  status: ('A' for Active; 'I' for Inactive)
REMARK    1  A    between atoms: C_1  and  O_2
REMARK    2  A    between atoms: O_2  and  C_3
REMARK    3  A    between atoms: C_4  and  C_5
REMARK    4  A    between atoms: C_5  and  C_6
REMARK    5  A    between atoms: C_7  and  C_8
REMARK    6  A    between atoms: C_7  and  C_9
REMARK    7  A    between atoms: C_9  and  C_10
REMARK    8  A    between atoms: C_10  and  C_11
REMARK    9  A    between atoms: C_11  and  O_13
REMARK   10  A    between atoms: O_13  and  C_14
REMARK   11  A    between atoms: C_14  and  C_15
REMARK   12  A    between atoms: C_15  and  N_16
REMARK   13  A    between atoms: C_22  and  O_23
REMARK   14  A    between atoms: C_30  and  C_31
REMARK                            x       y       z     vdW  Elec       q    Type
REMARK                         _______ _______ _______ _____ _____    ______ ____
ROOT
ATOM      1  C   UNL     1       9.195  -3.803  24.321  0.00  0.00    +0.069 C 
ENDROOT
BRANCH   1  12
ATOM      2  C   UNL     1       6.828  -4.620  23.882  0.00  0.00    +0.130 A 
ATOM      3  C   UNL     1       5.618  -5.269  24.244  0.00  0.00    -0.001 A 
ATOM      4  C   UNL     1       4.483  -5.424  23.268  0.00  0.00    +0.048 C 
ATOM      5  C   UNL     1       5.517  -5.791  25.528  0.00  0.00    +0.014 A 
ATOM      6  C   UNL     1       6.553  -5.656  26.424  0.00  0.00    +0.107 A 
ATOM      7  C   UNL     1       6.149  -6.261  27.701  0.00  0.00    +0.343 C 
ATOM      8  O   UNL     1       4.884  -6.751  27.514  0.00  0.00    -0.456 OA
ATOM      9  O   UNL     1       6.774  -6.338  28.737  0.00  0.00    -0.245 OA
ATOM     10  C   UNL     1       7.746  -5.019  26.097  0.00  0.00    +0.138 A 
ATOM     11  C   UNL     1       4.407  -6.517  26.179  0.00  0.00    +0.269 C 
ATOM     12  C   UNL     1       7.932  -4.508  24.792  0.00  0.00    +0.040 A 
BRANCH   2  14
ATOM     13  C   UNL     1       6.562  -2.861  22.282  0.00  0.00    +0.277 C 
ATOM     14  O   UNL     1       6.884  -4.223  22.562  0.00  0.00    -0.494 OA
ENDBRANCH   2  14
BRANCH  10  15
ATOM     15  O   UNL     1       8.657  -4.941  27.106  0.00  0.00    -0.506 OA
ATOM     16  H   UNL     1       8.956  -4.040  27.258  0.00  0.00    +0.292 HD
ENDBRANCH  10  15
ENDBRANCH   1  12
BRANCH   1  17
ATOM     17  C   UNL     1       9.460  -2.388  24.729  0.00  0.00    -0.023 C 
ATOM     18  C   UNL     1       9.887  -1.371  23.950  0.00  0.00    -0.076 C 
ATOM     19  C   UNL     1      10.180  -1.486  22.481  0.00  0.00    +0.039 C 
BRANCH  18  20
ATOM     20  C   UNL     1      10.035  -0.005  24.600  0.00  0.00    +0.041 C 
BRANCH  20  21
ATOM     21  C   UNL     1       9.339   1.122  23.851  0.00  0.00    +0.125 C 
BRANCH  21  22
ATOM     22  C   UNL     1       8.573   2.008  24.794  0.00  0.00    +0.307 C 
ATOM     23  O   UNL     1       8.733   3.209  24.958  0.00  0.00    -0.251 OA
BRANCH  22  24
ATOM     24  O   UNL     1       7.780   1.213  25.568  0.00  0.00    -0.463 OA
BRANCH  24  25
ATOM     25  C   UNL     1       6.615   0.765  24.873  0.00  0.00    +0.247 C 
BRANCH  25  26
ATOM     26  C   UNL     1       6.239  -0.666  25.254  0.00  0.00    +0.125 C 
BRANCH  26  27
ATOM     27  N   UNL     1       4.809  -0.789  25.596  0.00  0.00    -0.295 NA
ATOM     28  C   UNL     1       4.442   0.135  26.695  0.00  0.00    +0.112 C 
ATOM     29  C   UNL     1       4.966  -0.302  28.075  0.00  0.00    +0.175 C 
ATOM     30  O   UNL     1       4.551  -1.636  28.400  0.00  0.00    -0.377 OA
ATOM     31  C   UNL     1       4.968  -2.562  27.390  0.00  0.00    +0.175 C 
ATOM     32  C   UNL     1       4.418  -2.155  26.015  0.00  0.00    +0.112 C 
ENDBRANCH  26  27
ENDBRANCH  25  26
ENDBRANCH  24  25
ENDBRANCH  22  24
ENDBRANCH  21  22
ENDBRANCH  20  21
ENDBRANCH  18  20
ENDBRANCH   1  17
TORSDOF 11
ENDMDL
MODEL 6
REMARK VINA RESULT:      -6.4      1.713      2.132
REMARK  Name = 
REMARK  14 active torsions:
REMARK  status: ('A' for Active; 'I' for Inactive)
REMARK    1  A    between atoms: C_1  and  O_2
REMARK    2  A    between atoms: O_2  and  C_3
REMARK    3  A    between atoms: C_4  and  C_5
REMARK    4  A    between atoms: C_5  and  C_6
REMARK    5  A    between atoms: C_7  and  C_8
REMARK    6  A    between atoms: C_7  and  C_9
REMARK    7  A    between atoms: C_9  and  C_10
REMARK    8  A    between atoms: C_10  and  C_11
REMARK    9  A    between atoms: C_11  and  O_13
REMARK   10  A    between atoms: O_13  and  C_14
REMARK   11  A    between atoms: C_14  and  C_15
REMARK   12  A    between atoms: C_15  and  N_16
REMARK   13  A    between atoms: C_22  and  O_23
REMARK   14  A    between atoms: C_30  and  C_31
REMARK                            x       y       z     vdW  Elec       q    Type
REMARK                         _______ _______ _______ _____ _____    ______ ____
ROOT
ATOM      1  C   UNL     1       8.680  -3.827  24.130  0.00  0.00    +0.069 C 
ENDROOT
BRANCH   1  12
ATOM      2  C   UNL     1       6.436  -4.995  23.878  0.00  0.00    +0.130 A 
ATOM      3  C   UNL     1       5.324  -5.734  24.362  0.00  0.00    -0.001 A 
ATOM      4  C   UNL     1       4.211  -6.173  23.450  0.00  0.00    +0.048 C 
ATOM      5  C   UNL     1       5.302  -6.070  25.710  0.00  0.00    +0.014 A 
ATOM      6  C   UNL     1       6.319  -5.674  26.550  0.00  0.00    +0.107 A 
ATOM      7  C   UNL     1       6.008  -6.132  27.911  0.00  0.00    +0.343 C 
ATOM      8  O   UNL     1       4.817  -6.802  27.830  0.00  0.00    -0.456 OA
ATOM      9  O   UNL     1       6.647  -5.976  28.930  0.00  0.00    -0.245 OA
ATOM     10  C   UNL     1       7.417  -4.945  26.102  0.00  0.00    +0.138 A 
ATOM     11  C   UNL     1       4.302  -6.829  26.489  0.00  0.00    +0.269 C 
ATOM     12  C   UNL     1       7.524  -4.611  24.732  0.00  0.00    +0.040 A 
BRANCH   2  14
ATOM     13  C   UNL     1       7.104  -5.760  21.712  0.00  0.00    +0.277 C 
ATOM     14  O   UNL     1       6.429  -4.792  22.514  0.00  0.00    -0.494 OA
ENDBRANCH   2  14
BRANCH  10  15
ATOM     15  O   UNL     1       8.318  -4.605  27.064  0.00  0.00    -0.506 OA
ATOM     16  H   UNL     1       7.966  -4.724  27.950  0.00  0.00    +0.292 HD
ENDBRANCH  10  15
ENDBRANCH   1  12
BRANCH   1  17
ATOM     17  C   UNL     1       9.028  -2.474  24.665  0.00  0.00    -0.023 C 
ATOM     18  C   UNL     1       9.805  -1.532  24.088  0.00  0.00    -0.076 C 
ATOM     19  C   UNL     1      10.481  -1.686  22.754  0.00  0.00    +0.039 C 
BRANCH  18  20
ATOM     20  C   UNL     1       9.965  -0.211  24.819  0.00  0.00    +0.041 C 
BRANCH  20  21
ATOM     21  C   UNL     1      10.813   0.814  24.080  0.00  0.00    +0.125 C 
BRANCH  21  22
ATOM     22  C   UNL     1       9.972   1.647  23.153  0.00  0.00    +0.307 C 
ATOM     23  O   UNL     1      10.140   1.797  21.952  0.00  0.00    -0.251 OA
BRANCH  22  24
ATOM     24  O   UNL     1       9.084   2.353  23.911  0.00  0.00    -0.463 OA
BRANCH  24  25
ATOM     25  C   UNL     1       8.685   3.573  23.287  0.00  0.00    +0.247 C 
BRANCH  25  26
ATOM     26  C   UNL     1       9.460   4.772  23.832  0.00  0.00    +0.125 C 
BRANCH  26  27
ATOM     27  N   UNL     1       8.574   5.912  24.136  0.00  0.00    -0.295 NA
ATOM     28  C   UNL     1       9.328   7.021  24.765  0.00  0.00    +0.112 C 
ATOM     29  C   UNL     1       9.731   6.749  26.226  0.00  0.00    +0.175 C 
ATOM     30  O   UNL     1       8.595   6.413  27.034  0.00  0.00    -0.377 OA
ATOM     31  C   UNL     1       7.895   5.287  26.490  0.00  0.00    +0.175 C 
ATOM     32  C   UNL     1       7.456   5.564  25.044  0.00  0.00    +0.112 C 
ENDBRANCH  26  27
ENDBRANCH  25  26
ENDBRANCH  24  25
ENDBRANCH  22  24
ENDBRANCH  21  22
ENDBRANCH  20  21
ENDBRANCH  18  20
ENDBRANCH   1  17
TORSDOF 11
ENDMDL
MODEL 7
REMARK VINA RESULT:      -6.4      3.170      8.425
REMARK  Name = 
REMARK  14 active torsions:
REMARK  status: ('A' for Active; 'I' for Inactive)
REMARK    1  A    between atoms: C_1  and  O_2
REMARK    2  A    between atoms: O_2  and  C_3
REMARK    3  A    between atoms: C_4  and  C_5
REMARK    4  A    between atoms: C_5  and  C_6
REMARK    5  A    between atoms: C_7  and  C_8
REMARK    6  A    between atoms: C_7  and  C_9
REMARK    7  A    between atoms: C_9  and  C_10
REMARK    8  A    between atoms: C_10  and  C_11
REMARK    9  A    between atoms: C_11  and  O_13
REMARK   10  A    between atoms: O_13  and  C_14
REMARK   11  A    between atoms: C_14  and  C_15
REMARK   12  A    between atoms: C_15  and  N_16
REMARK   13  A    between atoms: C_22  and  O_23
REMARK   14  A    between atoms: C_30  and  C_31
REMARK                            x       y       z     vdW  Elec       q    Type
REMARK                         _______ _______ _______ _____ _____    ______ ____
ROOT
ATOM      1  C   UNL     1       7.426   2.937  22.102  0.00  0.00    +0.069 C 
ENDROOT
BRANCH   1  12
ATOM      2  C   UNL     1       7.211   3.457  24.581  0.00  0.00    +0.130 A 
ATOM      3  C   UNL     1       6.477   3.679  25.776  0.00  0.00    -0.001 A 
ATOM      4  C   UNL     1       7.161   4.043  27.065  0.00  0.00    +0.048 C 
ATOM      5  C   UNL     1       5.093   3.580  25.719  0.00  0.00    +0.014 A 
ATOM      6  C   UNL     1       4.460   3.250  24.540  0.00  0.00    +0.107 A 
ATOM      7  C   UNL     1       3.014   3.178  24.790  0.00  0.00    +0.343 C 
ATOM      8  O   UNL     1       2.834   3.484  26.112  0.00  0.00    -0.456 OA
ATOM      9  O   UNL     1       2.121   2.910  24.014  0.00  0.00    -0.245 OA
ATOM     10  C   UNL     1       5.156   3.022  23.357  0.00  0.00    +0.138 A 
ATOM     11  C   UNL     1       4.077   3.764  26.776  0.00  0.00    +0.269 C 
ATOM     12  C   UNL     1       6.564   3.154  23.336  0.00  0.00    +0.040 A 
BRANCH   2  14
ATOM     13  C   UNL     1       9.054   4.957  24.309  0.00  0.00    +0.277 C 
ATOM     14  O   UNL     1       8.568   3.675  24.702  0.00  0.00    -0.494 OA
ENDBRANCH   2  14
BRANCH  10  15
ATOM     15  O   UNL     1       4.386   2.675  22.290  0.00  0.00    -0.506 OA
ATOM     16  H   UNL     1       4.600   3.186  21.505  0.00  0.00    +0.292 HD
ENDBRANCH  10  15
ENDBRANCH   1  12
BRANCH   1  17
ATOM     17  C   UNL     1       7.922   1.566  21.765  0.00  0.00    -0.023 C 
ATOM     18  C   UNL     1       9.192   1.111  21.826  0.00  0.00    -0.076 C 
ATOM     19  C   UNL     1      10.373   1.933  22.260  0.00  0.00    +0.039 C 
BRANCH  18  20
ATOM     20  C   UNL     1       9.431  -0.348  21.475  0.00  0.00    +0.041 C 
BRANCH  20  21
ATOM     21  C   UNL     1      10.462  -1.041  22.353  0.00  0.00    +0.125 C 
BRANCH  21  22
ATOM     22  C   UNL     1       9.839  -1.557  23.620  0.00  0.00    +0.307 C 
ATOM     23  O   UNL     1       9.515  -0.896  24.595  0.00  0.00    -0.251 OA
BRANCH  22  24
ATOM     24  O   UNL     1       9.851  -2.921  23.569  0.00  0.00    -0.463 OA
BRANCH  24  25
ATOM     25  C   UNL     1       9.050  -3.511  24.594  0.00  0.00    +0.247 C 
BRANCH  25  26
ATOM     26  C   UNL     1       7.974  -4.430  24.018  0.00  0.00    +0.125 C 
BRANCH  26  27
ATOM     27  N   UNL     1       7.577  -4.030  22.655  0.00  0.00    -0.295 NA
ATOM     28  C   UNL     1       6.525  -2.988  22.690  0.00  0.00    +0.112 C 
ATOM     29  C   UNL     1       5.139  -3.517  23.101  0.00  0.00    +0.175 C 
ATOM     30  O   UNL     1       4.719  -4.605  22.267  0.00  0.00    -0.377 OA
ATOM     31  C   UNL     1       5.685  -5.664  22.283  0.00  0.00    +0.175 C 
ATOM     32  C   UNL     1       7.063  -5.153  21.836  0.00  0.00    +0.112 C 
ENDBRANCH  26  27
ENDBRANCH  25  26
ENDBRANCH  24  25
ENDBRANCH  22  24
ENDBRANCH  21  22
ENDBRANCH  20  21
ENDBRANCH  18  20
ENDBRANCH   1  17
TORSDOF 11
ENDMDL
MODEL 8
REMARK VINA RESULT:      -6.3      1.201      1.562
REMARK  Name = 
REMARK  14 active torsions:
REMARK  status: ('A' for Active; 'I' for Inactive)
REMARK    1  A    between atoms: C_1  and  O_2
REMARK    2  A    between atoms: O_2  and  C_3
REMARK    3  A    between atoms: C_4  and  C_5
REMARK    4  A    between atoms: C_5  and  C_6
REMARK    5  A    between atoms: C_7  and  C_8
REMARK    6  A    between atoms: C_7  and  C_9
REMARK    7  A    between atoms: C_9  and  C_10
REMARK    8  A    between atoms: C_10  and  C_11
REMARK    9  A    between atoms: C_11  and  O_13
REMARK   10  A    between atoms: O_13  and  C_14
REMARK   11  A    between atoms: C_14  and  C_15
REMARK   12  A    between atoms: C_15  and  N_16
REMARK   13  A    between atoms: C_22  and  O_23
REMARK   14  A    between atoms: C_30  and  C_31
REMARK                            x       y       z     vdW  Elec       q    Type
REMARK                         _______ _______ _______ _____ _____    ______ ____
ROOT
ATOM      1  C   UNL     1       8.574  -4.124  24.732  0.00  0.00    +0.069 C 
ENDROOT
BRANCH   1  12
ATOM      2  C   UNL     1       6.100  -4.395  24.217  0.00  0.00    +0.130 A 
ATOM      3  C   UNL     1       4.797  -4.904  24.461  0.00  0.00    -0.001 A 
ATOM      4  C   UNL     1       3.649  -4.612  23.533  0.00  0.00    +0.048 C 
ATOM      5  C   UNL     1       4.611  -5.713  25.576  0.00  0.00    +0.014 A 
ATOM      6  C   UNL     1       5.659  -5.987  26.426  0.00  0.00    +0.107 A 
ATOM      7  C   UNL     1       5.161  -6.823  27.528  0.00  0.00    +0.343 C 
ATOM      8  O   UNL     1       3.830  -7.031  27.284  0.00  0.00    -0.456 OA
ATOM      9  O   UNL     1       5.767  -7.266  28.480  0.00  0.00    -0.245 OA
ATOM     10  C   UNL     1       6.943  -5.496  26.213  0.00  0.00    +0.138 A 
ATOM     11  C   UNL     1       3.395  -6.386  26.076  0.00  0.00    +0.269 C 
ATOM     12  C   UNL     1       7.210  -4.706  25.071  0.00  0.00    +0.040 A 
BRANCH   2  14
ATOM     13  C   UNL     1       6.681  -4.408  21.896  0.00  0.00    +0.277 C 
ATOM     14  O   UNL     1       6.218  -3.688  23.038  0.00  0.00    -0.494 OA
ENDBRANCH   2  14
BRANCH  10  15
ATOM     15  O   UNL     1       7.857  -5.832  27.164  0.00  0.00    -0.506 OA
ATOM     16  H   UNL     1       7.443  -6.122  27.981  0.00  0.00    +0.292 HD
ENDBRANCH  10  15
ENDBRANCH   1  12
BRANCH   1  17
ATOM     17  C   UNL     1       8.925  -2.735  25.165  0.00  0.00    -0.023 C 
ATOM     18  C   UNL     1       9.561  -1.784  24.448  0.00  0.00    -0.076 C 
ATOM     19  C   UNL     1      10.045  -1.961  23.035  0.00  0.00    +0.039 C 
BRANCH  18  20
ATOM     20  C   UNL     1       9.757  -0.427  25.102  0.00  0.00    +0.041 C 
BRANCH  20  21
ATOM     21  C   UNL     1       8.719   0.613  24.707  0.00  0.00    +0.125 C 
BRANCH  21  22
ATOM     22  C   UNL     1       9.338   1.719  23.898  0.00  0.00    +0.307 C 
ATOM     23  O   UNL     1       9.960   1.598  22.854  0.00  0.00    -0.251 OA
BRANCH  22  24
ATOM     24  O   UNL     1       9.237   2.874  24.618  0.00  0.00    -0.463 OA
BRANCH  24  25
ATOM     25  C   UNL     1       9.531   4.031  23.834  0.00  0.00    +0.247 C 
BRANCH  25  26
ATOM     26  C   UNL     1       8.331   4.971  23.733  0.00  0.00    +0.125 C 
BRANCH  26  27
ATOM     27  N   UNL     1       7.708   4.930  22.396  0.00  0.00    -0.295 NA
ATOM     28  C   UNL     1       7.022   6.205  22.088  0.00  0.00    +0.112 C 
ATOM     29  C   UNL     1       5.705   6.405  22.861  0.00  0.00    +0.175 C 
ATOM     30  O   UNL     1       4.804   5.307  22.664  0.00  0.00    -0.377 OA
ATOM     31  C   UNL     1       5.420   4.067  23.035  0.00  0.00    +0.175 C 
ATOM     32  C   UNL     1       6.715   3.841  22.240  0.00  0.00    +0.112 C 
ENDBRANCH  26  27
ENDBRANCH  25  26
ENDBRANCH  24  25
ENDBRANCH  22  24
ENDBRANCH  21  22
ENDBRANCH  20  21
ENDBRANCH  18  20
ENDBRANCH   1  17
TORSDOF 11
ENDMDL
MODEL 9
REMARK VINA RESULT:      -6.3      2.255      3.707
REMARK  Name = 
REMARK  14 active torsions:
REMARK  status: ('A' for Active; 'I' for Inactive)
REMARK    1  A    between atoms: C_1  and  O_2
REMARK    2  A    between atoms: O_2  and  C_3
REMARK    3  A    between atoms: C_4  and  C_5
REMARK    4  A    between atoms: C_5  and  C_6
REMARK    5  A    between atoms: C_7  and  C_8
REMARK    6  A    between atoms: C_7  and  C_9
REMARK    7  A    between atoms: C_9  and  C_10
REMARK    8  A    between atoms: C_10  and  C_11
REMARK    9  A    between atoms: C_11  and  O_13
REMARK   10  A    between atoms: O_13  and  C_14
REMARK   11  A    between atoms: C_14  and  C_15
REMARK   12  A    between atoms: C_15  and  N_16
REMARK   13  A    between atoms: C_22  and  O_23
REMARK   14  A    between atoms: C_30  and  C_31
REMARK                            x       y       z     vdW  Elec       q    Type
REMARK                         _______ _______ _______ _____ _____    ______ ____
ROOT
ATOM      1  C   UNL     1       9.434  -2.834  23.780  0.00  0.00    +0.069 C 
ENDROOT
BRANCH   1  12
ATOM      2  C   UNL     1       7.789  -3.538  25.586  0.00  0.00    +0.130 A 
ATOM      3  C   UNL     1       6.600  -4.157  26.053  0.00  0.00    -0.001 A 
ATOM      4  C   UNL     1       6.211  -4.123  27.505  0.00  0.00    +0.048 C 
ATOM      5  C   UNL     1       5.779  -4.779  25.120  0.00  0.00    +0.014 A 
ATOM      6  C   UNL     1       6.128  -4.811  23.788  0.00  0.00    +0.107 A 
ATOM      7  C   UNL     1       5.102  -5.564  23.053  0.00  0.00    +0.343 C 
ATOM      8  O   UNL     1       4.166  -5.943  23.977  0.00  0.00    -0.456 OA
ATOM      9  O   UNL     1       5.050  -5.821  21.869  0.00  0.00    -0.245 OA
ATOM     10  C   UNL     1       7.290  -4.217  23.306  0.00  0.00    +0.138 A 
ATOM     11  C   UNL     1       4.495  -5.487  25.299  0.00  0.00    +0.269 C 
ATOM     12  C   UNL     1       8.145  -3.527  24.196  0.00  0.00    +0.040 A 
BRANCH   2  14
ATOM     13  C   UNL     1       8.309  -1.444  26.620  0.00  0.00    +0.277 C 
ATOM     14  O   UNL     1       8.492  -2.858  26.559  0.00  0.00    -0.494 OA
ENDBRANCH   2  14
BRANCH  10  15
ATOM     15  O   UNL     1       7.506  -4.366  21.970  0.00  0.00    -0.506 OA
ATOM     16  H   UNL     1       8.005  -5.162  21.768  0.00  0.00    +0.292 HD
ENDBRANCH  10  15
ENDBRANCH   1  12
BRANCH   1  17
ATOM     17  C   UNL     1       9.398  -1.715  22.788  0.00  0.00    -0.023 C 
ATOM     18  C   UNL     1       9.952  -0.489  22.906  0.00  0.00    -0.076 C 
ATOM     19  C   UNL     1      10.733  -0.018  24.100  0.00  0.00    +0.039 C 
BRANCH  18  20
ATOM     20  C   UNL     1       9.814   0.459  21.727  0.00  0.00    +0.041 C 
BRANCH  20  21
ATOM     21  C   UNL     1       9.815   1.933  22.106  0.00  0.00    +0.125 C 
BRANCH  21  22
ATOM     22  C   UNL     1       8.416   2.441  22.317  0.00  0.00    +0.307 C 
ATOM     23  O   UNL     1       7.413   2.089  21.715  0.00  0.00    -0.251 OA
BRANCH  22  24
ATOM     24  O   UNL     1       8.478   3.493  23.183  0.00  0.00    -0.463 OA
BRANCH  24  25
ATOM     25  C   UNL     1       8.843   3.091  24.504  0.00  0.00    +0.247 C 
BRANCH  25  26
ATOM     26  C   UNL     1       7.860   2.075  25.083  0.00  0.00    +0.125 C 
BRANCH  26  27
ATOM     27  N   UNL     1       6.819   2.720  25.905  0.00  0.00    -0.295 NA
ATOM     28  C   UNL     1       6.146   1.735  26.783  0.00  0.00    +0.112 C 
ATOM     29  C   UNL     1       5.185   0.792  26.037  0.00  0.00    +0.175 C 
ATOM     30  O   UNL     1       4.207   1.521  25.283  0.00  0.00    -0.377 OA
ATOM     31  C   UNL     1       4.836   2.424  24.365  0.00  0.00    +0.175 C 
ATOM     32  C   UNL     1       5.768   3.394  25.106  0.00  0.00    +0.112 C 
ENDBRANCH  26  27
ENDBRANCH  25  26
ENDBRANCH  24  25
ENDBRANCH  22  24
ENDBRANCH  21  22
ENDBRANCH  20  21
ENDBRANCH  18  20
ENDBRANCH   1  17
TORSDOF 11
ENDMDL
