MODEL 1
REMARK VINA RESULT:      -7.7      0.000      0.000
REMARK  Name = 
REMARK  1 active torsions:
REMARK  status: ('A' for Active; 'I' for Inactive)
REMARK    1  A    between atoms: C_14  and  C_27
REMARK                            x       y       z     vdW  Elec       q    Type
REMARK                         _______ _______ _______ _____ _____    ______ ____
ROOT
ATOM      1  C   UNL     1       6.733   1.549  27.174  0.00  0.00    +0.143 C 
ATOM      2  N   UNL     1       5.410   0.803  27.438  0.00  0.00    -0.300 NA
ATOM      3  H   UNL     1       4.795   1.434  27.950  0.00  0.00    +0.123 HD
ATOM      4  C   UNL     1       4.551  -0.103  26.599  0.00  0.00    +0.136 C 
ATOM      5  C   UNL     1       3.436  -0.923  27.411  0.00  0.00    +0.052 A 
ATOM      6  N   UNL     1       3.232  -2.312  27.722  0.00  0.00    -0.328 N 
ATOM      7  C   UNL     1       2.293  -2.344  28.743  0.00  0.00    +0.199 A 
ATOM      8  N   UNL     1       1.615  -1.227  28.797  0.00  0.00    -0.244 NA
ATOM      9  C   UNL     1       3.316  -3.584  26.944  0.00  0.00    +0.158 C 
ATOM     10  C   UNL     1       4.674  -4.150  26.652  0.00  0.00    -0.024 A 
ATOM     11  C   UNL     1       5.745  -3.298  26.685  0.00  0.00    +0.053 A 
ATOM     12  C   UNL     1       6.895  -3.620  26.006  0.00  0.00    +0.146 A 
ATOM     13  C   UNL     1       7.193  -4.932  25.670  0.00  0.00    +0.094 A 
ATOM     14  C   UNL     1       6.172  -5.843  25.759  0.00  0.00    +0.023 A 
ATOM     15  O   UNL     1       7.656  -2.574  25.607  0.00  0.00    -0.455 OA
ATOM     16  C   UNL     1       7.363  -2.083  24.338  0.00  0.00    +0.129 A 
ATOM     17  C   UNL     1       7.762  -2.734  23.195  0.00  0.00    +0.047 A 
ATOM     18  C   UNL     1       8.371  -1.995  22.187  0.00  0.00    +0.012 A 
ATOM     19  C   UNL     1       8.674  -0.640  22.396  0.00  0.00    -0.016 A 
ATOM     20  C   UNL     1       9.497   0.088  21.549  0.00  0.00    +0.008 A 
ATOM     21  C   UNL     1       9.818   1.425  21.860  0.00  0.00    +0.002 A 
ATOM     22  C   UNL     1       9.349   2.021  23.052  0.00  0.00    +0.024 A 
ATOM     23  C   UNL     1       8.552   1.294  23.944  0.00  0.00    +0.044 A 
ATOM     24  N   UNL     1       8.155   1.781  25.243  0.00  0.00    -0.269 N 
ATOM     25  C   UNL     1       7.722   3.121  25.480  0.00  0.00    +0.116 C 
ATOM     26  C   UNL     1       8.157  -0.002  23.541  0.00  0.00    +0.007 A 
ATOM     27  C   UNL     1       7.247  -0.722  24.283  0.00  0.00    +0.056 A 
ATOM     28  C   UNL     1       4.890  -5.467  26.178  0.00  0.00    +0.007 A 
ATOM     29  C   UNL     1       2.264  -0.380  27.938  0.00  0.00    +0.135 A 
ATOM     30  C   UNL     1       7.887   0.951  26.374  0.00  0.00    +0.237 C 
ATOM     31  O   UNL     1       8.508  -0.052  26.698  0.00  0.00    -0.274 OA
ATOM     32  C   UNL     1       6.936   3.053  26.804  0.00  0.00    +0.047 C 
ENDROOT
BRANCH  13  33
ATOM     33  C   UNL     1       8.511  -5.267  25.228  0.00  0.00    +0.103 C 
ATOM     34  N   UNL     1       9.580  -5.515  24.860  0.00  0.00    -0.191 NA
ENDBRANCH  13  33
TORSDOF 1
ENDMDL
MODEL 2
REMARK VINA RESULT:      -7.5      1.962      5.525
REMARK  Name = 
REMARK  1 active torsions:
REMARK  status: ('A' for Active; 'I' for Inactive)
REMARK    1  A    between atoms: C_14  and  C_27
REMARK                            x       y       z     vdW  Elec       q    Type
REMARK                         _______ _______ _______ _____ _____    ______ ____
ROOT
ATOM      1  C   UNL     1       8.662  -0.149  22.428  0.00  0.00    +0.143 C 
ATOM      2  N   UNL     1       8.662  -1.449  23.258  0.00  0.00    -0.300 NA
ATOM      3  H   UNL     1       9.282  -2.111  22.796  0.00  0.00    +0.123 HD
ATOM      4  C   UNL     1       8.699  -1.730  24.734  0.00  0.00    +0.136 C 
ATOM      5  C   UNL     1       8.337  -3.238  25.147  0.00  0.00    +0.052 A 
ATOM      6  N   UNL     1       7.246  -3.858  25.850  0.00  0.00    -0.328 N 
ATOM      7  C   UNL     1       7.332  -5.215  25.575  0.00  0.00    +0.199 A 
ATOM      8  N   UNL     1       8.529  -5.539  25.161  0.00  0.00    -0.244 NA
ATOM      9  C   UNL     1       6.494  -3.546  27.102  0.00  0.00    +0.158 C 
ATOM     10  C   UNL     1       5.464  -2.456  27.060  0.00  0.00    -0.024 A 
ATOM     11  C   UNL     1       5.568  -1.513  26.072  0.00  0.00    +0.053 A 
ATOM     12  C   UNL     1       4.975  -0.285  26.236  0.00  0.00    +0.146 A 
ATOM     13  C   UNL     1       3.922  -0.102  27.120  0.00  0.00    +0.094 A 
ATOM     14  C   UNL     1       3.702  -1.097  28.038  0.00  0.00    +0.023 A 
ATOM     15  O   UNL     1       5.545   0.740  25.560  0.00  0.00    -0.455 OA
ATOM     16  C   UNL     1       6.537   1.425  26.254  0.00  0.00    +0.129 A 
ATOM     17  C   UNL     1       6.240   2.325  27.250  0.00  0.00    +0.047 A 
ATOM     18  C   UNL     1       6.869   3.564  27.235  0.00  0.00    +0.012 A 
ATOM     19  C   UNL     1       7.694   3.920  26.156  0.00  0.00    -0.016 A 
ATOM     20  C   UNL     1       8.148   5.214  25.947  0.00  0.00    +0.008 A 
ATOM     21  C   UNL     1       8.912   5.514  24.802  0.00  0.00    +0.002 A 
ATOM     22  C   UNL     1       9.184   4.520  23.836  0.00  0.00    +0.024 A 
ATOM     23  C   UNL     1       8.702   3.216  24.002  0.00  0.00    +0.044 A 
ATOM     24  N   UNL     1       8.814   2.187  22.997  0.00  0.00    -0.269 N 
ATOM     25  C   UNL     1       9.994   1.972  22.221  0.00  0.00    +0.116 C 
ATOM     26  C   UNL     1       8.040   2.928  25.217  0.00  0.00    +0.007 A 
ATOM     27  C   UNL     1       7.677   1.637  25.530  0.00  0.00    +0.056 A 
ATOM     28  C   UNL     1       4.499  -2.248  28.075  0.00  0.00    +0.007 A 
ATOM     29  C   UNL     1       9.168  -4.343  24.963  0.00  0.00    +0.135 A 
ATOM     30  C   UNL     1       7.895   1.106  22.837  0.00  0.00    +0.237 C 
ATOM     31  O   UNL     1       6.678   1.168  22.950  0.00  0.00    -0.274 OA
ATOM     32  C   UNL     1       9.864   0.530  21.697  0.00  0.00    +0.047 C 
ENDROOT
BRANCH  13  33
ATOM     33  C   UNL     1       3.147   1.098  27.059  0.00  0.00    +0.103 C 
ATOM     34  N   UNL     1       2.525   2.071  26.985  0.00  0.00    -0.191 NA
ENDBRANCH  13  33
TORSDOF 1
ENDMDL
MODEL 3
REMARK VINA RESULT:      -7.4      2.405      5.445
REMARK  Name = 
REMARK  1 active torsions:
REMARK  status: ('A' for Active; 'I' for Inactive)
REMARK    1  A    between atoms: C_14  and  C_27
REMARK                            x       y       z     vdW  Elec       q    Type
REMARK                         _______ _______ _______ _____ _____    ______ ____
ROOT
ATOM      1  C   UNL     1       4.966  -0.286  27.882  0.00  0.00    +0.143 C 
ATOM      2  N   UNL     1       5.487  -1.648  27.380  0.00  0.00    -0.300 NA
ATOM      3  H   UNL     1       5.059  -2.374  27.953  0.00  0.00    +0.123 HD
ATOM      4  C   UNL     1       5.727  -2.219  26.010  0.00  0.00    +0.136 C 
ATOM      5  C   UNL     1       6.603  -3.564  25.980  0.00  0.00    +0.052 A 
ATOM      6  N   UNL     1       7.913  -3.904  25.496  0.00  0.00    -0.328 N 
ATOM      7  C   UNL     1       8.234  -5.123  26.077  0.00  0.00    +0.199 A 
ATOM      8  N   UNL     1       7.162  -5.744  26.495  0.00  0.00    -0.244 NA
ATOM      9  C   UNL     1       8.676  -3.617  24.245  0.00  0.00    +0.158 C 
ATOM     10  C   UNL     1       9.288  -2.257  24.083  0.00  0.00    -0.024 A 
ATOM     11  C   UNL     1       8.764  -1.225  24.815  0.00  0.00    +0.053 A 
ATOM     12  C   UNL     1       8.947   0.070  24.399  0.00  0.00    +0.146 A 
ATOM     13  C   UNL     1       9.988   0.417  23.550  0.00  0.00    +0.094 A 
ATOM     14  C   UNL     1      10.628  -0.608  22.902  0.00  0.00    +0.023 A 
ATOM     15  O   UNL     1       7.999   0.954  24.788  0.00  0.00    -0.455 OA
ATOM     16  C   UNL     1       6.934   1.104  23.904  0.00  0.00    +0.129 A 
ATOM     17  C   UNL     1       7.049   1.828  22.741  0.00  0.00    +0.047 A 
ATOM     18  C   UNL     1       6.059   2.753  22.434  0.00  0.00    +0.012 A 
ATOM     19  C   UNL     1       5.035   3.019  23.358  0.00  0.00    -0.016 A 
ATOM     20  C   UNL     1       4.168   4.095  23.236  0.00  0.00    +0.008 A 
ATOM     21  C   UNL     1       3.211   4.343  24.240  0.00  0.00    +0.002 A 
ATOM     22  C   UNL     1       3.154   3.534  25.397  0.00  0.00    +0.024 A 
ATOM     23  C   UNL     1       4.045   2.468  25.565  0.00  0.00    +0.044 A 
ATOM     24  N   UNL     1       4.145   1.690  26.775  0.00  0.00    -0.269 N 
ATOM     25  C   UNL     1       3.009   1.249  27.520  0.00  0.00    +0.116 C 
ATOM     26  C   UNL     1       4.911   2.182  24.485  0.00  0.00    +0.007 A 
ATOM     27  C   UNL     1       5.706   1.057  24.501  0.00  0.00    +0.056 A 
ATOM     28  C   UNL     1      10.254  -1.943  23.095  0.00  0.00    +0.007 A 
ATOM     29  C   UNL     1       6.153  -4.824  26.376  0.00  0.00    +0.135 A 
ATOM     30  C   UNL     1       5.334   1.043  27.229  0.00  0.00    +0.237 C 
ATOM     31  O   UNL     1       6.471   1.493  27.166  0.00  0.00    -0.274 OA
ATOM     32  C   UNL     1       3.528   0.076  28.374  0.00  0.00    +0.047 C 
ENDROOT
BRANCH  13  33
ATOM     33  C   UNL     1      10.323   1.795  23.367  0.00  0.00    +0.103 C 
ATOM     34  N   UNL     1      10.591   2.914  23.244  0.00  0.00    -0.191 NA
ENDBRANCH  13  33
TORSDOF 1
ENDMDL
MODEL 4
REMARK VINA RESULT:      -7.3      1.640      6.190
REMARK  Name = 
REMARK  1 active torsions:
REMARK  status: ('A' for Active; 'I' for Inactive)
REMARK    1  A    between atoms: C_14  and  C_27
REMARK                            x       y       z     vdW  Elec       q    Type
REMARK                         _______ _______ _______ _____ _____    ______ ____
ROOT
ATOM      1  C   UNL     1       4.026   0.048  27.338  0.00  0.00    +0.143 C 
ATOM      2  N   UNL     1       5.115   1.044  26.890  0.00  0.00    -0.300 NA
ATOM      3  H   UNL     1       4.903   1.946  27.313  0.00  0.00    +0.123 HD
ATOM      4  C   UNL     1       6.608   0.941  26.739  0.00  0.00    +0.136 C 
ATOM      5  C   UNL     1       7.289   2.137  25.912  0.00  0.00    +0.052 A 
ATOM      6  N   UNL     1       7.952   2.234  24.640  0.00  0.00    -0.328 N 
ATOM      7  C   UNL     1       7.999   3.587  24.333  0.00  0.00    +0.199 A 
ATOM      8  N   UNL     1       7.840   4.321  25.404  0.00  0.00    -0.244 NA
ATOM      9  C   UNL     1       8.986   1.422  23.932  0.00  0.00    +0.158 C 
ATOM     10  C   UNL     1       8.559   0.139  23.282  0.00  0.00    -0.024 A 
ATOM     11  C   UNL     1       7.412  -0.458  23.733  0.00  0.00    +0.053 A 
ATOM     12  C   UNL     1       7.215  -1.801  23.525  0.00  0.00    +0.146 A 
ATOM     13  C   UNL     1       7.880  -2.483  22.517  0.00  0.00    +0.094 A 
ATOM     14  C   UNL     1       8.955  -1.853  21.946  0.00  0.00    +0.023 A 
ATOM     15  O   UNL     1       6.415  -2.424  24.423  0.00  0.00    -0.455 OA
ATOM     16  C   UNL     1       7.072  -2.964  25.524  0.00  0.00    +0.129 A 
ATOM     17  C   UNL     1       7.792  -4.131  25.442  0.00  0.00    +0.047 A 
ATOM     18  C   UNL     1       7.592  -5.105  26.414  0.00  0.00    +0.012 A 
ATOM     19  C   UNL     1       6.587  -4.936  27.380  0.00  0.00    -0.016 A 
ATOM     20  C   UNL     1       6.162  -5.959  28.215  0.00  0.00    +0.008 A 
ATOM     21  C   UNL     1       5.098  -5.738  29.111  0.00  0.00    +0.002 A 
ATOM     22  C   UNL     1       4.424  -4.497  29.139  0.00  0.00    +0.024 A 
ATOM     23  C   UNL     1       4.806  -3.462  28.278  0.00  0.00    +0.044 A 
ATOM     24  N   UNL     1       4.080  -2.222  28.144  0.00  0.00    -0.269 N 
ATOM     25  C   UNL     1       3.544  -1.503  29.256  0.00  0.00    +0.116 C 
ATOM     26  C   UNL     1       5.949  -3.683  27.477  0.00  0.00    +0.007 A 
ATOM     27  C   UNL     1       6.486  -2.664  26.722  0.00  0.00    +0.056 A 
ATOM     28  C   UNL     1       9.358  -0.576  22.356  0.00  0.00    +0.007 A 
ATOM     29  C   UNL     1       7.473   3.437  26.385  0.00  0.00    +0.135 A 
ATOM     30  C   UNL     1       4.036  -1.430  26.957  0.00  0.00    +0.237 C 
ATOM     31  O   UNL     1       3.960  -1.851  25.810  0.00  0.00    -0.274 OA
ATOM     32  C   UNL     1       3.339  -0.067  28.735  0.00  0.00    +0.047 C 
ENDROOT
BRANCH  13  33
ATOM     33  C   UNL     1       7.446  -3.793  22.145  0.00  0.00    +0.103 C 
ATOM     34  N   UNL     1       7.082  -4.856  21.864  0.00  0.00    -0.191 NA
ENDBRANCH  13  33
TORSDOF 1
ENDMDL
MODEL 5
REMARK VINA RESULT:      -7.2      1.961      5.308
REMARK  Name = 
REMARK  1 active torsions:
REMARK  status: ('A' for Active; 'I' for Inactive)
REMARK    1  A    between atoms: C_14  and  C_27
REMARK                            x       y       z     vdW  Elec       q    Type
REMARK                         _______ _______ _______ _____ _____    ______ ____
ROOT
ATOM      1  C   UNL     1       8.533  -1.387  22.922  0.00  0.00    +0.143 C 
ATOM      2  N   UNL     1       8.289  -2.459  24.004  0.00  0.00    -0.300 NA
ATOM      3  H   UNL     1       8.823  -3.287  23.745  0.00  0.00    +0.123 HD
ATOM      4  C   UNL     1       8.206  -2.411  25.504  0.00  0.00    +0.136 C 
ATOM      5  C   UNL     1       7.594  -3.725  26.192  0.00  0.00    +0.052 A 
ATOM      6  N   UNL     1       6.386  -4.017  26.916  0.00  0.00    -0.328 N 
ATOM      7  C   UNL     1       6.275  -5.400  26.939  0.00  0.00    +0.199 A 
ATOM      8  N   UNL     1       7.429  -5.971  26.706  0.00  0.00    -0.244 NA
ATOM      9  C   UNL     1       5.627  -3.335  28.007  0.00  0.00    +0.158 C 
ATOM     10  C   UNL     1       4.781  -2.150  27.649  0.00  0.00    -0.024 A 
ATOM     11  C   UNL     1       5.080  -1.470  26.498  0.00  0.00    +0.053 A 
ATOM     12  C   UNL     1       4.676  -0.167  26.350  0.00  0.00    +0.146 A 
ATOM     13  C   UNL     1       3.619   0.351  27.084  0.00  0.00    +0.094 A 
ATOM     14  C   UNL     1       3.201  -0.376  28.169  0.00  0.00    +0.023 A 
ATOM     15  O   UNL     1       5.431   0.594  25.524  0.00  0.00    -0.455 OA
ATOM     16  C   UNL     1       6.480   1.271  26.140  0.00  0.00    +0.129 A 
ATOM     17  C   UNL     1       6.273   2.400  26.896  0.00  0.00    +0.047 A 
ATOM     18  C   UNL     1       7.086   3.506  26.675  0.00  0.00    +0.012 A 
ATOM     19  C   UNL     1       8.011   3.497  25.618  0.00  0.00    -0.016 A 
ATOM     20  C   UNL     1       8.669   4.638  25.181  0.00  0.00    +0.008 A 
ATOM     21  C   UNL     1       9.529   4.569  24.067  0.00  0.00    +0.002 A 
ATOM     22  C   UNL     1       9.694   3.358  23.357  0.00  0.00    +0.024 A 
ATOM     23  C   UNL     1       9.010   2.203  23.752  0.00  0.00    +0.044 A 
ATOM     24  N   UNL     1       9.013   0.973  22.999  0.00  0.00    -0.269 N 
ATOM     25  C   UNL     1      10.185   0.430  22.388  0.00  0.00    +0.116 C 
ATOM     26  C   UNL     1       8.249   2.284  24.941  0.00  0.00    +0.007 A 
ATOM     27  C   UNL     1       7.675   1.157  25.486  0.00  0.00    +0.056 A 
ATOM     28  C   UNL     1       3.808  -1.590  28.514  0.00  0.00    +0.007 A 
ATOM     29  C   UNL     1       8.254  -4.949  26.316  0.00  0.00    +0.135 A 
ATOM     30  C   UNL     1       7.948   0.021  22.993  0.00  0.00    +0.237 C 
ATOM     31  O   UNL     1       6.751   0.276  22.987  0.00  0.00    -0.274 OA
ATOM     32  C   UNL     1       9.861  -1.060  22.169  0.00  0.00    +0.047 C 
ENDROOT
BRANCH  13  33
ATOM     33  C   UNL     1       3.042   1.604  26.707  0.00  0.00    +0.103 C 
ATOM     34  N   UNL     1       2.597   2.624  26.390  0.00  0.00    -0.191 NA
ENDBRANCH  13  33
TORSDOF 1
ENDMDL
MODEL 6
REMARK VINA RESULT:      -7.2      2.589      7.314
REMARK  Name = 
REMARK  1 active torsions:
REMARK  status: ('A' for Active; 'I' for Inactive)
REMARK    1  A    between atoms: C_14  and  C_27
REMARK                            x       y       z     vdW  Elec       q    Type
REMARK                         _______ _______ _______ _____ _____    ______ ____
ROOT
ATOM      1  C   UNL     1       7.444  -4.765  23.089  0.00  0.00    +0.143 C 
ATOM      2  N   UNL     1       7.941  -3.306  23.136  0.00  0.00    -0.300 NA
ATOM      3  H   UNL     1       8.698  -3.215  22.461  0.00  0.00    +0.123 HD
ATOM      4  C   UNL     1       7.240  -1.980  23.229  0.00  0.00    +0.136 C 
ATOM      5  C   UNL     1       8.186  -0.736  23.594  0.00  0.00    +0.052 A 
ATOM      6  N   UNL     1       8.314   0.135  24.731  0.00  0.00    -0.328 N 
ATOM      7  C   UNL     1       9.537   0.775  24.590  0.00  0.00    +0.199 A 
ATOM      8  N   UNL     1       9.957   0.726  23.352  0.00  0.00    -0.244 NA
ATOM      9  C   UNL     1       7.350   0.870  25.603  0.00  0.00    +0.158 C 
ATOM     10  C   UNL     1       6.604   0.095  26.648  0.00  0.00    -0.024 A 
ATOM     11  C   UNL     1       6.474  -1.257  26.475  0.00  0.00    +0.053 A 
ATOM     12  C   UNL     1       5.460  -1.932  27.108  0.00  0.00    +0.146 A 
ATOM     13  C   UNL     1       4.848  -1.420  28.242  0.00  0.00    +0.094 A 
ATOM     14  C   UNL     1       5.069  -0.097  28.524  0.00  0.00    +0.023 A 
ATOM     15  O   UNL     1       5.039  -3.066  26.501  0.00  0.00    -0.455 OA
ATOM     16  C   UNL     1       3.997  -2.897  25.593  0.00  0.00    +0.129 A 
ATOM     17  C   UNL     1       2.700  -2.703  26.001  0.00  0.00    +0.047 A 
ATOM     18  C   UNL     1       1.695  -3.453  25.401  0.00  0.00    +0.012 A 
ATOM     19  C   UNL     1       2.026  -4.467  24.489  0.00  0.00    -0.016 A 
ATOM     20  C   UNL     1       1.113  -5.413  24.047  0.00  0.00    +0.008 A 
ATOM     21  C   UNL     1       1.533  -6.448  23.187  0.00  0.00    +0.002 A 
ATOM     22  C   UNL     1       2.888  -6.561  22.804  0.00  0.00    +0.024 A 
ATOM     23  C   UNL     1       3.838  -5.644  23.270  0.00  0.00    +0.044 A 
ATOM     24  N   UNL     1       5.256  -5.775  23.043  0.00  0.00    -0.269 N 
ATOM     25  C   UNL     1       5.817  -6.176  21.791  0.00  0.00    +0.116 C 
ATOM     26  C   UNL     1       3.357  -4.557  24.035  0.00  0.00    +0.007 A 
ATOM     27  C   UNL     1       4.197  -3.527  24.396  0.00  0.00    +0.056 A 
ATOM     28  C   UNL     1       5.883   0.699  27.708  0.00  0.00    +0.007 A 
ATOM     29  C   UNL     1       9.099  -0.139  22.725  0.00  0.00    +0.135 A 
ATOM     30  C   UNL     1       6.269  -5.277  23.918  0.00  0.00    +0.237 C 
ATOM     31  O   UNL     1       6.241  -5.299  25.141  0.00  0.00    -0.274 OA
ATOM     32  C   UNL     1       7.278  -5.689  21.840  0.00  0.00    +0.047 C 
ENDROOT
BRANCH  13  33
ATOM     33  C   UNL     1       4.009  -2.264  29.035  0.00  0.00    +0.103 C 
ATOM     34  N   UNL     1       3.340  -2.966  29.666  0.00  0.00    -0.191 NA
ENDBRANCH  13  33
TORSDOF 1
ENDMDL
MODEL 7
REMARK VINA RESULT:      -7.0      2.113      5.498
REMARK  Name = 
REMARK  1 active torsions:
REMARK  status: ('A' for Active; 'I' for Inactive)
REMARK    1  A    between atoms: C_14  and  C_27
REMARK                            x       y       z     vdW  Elec       q    Type
REMARK                         _______ _______ _______ _____ _____    ______ ____
ROOT
ATOM      1  C   UNL     1       9.453  -0.633  24.868  0.00  0.00    +0.143 C 
ATOM      2  N   UNL     1       8.839   0.698  25.348  0.00  0.00    -0.300 NA
ATOM      3  H   UNL     1       9.493   1.443  25.112  0.00  0.00    +0.123 HD
ATOM      4  C   UNL     1       7.449   1.269  25.304  0.00  0.00    +0.136 C 
ATOM      5  C   UNL     1       7.213   2.553  26.236  0.00  0.00    +0.052 A 
ATOM      6  N   UNL     1       6.440   2.813  27.420  0.00  0.00    -0.328 N 
ATOM      7  C   UNL     1       6.927   4.002  27.945  0.00  0.00    +0.199 A 
ATOM      8  N   UNL     1       7.578   4.687  27.041  0.00  0.00    -0.244 NA
ATOM      9  C   UNL     1       5.047   2.491  27.854  0.00  0.00    +0.158 C 
ATOM     10  C   UNL     1       4.753   1.097  28.320  0.00  0.00    -0.024 A 
ATOM     11  C   UNL     1       5.591   0.093  27.912  0.00  0.00    +0.053 A 
ATOM     12  C   UNL     1       5.147  -1.207  27.909  0.00  0.00    +0.146 A 
ATOM     13  C   UNL     1       4.083  -1.610  28.702  0.00  0.00    +0.094 A 
ATOM     14  C   UNL     1       3.301  -0.622  29.242  0.00  0.00    +0.023 A 
ATOM     15  O   UNL     1       5.747  -2.032  27.019  0.00  0.00    -0.455 OA
ATOM     16  C   UNL     1       5.133  -2.101  25.772  0.00  0.00    +0.129 A 
ATOM     17  C   UNL     1       3.978  -2.817  25.569  0.00  0.00    +0.047 A 
ATOM     18  C   UNL     1       3.910  -3.673  24.476  0.00  0.00    +0.012 A 
ATOM     19  C   UNL     1       5.046  -3.882  23.677  0.00  0.00    -0.016 A 
ATOM     20  C   UNL     1       5.130  -4.898  22.735  0.00  0.00    +0.008 A 
ATOM     21  C   UNL     1       6.328  -5.095  22.021  0.00  0.00    +0.002 A 
ATOM     22  C   UNL     1       7.465  -4.298  22.285  0.00  0.00    +0.024 A 
ATOM     23  C   UNL     1       7.419  -3.294  23.259  0.00  0.00    +0.044 A 
ATOM     24  N   UNL     1       8.571  -2.539  23.685  0.00  0.00    -0.269 N 
ATOM     25  C   UNL     1       9.557  -2.033  22.783  0.00  0.00    +0.116 C 
ATOM     26  C   UNL     1       6.168  -3.052  23.870  0.00  0.00    +0.007 A 
ATOM     27  C   UNL     1       5.997  -1.982  24.720  0.00  0.00    +0.056 A 
ATOM     28  C   UNL     1       3.571   0.733  29.011  0.00  0.00    +0.007 A 
ATOM     29  C   UNL     1       7.698   3.836  25.974  0.00  0.00    +0.135 A 
ATOM     30  C   UNL     1       8.737  -1.976  24.987  0.00  0.00    +0.237 C 
ATOM     31  O   UNL     1       8.415  -2.497  26.047  0.00  0.00    -0.274 OA
ATOM     32  C   UNL     1      10.263  -0.907  23.561  0.00  0.00    +0.047 C 
ENDROOT
BRANCH  13  33
ATOM     33  C   UNL     1       3.833  -3.005  28.893  0.00  0.00    +0.103 C 
ATOM     34  N   UNL     1       3.648  -4.139  29.032  0.00  0.00    -0.191 NA
ENDBRANCH  13  33
TORSDOF 1
ENDMDL
MODEL 8
REMARK VINA RESULT:      -7.0      2.548      6.613
REMARK  Name = 
REMARK  1 active torsions:
REMARK  status: ('A' for Active; 'I' for Inactive)
REMARK    1  A    between atoms: C_14  and  C_27
REMARK                            x       y       z     vdW  Elec       q    Type
REMARK                         _______ _______ _______ _____ _____    ______ ____
ROOT
ATOM      1  C   UNL     1       5.267   0.034  26.850  0.00  0.00    +0.143 C 
ATOM      2  N   UNL     1       6.509  -0.112  25.948  0.00  0.00    -0.300 NA
ATOM      3  H   UNL     1       7.055   0.744  26.033  0.00  0.00    +0.123 HD
ATOM      4  C   UNL     1       7.460  -1.245  25.677  0.00  0.00    +0.136 C 
ATOM      5  C   UNL     1       8.409  -1.042  24.399  0.00  0.00    +0.052 A 
ATOM      6  N   UNL     1       8.519  -1.675  23.113  0.00  0.00    -0.328 N 
ATOM      7  C   UNL     1       9.286  -0.825  22.329  0.00  0.00    +0.199 A 
ATOM      8  N   UNL     1       9.982   0.000  23.068  0.00  0.00    -0.244 NA
ATOM      9  C   UNL     1       8.519  -3.091  22.638  0.00  0.00    +0.158 C 
ATOM     10  C   UNL     1       7.207  -3.813  22.556  0.00  0.00    -0.024 A 
ATOM     11  C   UNL     1       6.170  -3.349  23.321  0.00  0.00    +0.053 A 
ATOM     12  C   UNL     1       5.131  -4.187  23.643  0.00  0.00    +0.146 A 
ATOM     13  C   UNL     1       4.849  -5.314  22.886  0.00  0.00    +0.094 A 
ATOM     14  C   UNL     1       5.815  -5.728  22.005  0.00  0.00    +0.023 A 
ATOM     15  O   UNL     1       4.474  -3.896  24.790  0.00  0.00    -0.455 OA
ATOM     16  C   UNL     1       4.976  -4.517  25.931  0.00  0.00    +0.129 A 
ATOM     17  C   UNL     1       4.740  -5.843  26.201  0.00  0.00    +0.047 A 
ATOM     18  C   UNL     1       4.319  -6.197  27.477  0.00  0.00    +0.012 A 
ATOM     19  C   UNL     1       4.028  -5.200  28.422  0.00  0.00    -0.016 A 
ATOM     20  C   UNL     1       3.370  -5.459  29.616  0.00  0.00    +0.008 A 
ATOM     21  C   UNL     1       3.046  -4.398  30.484  0.00  0.00    +0.002 A 
ATOM     22  C   UNL     1       3.341  -3.062  30.131  0.00  0.00    +0.024 A 
ATOM     23  C   UNL     1       3.967  -2.769  28.914  0.00  0.00    +0.044 A 
ATOM     24  N   UNL     1       4.170  -1.430  28.420  0.00  0.00    -0.269 N 
ATOM     25  C   UNL     1       4.602  -0.346  29.244  0.00  0.00    +0.116 C 
ATOM     26  C   UNL     1       4.379  -3.868  28.125  0.00  0.00    +0.007 A 
ATOM     27  C   UNL     1       5.141  -3.674  26.994  0.00  0.00    +0.056 A 
ATOM     28  C   UNL     1       7.027  -5.040  21.872  0.00  0.00    +0.007 A 
ATOM     29  C   UNL     1       9.500  -0.174  24.339  0.00  0.00    +0.135 A 
ATOM     30  C   UNL     1       4.234  -1.074  27.038  0.00  0.00    +0.237 C 
ATOM     31  O   UNL     1       3.539  -1.533  26.141  0.00  0.00    -0.274 OA
ATOM     32  C   UNL     1       5.170   0.696  28.261  0.00  0.00    +0.047 C 
ENDROOT
BRANCH  13  33
ATOM     33  C   UNL     1       3.607  -5.997  23.070  0.00  0.00    +0.103 C 
ATOM     34  N   UNL     1       2.591  -6.536  23.203  0.00  0.00    -0.191 NA
ENDBRANCH  13  33
TORSDOF 1
ENDMDL
MODEL 9
REMARK VINA RESULT:      -7.0      2.008      6.255
REMARK  Name = 
REMARK  1 active torsions:
REMARK  status: ('A' for Active; 'I' for Inactive)
REMARK    1  A    between atoms: C_14  and  C_27
REMARK                            x       y       z     vdW  Elec       q    Type
REMARK                         _______ _______ _______ _____ _____    ______ ____
ROOT
ATOM      1  C   UNL     1       4.477   0.039  26.956  0.00  0.00    +0.143 C 
ATOM      2  N   UNL     1       5.165   1.414  27.088  0.00  0.00    -0.300 NA
ATOM      3  H   UNL     1       4.621   1.969  27.746  0.00  0.00    +0.123 HD
ATOM      4  C   UNL     1       6.602   1.842  27.193  0.00  0.00    +0.136 C 
ATOM      5  C   UNL     1       6.860   3.410  26.969  0.00  0.00    +0.052 A 
ATOM      6  N   UNL     1       7.517   4.190  25.955  0.00  0.00    -0.328 N 
ATOM      7  C   UNL     1       7.097   5.499  26.143  0.00  0.00    +0.199 A 
ATOM      8  N   UNL     1       6.626   5.675  27.351  0.00  0.00    -0.244 NA
ATOM      9  C   UNL     1       8.811   4.075  25.218  0.00  0.00    +0.158 C 
ATOM     10  C   UNL     1       8.906   3.078  24.102  0.00  0.00    -0.024 A 
ATOM     11  C   UNL     1       8.023   2.032  24.097  0.00  0.00    +0.053 A 
ATOM     12  C   UNL     1       8.328   0.883  23.410  0.00  0.00    +0.146 A 
ATOM     13  C   UNL     1       9.250   0.883  22.373  0.00  0.00    +0.094 A 
ATOM     14  C   UNL     1      10.061   1.983  22.264  0.00  0.00    +0.023 A 
ATOM     15  O   UNL     1       7.752  -0.251  23.873  0.00  0.00    -0.455 OA
ATOM     16  C   UNL     1       8.494  -0.943  24.826  0.00  0.00    +0.129 A 
ATOM     17  C   UNL     1       9.585  -1.706  24.486  0.00  0.00    +0.047 A 
ATOM     18  C   UNL     1       9.689  -2.988  25.011  0.00  0.00    +0.012 A 
ATOM     19  C   UNL     1       8.636  -3.523  25.770  0.00  0.00    -0.016 A 
ATOM     20  C   UNL     1       8.556  -4.867  26.109  0.00  0.00    +0.008 A 
ATOM     21  C   UNL     1       7.432  -5.348  26.810  0.00  0.00    +0.002 A 
ATOM     22  C   UNL     1       6.360  -4.486  27.134  0.00  0.00    +0.024 A 
ATOM     23  C   UNL     1       6.398  -3.136  26.767  0.00  0.00    +0.044 A 
ATOM     24  N   UNL     1       5.288  -2.230  26.932  0.00  0.00    -0.269 N 
ATOM     25  C   UNL     1       4.468  -2.198  28.101  0.00  0.00    +0.116 C 
ATOM     26  C   UNL     1       7.590  -2.667  26.168  0.00  0.00    +0.007 A 
ATOM     27  C   UNL     1       7.772  -1.325  25.922  0.00  0.00    +0.056 A 
ATOM     28  C   UNL     1       9.959   3.059  23.154  0.00  0.00    +0.007 A 
ATOM     29  C   UNL     1       6.542   4.415  27.883  0.00  0.00    +0.135 A 
ATOM     30  C   UNL     1       5.033  -1.096  26.101  0.00  0.00    +0.237 C 
ATOM     31  O   UNL     1       5.179  -1.043  24.887  0.00  0.00    -0.274 OA
ATOM     32  C   UNL     1       3.796  -0.811  28.074  0.00  0.00    +0.047 C 
ENDROOT
BRANCH  13  33
ATOM     33  C   UNL     1       9.333  -0.246  21.500  0.00  0.00    +0.103 C 
ATOM     34  N   UNL     1       9.394  -1.175  20.813  0.00  0.00    -0.191 NA
ENDBRANCH  13  33
TORSDOF 1
ENDMDL
