MODEL 1
REMARK VINA RESULT:      -6.8      0.000      0.000
REMARK  Name = 
REMARK  6 active torsions:
REMARK  status: ('A' for Active; 'I' for Inactive)
REMARK    1  A    between atoms: C_1  and  C_2
REMARK    2  A    between atoms: C_2  and  C_3
REMARK    3  A    between atoms: C_2  and  C_4
REMARK    4  A    between atoms: C_7  and  O_8
REMARK    5  A    between atoms: O_8  and  C_9
REMARK    6  A    between atoms: C_9  and  C_10
REMARK                            x       y       z     vdW  Elec       q    Type
REMARK                         _______ _______ _______ _____ _____    ______ ____
ROOT
ATOM      1  C   UNL     1       4.610  -4.979  24.617  0.00  0.00    +0.112 A 
ATOM      2  N   UNL     1       5.430  -5.560  25.558  0.00  0.00    -0.326 N 
ATOM      3  H   UNL     1       5.143  -6.051  26.392  0.00  0.00    +0.169 HD
ATOM      4  C   UNL     1       6.721  -5.299  25.203  0.00  0.00    +0.167 A 
ATOM      5  C   UNL     1       6.637  -4.579  24.028  0.00  0.00    +0.169 A 
ATOM      6  C   UNL     1       7.853  -4.181  23.478  0.00  0.00    +0.248 A 
ATOM      7  N   UNL     1       9.012  -4.489  24.115  0.00  0.00    -0.178 NA
ATOM      8  C   UNL     1       8.939  -5.166  25.277  0.00  0.00    +0.218 A 
ATOM      9  N   UNL     1      10.131  -5.416  25.926  0.00  0.00    -0.327 N 
ATOM     10  H   UNL     1      10.044  -6.211  26.543  0.00  0.00    +0.145 HD
ATOM     11  H   UNL     1      10.904  -5.400  25.278  0.00  0.00    +0.145 HD
ATOM     12  N   UNL     1       7.829  -5.634  25.873  0.00  0.00    -0.195 NA
ATOM     13  N   UNL     1       5.322  -4.403  23.664  0.00  0.00    -0.225 NA
ENDROOT
BRANCH   1  15
ATOM     14  C   UNL     1       2.630  -3.620  25.223  0.00  0.00    +0.015 C 
ATOM     15  C   UNL     1       3.116  -4.982  24.725  0.00  0.00    +0.049 C 
ATOM     16  C   UNL     1       2.475  -5.321  23.380  0.00  0.00    +0.015 C 
ENDBRANCH   1  15
BRANCH   6  17
ATOM     17  O   UNL     1       7.864  -3.363  22.369  0.00  0.00    -0.475 OA
BRANCH  17  18
ATOM     18  C   UNL     1       8.058  -1.983  22.669  0.00  0.00    +0.234 C 
BRANCH  18  19
ATOM     19  C   UNL     1       9.391  -1.543  22.024  0.00  0.00    +0.027 C 
ATOM     20  C   UNL     1      10.521  -1.328  23.048  0.00  0.00    +0.007 C 
ATOM     21  C   UNL     1      10.356  -0.051  23.869  0.00  0.00    +0.000 C 
ATOM     22  C   UNL     1      10.152   1.177  22.988  0.00  0.00    +0.000 C 
ATOM     23  C   UNL     1       9.032   0.982  21.970  0.00  0.00    +0.000 C 
ATOM     24  C   UNL     1       9.223  -0.293  21.151  0.00  0.00    +0.007 C 
ENDBRANCH  18  19
ENDBRANCH  17  18
ENDBRANCH   6  17
TORSDOF 4
ENDMDL
MODEL 2
REMARK VINA RESULT:      -6.8      2.415      3.370
REMARK  Name = 
REMARK  6 active torsions:
REMARK  status: ('A' for Active; 'I' for Inactive)
REMARK    1  A    between atoms: C_1  and  C_2
REMARK    2  A    between atoms: C_2  and  C_3
REMARK    3  A    between atoms: C_2  and  C_4
REMARK    4  A    between atoms: C_7  and  O_8
REMARK    5  A    between atoms: O_8  and  C_9
REMARK    6  A    between atoms: C_9  and  C_10
REMARK                            x       y       z     vdW  Elec       q    Type
REMARK                         _______ _______ _______ _____ _____    ______ ____
ROOT
ATOM      1  C   UNL     1       7.268  -4.584  23.325  0.00  0.00    +0.112 A 
ATOM      2  N   UNL     1       7.546  -4.475  24.668  0.00  0.00    -0.326 N 
ATOM      3  H   UNL     1       7.403  -5.180  25.376  0.00  0.00    +0.169 HD
ATOM      4  C   UNL     1       7.996  -3.208  24.899  0.00  0.00    +0.167 A 
ATOM      5  C   UNL     1       7.997  -2.592  23.663  0.00  0.00    +0.169 A 
ATOM      6  C   UNL     1       8.411  -1.262  23.654  0.00  0.00    +0.248 A 
ATOM      7  N   UNL     1       8.754  -0.657  24.820  0.00  0.00    -0.178 NA
ATOM      8  C   UNL     1       8.669  -1.372  25.958  0.00  0.00    +0.218 A 
ATOM      9  N   UNL     1       8.973  -0.712  27.131  0.00  0.00    -0.327 N 
ATOM     10  H   UNL     1       9.250  -1.366  27.849  0.00  0.00    +0.145 HD
ATOM     11  H   UNL     1       9.572   0.080  26.953  0.00  0.00    +0.145 HD
ATOM     12  N   UNL     1       8.325  -2.667  26.077  0.00  0.00    -0.195 NA
ATOM     13  N   UNL     1       7.561  -3.462  22.691  0.00  0.00    -0.225 NA
ENDROOT
BRANCH   1  15
ATOM     14  C   UNL     1       5.292  -6.078  23.329  0.00  0.00    +0.015 C 
ATOM     15  C   UNL     1       6.667  -5.813  22.714  0.00  0.00    +0.049 C 
ATOM     16  C   UNL     1       6.557  -5.667  21.197  0.00  0.00    +0.015 C 
ENDBRANCH   1  15
BRANCH   6  17
ATOM     17  O   UNL     1       8.337  -0.533  22.487  0.00  0.00    -0.475 OA
BRANCH  17  18
ATOM     18  C   UNL     1       7.601   0.682  22.608  0.00  0.00    +0.234 C 
BRANCH  18  19
ATOM     19  C   UNL     1       8.348   1.767  21.803  0.00  0.00    +0.027 C 
ATOM     20  C   UNL     1       9.877   1.717  21.987  0.00  0.00    +0.007 C 
ATOM     21  C   UNL     1      10.337   2.236  23.348  0.00  0.00    +0.000 C 
ATOM     22  C   UNL     1       9.776   3.621  23.655  0.00  0.00    +0.000 C 
ATOM     23  C   UNL     1       8.262   3.686  23.481  0.00  0.00    +0.000 C 
ATOM     24  C   UNL     1       7.824   3.176  22.110  0.00  0.00    +0.007 C 
ENDBRANCH  18  19
ENDBRANCH  17  18
ENDBRANCH   6  17
TORSDOF 4
ENDMDL
MODEL 3
REMARK VINA RESULT:      -6.5      1.601      6.299
REMARK  Name = 
REMARK  6 active torsions:
REMARK  status: ('A' for Active; 'I' for Inactive)
REMARK    1  A    between atoms: C_1  and  C_2
REMARK    2  A    between atoms: C_2  and  C_3
REMARK    3  A    between atoms: C_2  and  C_4
REMARK    4  A    between atoms: C_7  and  O_8
REMARK    5  A    between atoms: O_8  and  C_9
REMARK    6  A    between atoms: C_9  and  C_10
REMARK                            x       y       z     vdW  Elec       q    Type
REMARK                         _______ _______ _______ _____ _____    ______ ____
ROOT
ATOM      1  C   UNL     1       9.363  -0.866  22.623  0.00  0.00    +0.112 A 
ATOM      2  N   UNL     1      10.152  -1.557  23.514  0.00  0.00    -0.326 N 
ATOM      3  H   UNL     1      11.058  -1.280  23.862  0.00  0.00    +0.169 HD
ATOM      4  C   UNL     1       9.523  -2.733  23.802  0.00  0.00    +0.167 A 
ATOM      5  C   UNL     1       8.345  -2.701  23.083  0.00  0.00    +0.169 A 
ATOM      6  C   UNL     1       7.531  -3.824  23.210  0.00  0.00    +0.248 A 
ATOM      7  N   UNL     1       7.936  -4.862  23.985  0.00  0.00    -0.178 NA
ATOM      8  C   UNL     1       9.130  -4.770  24.601  0.00  0.00    +0.218 A 
ATOM      9  N   UNL     1       9.536  -5.864  25.338  0.00  0.00    -0.327 N 
ATOM     10  H   UNL     1      10.208  -5.593  26.041  0.00  0.00    +0.145 HD
ATOM     11  H   UNL     1       8.742  -6.417  25.627  0.00  0.00    +0.145 HD
ATOM     12  N   UNL     1       9.972  -3.722  24.582  0.00  0.00    -0.195 NA
ATOM     13  N   UNL     1       8.248  -1.528  22.369  0.00  0.00    -0.225 NA
ENDROOT
BRANCH   1  15
ATOM     14  C   UNL     1       8.574   1.094  21.328  0.00  0.00    +0.015 C 
ATOM     15  C   UNL     1       9.775   0.437  22.009  0.00  0.00    +0.049 C 
ATOM     16  C   UNL     1      10.370   1.370  23.063  0.00  0.00    +0.015 C 
ENDBRANCH   1  15
BRANCH   6  17
ATOM     17  O   UNL     1       6.392  -3.931  22.442  0.00  0.00    -0.475 OA
BRANCH  17  18
ATOM     18  C   UNL     1       5.721  -5.182  22.572  0.00  0.00    +0.234 C 
BRANCH  18  19
ATOM     19  C   UNL     1       4.288  -4.898  23.073  0.00  0.00    +0.027 C 
ATOM     20  C   UNL     1       4.249  -4.039  24.350  0.00  0.00    +0.007 C 
ATOM     21  C   UNL     1       4.667  -4.803  25.604  0.00  0.00    +0.000 C 
ATOM     22  C   UNL     1       3.886  -6.102  25.774  0.00  0.00    +0.000 C 
ATOM     23  C   UNL     1       3.918  -6.967  24.518  0.00  0.00    +0.000 C 
ATOM     24  C   UNL     1       3.484  -6.188  23.278  0.00  0.00    +0.007 C 
ENDBRANCH  18  19
ENDBRANCH  17  18
ENDBRANCH   6  17
TORSDOF 4
ENDMDL
MODEL 4
REMARK VINA RESULT:      -6.4      1.973      5.978
REMARK  Name = 
REMARK  6 active torsions:
REMARK  status: ('A' for Active; 'I' for Inactive)
REMARK    1  A    between atoms: C_1  and  C_2
REMARK    2  A    between atoms: C_2  and  C_3
REMARK    3  A    between atoms: C_2  and  C_4
REMARK    4  A    between atoms: C_7  and  O_8
REMARK    5  A    between atoms: O_8  and  C_9
REMARK    6  A    between atoms: C_9  and  C_10
REMARK                            x       y       z     vdW  Elec       q    Type
REMARK                         _______ _______ _______ _____ _____    ______ ____
ROOT
ATOM      1  C   UNL     1       9.491  -0.490  23.054  0.00  0.00    +0.112 A 
ATOM      2  N   UNL     1      10.389  -1.503  23.301  0.00  0.00    -0.326 N 
ATOM      3  H   UNL     1      11.350  -1.549  22.995  0.00  0.00    +0.169 HD
ATOM      4  C   UNL     1       9.733  -2.483  23.987  0.00  0.00    +0.167 A 
ATOM      5  C   UNL     1       8.447  -2.011  24.154  0.00  0.00    +0.169 A 
ATOM      6  C   UNL     1       7.575  -2.865  24.826  0.00  0.00    +0.248 A 
ATOM      7  N   UNL     1       8.013  -4.081  25.242  0.00  0.00    -0.178 NA
ATOM      8  C   UNL     1       9.288  -4.424  24.976  0.00  0.00    +0.218 A 
ATOM      9  N   UNL     1       9.685  -5.687  25.365  0.00  0.00    -0.327 N 
ATOM     10  H   UNL     1      10.688  -5.728  25.480  0.00  0.00    +0.145 HD
ATOM     11  H   UNL     1       9.106  -6.031  26.116  0.00  0.00    +0.145 HD
ATOM     12  N   UNL     1      10.222  -3.666  24.376  0.00  0.00    -0.195 NA
ATOM     13  N   UNL     1       8.313  -0.764  23.587  0.00  0.00    -0.225 NA
ENDROOT
BRANCH   1  15
ATOM     14  C   UNL     1       8.613   1.161  21.428  0.00  0.00    +0.015 C 
ATOM     15  C   UNL     1       9.832   0.721  22.241  0.00  0.00    +0.049 C 
ATOM     16  C   UNL     1      10.316   1.859  23.139  0.00  0.00    +0.015 C 
ENDBRANCH   1  15
BRANCH   6  17
ATOM     17  O   UNL     1       6.244  -2.528  24.940  0.00  0.00    -0.475 OA
BRANCH  17  18
ATOM     18  C   UNL     1       5.365  -3.649  24.994  0.00  0.00    +0.234 C 
BRANCH  18  19
ATOM     19  C   UNL     1       4.545  -3.669  23.685  0.00  0.00    +0.027 C 
ATOM     20  C   UNL     1       3.790  -4.992  23.460  0.00  0.00    +0.007 C 
ATOM     21  C   UNL     1       4.704  -6.145  23.049  0.00  0.00    +0.000 C 
ATOM     22  C   UNL     1       5.582  -5.786  21.855  0.00  0.00    +0.000 C 
ATOM     23  C   UNL     1       6.340  -4.479  22.064  0.00  0.00    +0.000 C 
ATOM     24  C   UNL     1       5.408  -3.336  22.461  0.00  0.00    +0.007 C 
ENDBRANCH  18  19
ENDBRANCH  17  18
ENDBRANCH   6  17
TORSDOF 4
ENDMDL
MODEL 5
REMARK VINA RESULT:      -6.4      2.306      2.693
REMARK  Name = 
REMARK  6 active torsions:
REMARK  status: ('A' for Active; 'I' for Inactive)
REMARK    1  A    between atoms: C_1  and  C_2
REMARK    2  A    between atoms: C_2  and  C_3
REMARK    3  A    between atoms: C_2  and  C_4
REMARK    4  A    between atoms: C_7  and  O_8
REMARK    5  A    between atoms: O_8  and  C_9
REMARK    6  A    between atoms: C_9  and  C_10
REMARK                            x       y       z     vdW  Elec       q    Type
REMARK                         _______ _______ _______ _____ _____    ______ ____
ROOT
ATOM      1  C   UNL     1       5.503  -3.038  27.079  0.00  0.00    +0.112 A 
ATOM      2  N   UNL     1       6.258  -4.138  27.416  0.00  0.00    -0.326 N 
ATOM      3  H   UNL     1       6.089  -4.780  28.176  0.00  0.00    +0.169 HD
ATOM      4  C   UNL     1       7.332  -4.179  26.575  0.00  0.00    +0.167 A 
ATOM      5  C   UNL     1       7.173  -3.099  25.730  0.00  0.00    +0.169 A 
ATOM      6  C   UNL     1       8.177  -2.925  24.780  0.00  0.00    +0.248 A 
ATOM      7  N   UNL     1       9.231  -3.781  24.752  0.00  0.00    -0.178 NA
ATOM      8  C   UNL     1       9.272  -4.771  25.665  0.00  0.00    +0.218 A 
ATOM      9  N   UNL     1      10.383  -5.589  25.644  0.00  0.00    -0.327 N 
ATOM     10  H   UNL     1      10.177  -6.484  26.065  0.00  0.00    +0.145 HD
ATOM     11  H   UNL     1      10.818  -5.581  24.733  0.00  0.00    +0.145 HD
ATOM     12  N   UNL     1       8.343  -5.054  26.594  0.00  0.00    -0.195 NA
ATOM     13  N   UNL     1       6.024  -2.409  26.041  0.00  0.00    -0.225 NA
ENDROOT
BRANCH   1  15
ATOM     14  C   UNL     1       4.112  -3.516  29.073  0.00  0.00    +0.015 C 
ATOM     15  C   UNL     1       4.286  -2.619  27.847  0.00  0.00    +0.049 C 
ATOM     16  C   UNL     1       4.387  -1.153  28.265  0.00  0.00    +0.015 C 
ENDBRANCH   1  15
BRANCH   6  17
ATOM     17  O   UNL     1       8.163  -1.812  23.969  0.00  0.00    -0.475 OA
BRANCH  17  18
ATOM     18  C   UNL     1       8.739  -0.653  24.566  0.00  0.00    +0.234 C 
BRANCH  18  19
ATOM     19  C   UNL     1      10.145  -0.459  23.956  0.00  0.00    +0.027 C 
ATOM     20  C   UNL     1      10.804   0.874  24.358  0.00  0.00    +0.007 C 
ATOM     21  C   UNL     1      10.197   2.084  23.651  0.00  0.00    +0.000 C 
ATOM     22  C   UNL     1      10.159   1.907  22.137  0.00  0.00    +0.000 C 
ATOM     23  C   UNL     1       9.505   0.593  21.722  0.00  0.00    +0.000 C 
ATOM     24  C   UNL     1      10.135  -0.605  22.428  0.00  0.00    +0.007 C 
ENDBRANCH  18  19
ENDBRANCH  17  18
ENDBRANCH   6  17
TORSDOF 4
ENDMDL
MODEL 6
REMARK VINA RESULT:      -6.4      2.100      2.945
REMARK  Name = 
REMARK  6 active torsions:
REMARK  status: ('A' for Active; 'I' for Inactive)
REMARK    1  A    between atoms: C_1  and  C_2
REMARK    2  A    between atoms: C_2  and  C_3
REMARK    3  A    between atoms: C_2  and  C_4
REMARK    4  A    between atoms: C_7  and  O_8
REMARK    5  A    between atoms: O_8  and  C_9
REMARK    6  A    between atoms: C_9  and  C_10
REMARK                            x       y       z     vdW  Elec       q    Type
REMARK                         _______ _______ _______ _____ _____    ______ ____
ROOT
ATOM      1  C   UNL     1       6.220  -5.007  27.219  0.00  0.00    +0.112 A 
ATOM      2  N   UNL     1       5.747  -5.682  26.117  0.00  0.00    -0.326 N 
ATOM      3  H   UNL     1       5.070  -6.430  26.109  0.00  0.00    +0.169 HD
ATOM      4  C   UNL     1       6.409  -5.207  25.022  0.00  0.00    +0.167 A 
ATOM      5  C   UNL     1       7.254  -4.228  25.505  0.00  0.00    +0.169 A 
ATOM      6  C   UNL     1       8.056  -3.602  24.553  0.00  0.00    +0.248 A 
ATOM      7  N   UNL     1       7.984  -3.990  23.254  0.00  0.00    -0.178 NA
ATOM      8  C   UNL     1       7.137  -4.988  22.933  0.00  0.00    +0.218 A 
ATOM      9  N   UNL     1       7.127  -5.394  21.614  0.00  0.00    -0.327 N 
ATOM     10  H   UNL     1       6.251  -5.841  21.383  0.00  0.00    +0.145 HD
ATOM     11  H   UNL     1       7.459  -4.659  21.009  0.00  0.00    +0.145 HD
ATOM     12  N   UNL     1       6.291  -5.628  23.758  0.00  0.00    -0.195 NA
ATOM     13  N   UNL     1       7.115  -4.100  26.868  0.00  0.00    -0.225 NA
ENDROOT
BRANCH   1  15
ATOM     14  C   UNL     1       4.650  -4.390  29.034  0.00  0.00    +0.015 C 
ATOM     15  C   UNL     1       5.787  -5.325  28.618  0.00  0.00    +0.049 C 
ATOM     16  C   UNL     1       5.350  -6.784  28.732  0.00  0.00    +0.015 C 
ENDBRANCH   1  15
BRANCH   6  17
ATOM     17  O   UNL     1       9.010  -2.694  24.956  0.00  0.00    -0.475 OA
BRANCH  17  18
ATOM     18  C   UNL     1       8.855  -1.398  24.384  0.00  0.00    +0.234 C 
BRANCH  18  19
ATOM     19  C   UNL     1      10.206  -0.999  23.748  0.00  0.00    +0.027 C 
ATOM     20  C   UNL     1      10.687   0.402  24.170  0.00  0.00    +0.007 C 
ATOM     21  C   UNL     1       9.903   1.533  23.508  0.00  0.00    +0.000 C 
ATOM     22  C   UNL     1       9.852   1.386  21.991  0.00  0.00    +0.000 C 
ATOM     23  C   UNL     1       9.373   0.005  21.557  0.00  0.00    +0.000 C 
ATOM     24  C   UNL     1      10.179  -1.111  22.218  0.00  0.00    +0.007 C 
ENDBRANCH  18  19
ENDBRANCH  17  18
ENDBRANCH   6  17
TORSDOF 4
ENDMDL
MODEL 7
REMARK VINA RESULT:      -6.4      5.950      9.494
REMARK  Name = 
REMARK  6 active torsions:
REMARK  status: ('A' for Active; 'I' for Inactive)
REMARK    1  A    between atoms: C_1  and  C_2
REMARK    2  A    between atoms: C_2  and  C_3
REMARK    3  A    between atoms: C_2  and  C_4
REMARK    4  A    between atoms: C_7  and  O_8
REMARK    5  A    between atoms: O_8  and  C_9
REMARK    6  A    between atoms: C_9  and  C_10
REMARK                            x       y       z     vdW  Elec       q    Type
REMARK                         _______ _______ _______ _____ _____    ______ ____
ROOT
ATOM      1  C   UNL     1      10.771   5.189  23.641  0.00  0.00    +0.112 A 
ATOM      2  N   UNL     1       9.872   6.128  23.190  0.00  0.00    -0.326 N 
ATOM      3  H   UNL     1      10.047   7.110  23.035  0.00  0.00    +0.169 HD
ATOM      4  C   UNL     1       8.663   5.512  23.048  0.00  0.00    +0.167 A 
ATOM      5  C   UNL     1       8.882   4.195  23.400  0.00  0.00    +0.169 A 
ATOM      6  C   UNL     1       7.765   3.364  23.346  0.00  0.00    +0.248 A 
ATOM      7  N   UNL     1       6.561   3.879  22.988  0.00  0.00    -0.178 NA
ATOM      8  C   UNL     1       6.489   5.194  22.706  0.00  0.00    +0.218 A 
ATOM      9  N   UNL     1       5.241   5.696  22.398  0.00  0.00    -0.327 N 
ATOM     10  H   UNL     1       5.319   6.543  21.853  0.00  0.00    +0.145 HD
ATOM     11  H   UNL     1       4.634   4.966  22.058  0.00  0.00    +0.145 HD
ATOM     12  N   UNL     1       7.505   6.075  22.685  0.00  0.00    -0.195 NA
ATOM     13  N   UNL     1      10.199   4.003  23.748  0.00  0.00    -0.225 NA
ENDROOT
BRANCH   1  15
ATOM     14  C   UNL     1      13.019   5.683  22.724  0.00  0.00    +0.015 C 
ATOM     15  C   UNL     1      12.188   5.522  23.997  0.00  0.00    +0.049 C 
ATOM     16  C   UNL     1      12.250   6.793  24.843  0.00  0.00    +0.015 C 
ENDBRANCH   1  15
BRANCH   6  17
ATOM     17  O   UNL     1       7.863   2.063  23.788  0.00  0.00    -0.475 OA
BRANCH  17  18
ATOM     18  C   UNL     1       7.859   1.094  22.742  0.00  0.00    +0.234 C 
BRANCH  18  19
ATOM     19  C   UNL     1       9.329   0.745  22.419  0.00  0.00    +0.027 C 
ATOM     20  C   UNL     1       9.473  -0.425  21.427  0.00  0.00    +0.007 C 
ATOM     21  C   UNL     1       9.158  -1.784  22.048  0.00  0.00    +0.000 C 
ATOM     22  C   UNL     1       9.950  -2.029  23.329  0.00  0.00    +0.000 C 
ATOM     23  C   UNL     1       9.814  -0.881  24.324  0.00  0.00    +0.000 C 
ATOM     24  C   UNL     1      10.147   0.467  23.688  0.00  0.00    +0.007 C 
ENDBRANCH  18  19
ENDBRANCH  17  18
ENDBRANCH   6  17
TORSDOF 4
ENDMDL
MODEL 8
REMARK VINA RESULT:      -6.0      4.047      7.774
REMARK  Name = 
REMARK  6 active torsions:
REMARK  status: ('A' for Active; 'I' for Inactive)
REMARK    1  A    between atoms: C_1  and  C_2
REMARK    2  A    between atoms: C_2  and  C_3
REMARK    3  A    between atoms: C_2  and  C_4
REMARK    4  A    between atoms: C_7  and  O_8
REMARK    5  A    between atoms: O_8  and  C_9
REMARK    6  A    between atoms: C_9  and  C_10
REMARK                            x       y       z     vdW  Elec       q    Type
REMARK                         _______ _______ _______ _____ _____    ______ ____
ROOT
ATOM      1  C   UNL     1       9.464   3.879  23.909  0.00  0.00    +0.112 A 
ATOM      2  N   UNL     1       9.941   3.335  22.738  0.00  0.00    -0.326 N 
ATOM      3  H   UNL     1      10.336   3.834  21.955  0.00  0.00    +0.169 HD
ATOM      4  C   UNL     1       9.726   1.988  22.787  0.00  0.00    +0.167 A 
ATOM      5  C   UNL     1       9.140   1.758  24.016  0.00  0.00    +0.169 A 
ATOM      6  C   UNL     1       8.810   0.432  24.286  0.00  0.00    +0.248 A 
ATOM      7  N   UNL     1       9.050  -0.524  23.352  0.00  0.00    -0.178 NA
ATOM      8  C   UNL     1       9.595  -0.146  22.179  0.00  0.00    +0.218 A 
ATOM      9  N   UNL     1       9.777  -1.133  21.232  0.00  0.00    -0.327 N 
ATOM     10  H   UNL     1      10.499  -0.872  20.576  0.00  0.00    +0.145 HD
ATOM     11  H   UNL     1       9.835  -2.042  21.666  0.00  0.00    +0.145 HD
ATOM     12  N   UNL     1       9.990   1.090  21.831  0.00  0.00    -0.195 NA
ATOM     13  N   UNL     1       8.999   2.937  24.711  0.00  0.00    -0.225 NA
ENDROOT
BRANCH   1  15
ATOM     14  C   UNL     1      10.863   5.920  24.040  0.00  0.00    +0.015 C 
ATOM     15  C   UNL     1       9.449   5.353  24.176  0.00  0.00    +0.049 C 
ATOM     16  C   UNL     1       8.491   6.067  23.224  0.00  0.00    +0.015 C 
ENDBRANCH   1  15
BRANCH   6  17
ATOM     17  O   UNL     1       8.119   0.122  25.437  0.00  0.00    -0.475 OA
BRANCH  17  18
ATOM     18  C   UNL     1       7.054  -0.804  25.242  0.00  0.00    +0.234 C 
BRANCH  18  19
ATOM     19  C   UNL     1       7.153  -1.876  26.350  0.00  0.00    +0.027 C 
ATOM     20  C   UNL     1       8.470  -2.673  26.309  0.00  0.00    +0.007 C 
ATOM     21  C   UNL     1       8.531  -3.679  25.161  0.00  0.00    +0.000 C 
ATOM     22  C   UNL     1       7.314  -4.598  25.136  0.00  0.00    +0.000 C 
ATOM     23  C   UNL     1       6.000  -3.823  25.172  0.00  0.00    +0.000 C 
ATOM     24  C   UNL     1       5.954  -2.834  26.335  0.00  0.00    +0.007 C 
ENDBRANCH  18  19
ENDBRANCH  17  18
ENDBRANCH   6  17
TORSDOF 4
ENDMDL
MODEL 9
REMARK VINA RESULT:      -5.9      2.584      3.764
REMARK  Name = 
REMARK  6 active torsions:
REMARK  status: ('A' for Active; 'I' for Inactive)
REMARK    1  A    between atoms: C_1  and  C_2
REMARK    2  A    between atoms: C_2  and  C_3
REMARK    3  A    between atoms: C_2  and  C_4
REMARK    4  A    between atoms: C_7  and  O_8
REMARK    5  A    between atoms: O_8  and  C_9
REMARK    6  A    between atoms: C_9  and  C_10
REMARK                            x       y       z     vdW  Elec       q    Type
REMARK                         _______ _______ _______ _____ _____    ______ ____
ROOT
ATOM      1  C   UNL     1       6.185  -4.400  23.852  0.00  0.00    +0.112 A 
ATOM      2  N   UNL     1       5.056  -3.751  24.297  0.00  0.00    -0.326 N 
ATOM      3  H   UNL     1       4.098  -4.043  24.167  0.00  0.00    +0.169 HD
ATOM      4  C   UNL     1       5.451  -2.591  24.897  0.00  0.00    +0.167 A 
ATOM      5  C   UNL     1       6.829  -2.590  24.814  0.00  0.00    +0.169 A 
ATOM      6  C   UNL     1       7.463  -1.475  25.356  0.00  0.00    +0.248 A 
ATOM      7  N   UNL     1       6.720  -0.474  25.894  0.00  0.00    -0.178 NA
ATOM      8  C   UNL     1       5.378  -0.595  25.873  0.00  0.00    +0.218 A 
ATOM      9  N   UNL     1       4.651   0.463  26.379  0.00  0.00    -0.327 N 
ATOM     10  H   UNL     1       3.733   0.160  26.672  0.00  0.00    +0.145 HD
ATOM     11  H   UNL     1       5.204   1.001  27.030  0.00  0.00    +0.145 HD
ATOM     12  N   UNL     1       4.667  -1.640  25.416  0.00  0.00    -0.195 NA
ATOM     13  N   UNL     1       7.274  -3.727  24.180  0.00  0.00    -0.225 NA
ENDROOT
BRANCH   1  15
ATOM     14  C   UNL     1       4.697  -5.965  22.638  0.00  0.00    +0.015 C 
ATOM     15  C   UNL     1       6.137  -5.671  23.062  0.00  0.00    +0.049 C 
ATOM     16  C   UNL     1       7.048  -5.586  21.838  0.00  0.00    +0.015 C 
ENDBRANCH   1  15
BRANCH   6  17
ATOM     17  O   UNL     1       8.827  -1.332  25.219  0.00  0.00    -0.475 OA
BRANCH  17  18
ATOM     18  C   UNL     1       9.276   0.020  25.263  0.00  0.00    +0.234 C 
BRANCH  18  19
ATOM     19  C   UNL     1      10.515   0.135  24.348  0.00  0.00    +0.027 C 
ATOM     20  C   UNL     1      10.932   1.591  24.068  0.00  0.00    +0.007 C 
ATOM     21  C   UNL     1       9.997   2.310  23.098  0.00  0.00    +0.000 C 
ATOM     22  C   UNL     1       9.791   1.524  21.807  0.00  0.00    +0.000 C 
ATOM     23  C   UNL     1       9.374   0.080  22.067  0.00  0.00    +0.000 C 
ATOM     24  C   UNL     1      10.328  -0.625  23.028  0.00  0.00    +0.007 C 
ENDBRANCH  18  19
ENDBRANCH  17  18
ENDBRANCH   6  17
TORSDOF 4
ENDMDL
