MODEL 1
REMARK VINA RESULT:      -4.1      0.000      0.000
REMARK  Name = 
REMARK  3 active torsions:
REMARK  status: ('A' for Active; 'I' for Inactive)
REMARK    1  A    between atoms: N_4  and  C_5
REMARK    2  A    between atoms: C_5  and  C_6
REMARK    3  A    between atoms: C_6  and  O_7
REMARK                            x       y       z     vdW  Elec       q    Type
REMARK                         _______ _______ _______ _____ _____    ______ ____
ROOT
ATOM      1  N   UNL     1      10.482   2.616  21.992  0.00  0.00    -0.289 N 
ATOM      2  H   UNL     1      11.426   2.629  22.358  0.00  0.00    +0.255 HD
ATOM      3  H   UNL     1      10.435   3.097  21.101  0.00  0.00    +0.255 HD
ATOM      4  C   UNL     1       9.880   1.416  22.039  0.00  0.00    +0.377 C 
ATOM      5  N   UNL     1      10.284   0.665  23.081  0.00  0.00    -0.266 N 
ATOM      6  H   UNL     1      10.648   1.203  23.858  0.00  0.00    +0.258 HD
ATOM      7  N   UNL     1       9.023   1.005  21.173  0.00  0.00    -0.130 NA
ATOM      8  H   UNL     1       8.864   1.752  20.487  0.00  0.00    +0.306 HD
ENDROOT
BRANCH   5   9
ATOM      9  C   UNL     1       9.533  -0.508  23.534  0.00  0.00    +0.316 C 
BRANCH   9  10
ATOM     10  C   UNL     1      10.080  -1.830  23.004  0.00  0.00    +0.339 C 
ATOM     11  O   UNL     1      10.215  -2.828  23.702  0.00  0.00    -0.247 OA
BRANCH  10  12
ATOM     12  O   UNL     1      10.346  -1.843  21.678  0.00  0.00    -0.478 OA
ATOM     13  H   UNL     1       9.887  -2.612  21.238  0.00  0.00    +0.295 HD
ENDBRANCH  10  12
ENDBRANCH   9  10
ENDBRANCH   5   9
TORSDOF 3
ENDMDL
MODEL 2
REMARK VINA RESULT:      -3.8      4.971      6.042
REMARK  Name = 
REMARK  3 active torsions:
REMARK  status: ('A' for Active; 'I' for Inactive)
REMARK    1  A    between atoms: N_4  and  C_5
REMARK    2  A    between atoms: C_5  and  C_6
REMARK    3  A    between atoms: C_6  and  O_7
REMARK                            x       y       z     vdW  Elec       q    Type
REMARK                         _______ _______ _______ _____ _____    ______ ____
ROOT
ATOM      1  N   UNL     1       8.253  -5.699  26.915  0.00  0.00    -0.289 N 
ATOM      2  H   UNL     1       7.257  -5.869  26.986  0.00  0.00    +0.255 HD
ATOM      3  H   UNL     1       8.775  -6.398  27.431  0.00  0.00    +0.255 HD
ATOM      4  C   UNL     1       8.690  -5.446  25.671  0.00  0.00    +0.377 C 
ATOM      5  N   UNL     1       7.772  -4.822  24.907  0.00  0.00    -0.266 N 
ATOM      6  H   UNL     1       7.083  -4.301  25.436  0.00  0.00    +0.258 HD
ATOM      7  N   UNL     1       9.852  -5.779  25.233  0.00  0.00    -0.130 NA
ATOM      8  H   UNL     1      10.375  -6.223  25.996  0.00  0.00    +0.306 HD
ENDROOT
BRANCH   5   9
ATOM      9  C   UNL     1       8.129  -4.143  23.658  0.00  0.00    +0.316 C 
BRANCH   9  10
ATOM     10  C   UNL     1       8.882  -2.833  23.866  0.00  0.00    +0.339 C 
ATOM     11  O   UNL     1       8.323  -1.771  24.118  0.00  0.00    -0.247 OA
BRANCH  10  12
ATOM     12  O   UNL     1      10.229  -2.938  23.819  0.00  0.00    -0.478 OA
ATOM     13  H   UNL     1      10.557  -2.810  22.886  0.00  0.00    +0.295 HD
ENDBRANCH  10  12
ENDBRANCH   9  10
ENDBRANCH   5   9
TORSDOF 3
ENDMDL
MODEL 3
REMARK VINA RESULT:      -3.8      7.084      8.035
REMARK  Name = 
REMARK  3 active torsions:
REMARK  status: ('A' for Active; 'I' for Inactive)
REMARK    1  A    between atoms: N_4  and  C_5
REMARK    2  A    between atoms: C_5  and  C_6
REMARK    3  A    between atoms: C_6  and  O_7
REMARK                            x       y       z     vdW  Elec       q    Type
REMARK                         _______ _______ _______ _____ _____    ______ ____
ROOT
ATOM      1  N   UNL     1       6.502  -7.121  28.879  0.00  0.00    -0.289 N 
ATOM      2  H   UNL     1       7.330  -7.690  29.006  0.00  0.00    +0.255 HD
ATOM      3  H   UNL     1       5.972  -7.059  29.741  0.00  0.00    +0.255 HD
ATOM      4  C   UNL     1       6.714  -5.958  28.242  0.00  0.00    +0.377 C 
ATOM      5  N   UNL     1       7.716  -6.026  27.343  0.00  0.00    -0.266 N 
ATOM      6  H   UNL     1       7.893  -6.962  26.996  0.00  0.00    +0.258 HD
ATOM      7  N   UNL     1       6.055  -4.879  28.471  0.00  0.00    -0.130 NA
ATOM      8  H   UNL     1       5.339  -5.076  29.179  0.00  0.00    +0.306 HD
ENDROOT
BRANCH   5   9
ATOM      9  C   UNL     1       7.897  -5.014  26.300  0.00  0.00    +0.316 C 
BRANCH   9  10
ATOM     10  C   UNL     1       9.007  -5.346  25.309  0.00  0.00    +0.339 C 
ATOM     11  O   UNL     1       8.842  -5.354  24.094  0.00  0.00    -0.247 OA
BRANCH  10  12
ATOM     12  O   UNL     1      10.219  -5.570  25.867  0.00  0.00    -0.478 OA
ATOM     13  H   UNL     1      10.947  -5.299  25.241  0.00  0.00    +0.295 HD
ENDBRANCH  10  12
ENDBRANCH   9  10
ENDBRANCH   5   9
TORSDOF 3
ENDMDL
MODEL 4
REMARK VINA RESULT:      -3.6      5.862      6.523
REMARK  Name = 
REMARK  3 active torsions:
REMARK  status: ('A' for Active; 'I' for Inactive)
REMARK    1  A    between atoms: N_4  and  C_5
REMARK    2  A    between atoms: C_5  and  C_6
REMARK    3  A    between atoms: C_6  and  O_7
REMARK                            x       y       z     vdW  Elec       q    Type
REMARK                         _______ _______ _______ _____ _____    ______ ____
ROOT
ATOM      1  N   UNL     1       8.270  -5.708  26.899  0.00  0.00    -0.289 N 
ATOM      2  H   UNL     1       7.303  -5.996  26.982  0.00  0.00    +0.255 HD
ATOM      3  H   UNL     1       8.875  -6.320  27.436  0.00  0.00    +0.255 HD
ATOM      4  C   UNL     1       8.671  -5.448  25.644  0.00  0.00    +0.377 C 
ATOM      5  N   UNL     1       7.683  -4.968  24.865  0.00  0.00    -0.266 N 
ATOM      6  H   UNL     1       6.936  -4.517  25.380  0.00  0.00    +0.258 HD
ATOM      7  N   UNL     1       9.864  -5.652  25.211  0.00  0.00    -0.130 NA
ATOM      8  H   UNL     1      10.439  -6.002  25.985  0.00  0.00    +0.306 HD
ENDROOT
BRANCH   5   9
ATOM      9  C   UNL     1       7.951  -4.295  23.591  0.00  0.00    +0.316 C 
BRANCH   9  10
ATOM     10  C   UNL     1       7.235  -4.927  22.401  0.00  0.00    +0.339 C 
ATOM     11  O   UNL     1       7.424  -6.084  22.042  0.00  0.00    -0.247 OA
BRANCH  10  12
ATOM     12  O   UNL     1       6.318  -4.133  21.803  0.00  0.00    -0.478 OA
ATOM     13  H   UNL     1       5.408  -4.312  22.172  0.00  0.00    +0.295 HD
ENDBRANCH  10  12
ENDBRANCH   9  10
ENDBRANCH   5   9
TORSDOF 3
ENDMDL
MODEL 5
REMARK VINA RESULT:      -3.6      1.855      2.382
REMARK  Name = 
REMARK  3 active torsions:
REMARK  status: ('A' for Active; 'I' for Inactive)
REMARK    1  A    between atoms: N_4  and  C_5
REMARK    2  A    between atoms: C_5  and  C_6
REMARK    3  A    between atoms: C_6  and  O_7
REMARK                            x       y       z     vdW  Elec       q    Type
REMARK                         _______ _______ _______ _____ _____    ______ ____
ROOT
ATOM      1  N   UNL     1       8.806   1.354  21.011  0.00  0.00    -0.289 N 
ATOM      2  H   UNL     1       9.104   2.320  21.065  0.00  0.00    +0.255 HD
ATOM      3  H   UNL     1       8.596   1.095  20.053  0.00  0.00    +0.255 HD
ATOM      4  C   UNL     1       9.577   0.490  21.692  0.00  0.00    +0.377 C 
ATOM      5  N   UNL     1      10.135   1.037  22.789  0.00  0.00    -0.266 N 
ATOM      6  H   UNL     1       9.624   1.831  23.157  0.00  0.00    +0.258 HD
ATOM      7  N   UNL     1       9.790  -0.725  21.332  0.00  0.00    -0.130 NA
ATOM      8  H   UNL     1       9.249  -0.916  20.481  0.00  0.00    +0.306 HD
ENDROOT
BRANCH   5   9
ATOM      9  C   UNL     1      10.716   0.219  23.857  0.00  0.00    +0.316 C 
BRANCH   9  10
ATOM     10  C   UNL     1       9.679  -0.402  24.787  0.00  0.00    +0.339 C 
ATOM     11  O   UNL     1       8.951  -1.331  24.455  0.00  0.00    -0.247 OA
BRANCH  10  12
ATOM     12  O   UNL     1       9.663   0.105  26.041  0.00  0.00    -0.478 OA
ATOM     13  H   UNL     1       8.740   0.078  26.417  0.00  0.00    +0.295 HD
ENDBRANCH  10  12
ENDBRANCH   9  10
ENDBRANCH   5   9
TORSDOF 3
ENDMDL
MODEL 6
REMARK VINA RESULT:      -3.6      2.896      3.722
REMARK  Name = 
REMARK  3 active torsions:
REMARK  status: ('A' for Active; 'I' for Inactive)
REMARK    1  A    between atoms: N_4  and  C_5
REMARK    2  A    between atoms: C_5  and  C_6
REMARK    3  A    between atoms: C_6  and  O_7
REMARK                            x       y       z     vdW  Elec       q    Type
REMARK                         _______ _______ _______ _____ _____    ______ ____
ROOT
ATOM      1  N   UNL     1       8.165  -2.190  22.405  0.00  0.00    -0.289 N 
ATOM      2  H   UNL     1       7.278  -1.793  22.690  0.00  0.00    +0.255 HD
ATOM      3  H   UNL     1       8.044  -2.807  21.610  0.00  0.00    +0.255 HD
ATOM      4  C   UNL     1       9.169  -1.303  22.306  0.00  0.00    +0.377 C 
ATOM      5  N   UNL     1       9.056  -0.282  23.177  0.00  0.00    -0.266 N 
ATOM      6  H   UNL     1       8.506  -0.502  23.999  0.00  0.00    +0.258 HD
ATOM      7  N   UNL     1      10.131  -1.394  21.458  0.00  0.00    -0.130 NA
ATOM      8  H   UNL     1      10.012  -2.259  20.918  0.00  0.00    +0.306 HD
ENDROOT
BRANCH   5   9
ATOM      9  C   UNL     1      10.183   0.600  23.495  0.00  0.00    +0.316 C 
BRANCH   9  10
ATOM     10  C   UNL     1      10.104   1.964  22.817  0.00  0.00    +0.339 C 
ATOM     11  O   UNL     1      10.188   3.023  23.430  0.00  0.00    -0.247 OA
BRANCH  10  12
ATOM     12  O   UNL     1       9.999   1.924  21.470  0.00  0.00    -0.478 OA
ATOM     13  H   UNL     1       9.304   1.265  21.193  0.00  0.00    +0.295 HD
ENDBRANCH  10  12
ENDBRANCH   9  10
ENDBRANCH   5   9
TORSDOF 3
ENDMDL
MODEL 7
REMARK VINA RESULT:      -3.5      1.339      1.730
REMARK  Name = 
REMARK  3 active torsions:
REMARK  status: ('A' for Active; 'I' for Inactive)
REMARK    1  A    between atoms: N_4  and  C_5
REMARK    2  A    between atoms: C_5  and  C_6
REMARK    3  A    between atoms: C_6  and  O_7
REMARK                            x       y       z     vdW  Elec       q    Type
REMARK                         _______ _______ _______ _____ _____    ______ ____
ROOT
ATOM      1  N   UNL     1       6.742   1.184  22.320  0.00  0.00    -0.289 N 
ATOM      2  H   UNL     1       6.396   1.246  23.270  0.00  0.00    +0.255 HD
ATOM      3  H   UNL     1       6.282   1.862  21.724  0.00  0.00    +0.255 HD
ATOM      4  C   UNL     1       8.080   1.127  22.214  0.00  0.00    +0.377 C 
ATOM      5  N   UNL     1       8.665   0.514  23.261  0.00  0.00    -0.266 N 
ATOM      6  H   UNL     1       8.057  -0.132  23.751  0.00  0.00    +0.258 HD
ATOM      7  N   UNL     1       8.747   1.622  21.233  0.00  0.00    -0.130 NA
ATOM      8  H   UNL     1       8.088   2.020  20.555  0.00  0.00    +0.306 HD
ENDROOT
BRANCH   5   9
ATOM      9  C   UNL     1      10.047   0.029  23.208  0.00  0.00    +0.316 C 
BRANCH   9  10
ATOM     10  C   UNL     1      10.170  -1.422  22.754  0.00  0.00    +0.339 C 
ATOM     11  O   UNL     1      10.203  -2.368  23.533  0.00  0.00    -0.247 OA
BRANCH  10  12
ATOM     12  O   UNL     1      10.174  -1.600  21.413  0.00  0.00    -0.478 OA
ATOM     13  H   UNL     1       9.524  -2.311  21.153  0.00  0.00    +0.295 HD
ENDBRANCH  10  12
ENDBRANCH   9  10
ENDBRANCH   5   9
TORSDOF 3
ENDMDL
MODEL 8
REMARK VINA RESULT:      -3.4      1.872      2.226
REMARK  Name = 
REMARK  3 active torsions:
REMARK  status: ('A' for Active; 'I' for Inactive)
REMARK    1  A    between atoms: N_4  and  C_5
REMARK    2  A    between atoms: C_5  and  C_6
REMARK    3  A    between atoms: C_6  and  O_7
REMARK                            x       y       z     vdW  Elec       q    Type
REMARK                         _______ _______ _______ _____ _____    ______ ____
ROOT
ATOM      1  N   UNL     1      10.104   2.209  21.575  0.00  0.00    -0.289 N 
ATOM      2  H   UNL     1       9.354   2.431  20.934  0.00  0.00    +0.255 HD
ATOM      3  H   UNL     1      10.320   3.003  22.166  0.00  0.00    +0.255 HD
ATOM      4  C   UNL     1       9.969   1.032  22.209  0.00  0.00    +0.377 C 
ATOM      5  N   UNL     1       9.322   0.109  21.471  0.00  0.00    -0.266 N 
ATOM      6  H   UNL     1       9.378   0.269  20.473  0.00  0.00    +0.258 HD
ATOM      7  N   UNL     1      10.387   0.804  23.403  0.00  0.00    -0.130 NA
ATOM      8  H   UNL     1      10.858   1.645  23.753  0.00  0.00    +0.306 HD
ENDROOT
BRANCH   5   9
ATOM      9  C   UNL     1       9.364  -1.319  21.799  0.00  0.00    +0.316 C 
BRANCH   9  10
ATOM     10  C   UNL     1       8.078  -1.841  22.432  0.00  0.00    +0.339 C 
ATOM     11  O   UNL     1       7.290  -1.123  23.038  0.00  0.00    -0.247 OA
BRANCH  10  12
ATOM     12  O   UNL     1       7.831  -3.153  22.219  0.00  0.00    -0.478 OA
ATOM     13  H   UNL     1       8.618  -3.704  22.487  0.00  0.00    +0.295 HD
ENDBRANCH  10  12
ENDBRANCH   9  10
ENDBRANCH   5   9
TORSDOF 3
ENDMDL
MODEL 9
REMARK VINA RESULT:      -3.4      2.672      3.691
REMARK  Name = 
REMARK  3 active torsions:
REMARK  status: ('A' for Active; 'I' for Inactive)
REMARK    1  A    between atoms: N_4  and  C_5
REMARK    2  A    between atoms: C_5  and  C_6
REMARK    3  A    between atoms: C_6  and  O_7
REMARK                            x       y       z     vdW  Elec       q    Type
REMARK                         _______ _______ _______ _____ _____    ______ ____
ROOT
ATOM      1  N   UNL     1       8.602   0.193  26.422  0.00  0.00    -0.289 N 
ATOM      2  H   UNL     1       7.981   0.991  26.473  0.00  0.00    +0.255 HD
ATOM      3  H   UNL     1       8.125  -0.654  26.710  0.00  0.00    +0.255 HD
ATOM      4  C   UNL     1       9.308   0.105  25.282  0.00  0.00    +0.377 C 
ATOM      5  N   UNL     1       9.595   1.308  24.748  0.00  0.00    -0.266 N 
ATOM      6  H   UNL     1       9.602   2.065  25.421  0.00  0.00    +0.258 HD
ATOM      7  N   UNL     1       9.658  -1.004  24.735  0.00  0.00    -0.130 NA
ATOM      8  H   UNL     1       9.342  -1.778  25.329  0.00  0.00    +0.306 HD
ENDROOT
BRANCH   5   9
ATOM      9  C   UNL     1      10.629   1.478  23.724  0.00  0.00    +0.316 C 
BRANCH   9  10
ATOM     10  C   UNL     1      10.121   1.282  22.300  0.00  0.00    +0.339 C 
ATOM     11  O   UNL     1       9.929   0.178  21.803  0.00  0.00    -0.247 OA
BRANCH  10  12
ATOM     12  O   UNL     1       9.828   2.424  21.638  0.00  0.00    -0.478 OA
ATOM     13  H   UNL     1      10.462   3.149  21.897  0.00  0.00    +0.295 HD
ENDBRANCH  10  12
ENDBRANCH   9  10
ENDBRANCH   5   9
TORSDOF 3
ENDMDL
