MODEL 1
REMARK VINA RESULT:      -7.4      0.000      0.000
REMARK  Name = 
REMARK  18 active torsions:
REMARK  status: ('A' for Active; 'I' for Inactive)
REMARK    1  A    between atoms: C_1  and  N_2
REMARK    2  A    between atoms: N_2  and  C_3
REMARK    3  A    between atoms: C_5  and  O_7
REMARK    4  A    between atoms: C_8  and  O_10
REMARK    5  A    between atoms: C_11  and  C_13
REMARK    6  A    between atoms: C_13  and  O_14
REMARK    7  A    between atoms: C_16  and  O_18
REMARK    8  A    between atoms: O_18  and  C_19
REMARK    9  A    between atoms: C_21  and  O_23
REMARK   10  A    between atoms: O_23  and  C_24
REMARK   11  A    between atoms: C_26  and  O_28
REMARK   12  A    between atoms: C_29  and  O_31
REMARK   13  A    between atoms: C_32  and  N_34
REMARK   14  A    between atoms: C_38  and  O_40
REMARK   15  A    between atoms: C_41  and  N_43
REMARK   16  A    between atoms: C_48  and  C_50
REMARK   17  A    between atoms: C_51  and  O_52
REMARK   18  A    between atoms: C_51  and  C_53
REMARK                            x       y       z     vdW  Elec       q    Type
REMARK                         _______ _______ _______ _____ _____    ______ ____
ROOT
ATOM      1  O   UNL     1       6.586  -1.425  26.371  0.00  0.00    -0.339 OA
ENDROOT
BRANCH   1   2
ATOM      2  C   UNL     1       6.770  -0.995  24.987  0.00  0.00    +0.192 C 
ATOM      3  C   UNL     1       8.282  -1.066  24.648  0.00  0.00    +0.208 C 
ATOM      4  C   UNL     1       9.085   0.098  25.299  0.00  0.00    +0.193 C 
ATOM      5  C   UNL     1       8.523   1.508  24.955  0.00  0.00    +0.208 C 
ATOM      6  C   UNL     1       7.017   1.562  25.341  0.00  0.00    +0.185 C 
ATOM      7  C   UNL     1       6.237   0.432  24.625  0.00  0.00    +0.179 C 
BRANCH   5   8
ATOM      8  N   UNL     1       8.661   1.888  23.541  0.00  0.00    -0.268 N 
ATOM      9  H   UNL     1       7.834   1.638  22.988  0.00  0.00    +0.258 HD
ATOM     10  C   UNL     1       9.741   2.270  22.838  0.00  0.00    +0.377 C 
ATOM     11  N   UNL     1       9.752   2.319  21.557  0.00  0.00    -0.130 NA
ATOM     12  H   UNL     1       8.808   2.139  21.198  0.00  0.00    +0.306 HD
ATOM     13  N   UNL     1      10.871   2.495  23.524  0.00  0.00    -0.289 N 
ATOM     14  H   UNL     1      11.572   2.891  22.903  0.00  0.00    +0.255 HD
ATOM     15  H   UNL     1      10.748   3.092  24.330  0.00  0.00    +0.255 HD
ENDBRANCH   5   8
BRANCH   3  16
ATOM     16  N   UNL     1       8.479  -1.066  23.195  0.00  0.00    -0.268 N 
ATOM     17  H   UNL     1       8.036  -0.271  22.734  0.00  0.00    +0.258 HD
ATOM     18  C   UNL     1       9.552  -1.524  22.524  0.00  0.00    +0.377 C 
ATOM     19  N   UNL     1      10.473  -2.304  22.952  0.00  0.00    -0.130 NA
ATOM     20  H   UNL     1      10.299  -2.563  23.921  0.00  0.00    +0.306 HD
ATOM     21  N   UNL     1       9.556  -1.118  21.243  0.00  0.00    -0.289 N 
ATOM     22  H   UNL     1      10.464  -1.236  20.808  0.00  0.00    +0.255 HD
ATOM     23  H   UNL     1       9.119  -0.232  21.009  0.00  0.00    +0.255 HD
ENDBRANCH   3  16
BRANCH   4  24
ATOM     24  O   UNL     1       9.087  -0.041  26.734  0.00  0.00    -0.385 OA
ATOM     25  H   UNL     1       8.512   0.650  27.114  0.00  0.00    +0.210 HD
ENDBRANCH   4  24
BRANCH   6  26
ATOM     26  O   UNL     1       6.827   1.540  26.754  0.00  0.00    -0.386 OA
ATOM     27  H   UNL     1       7.008   2.439  27.096  0.00  0.00    +0.210 HD
ENDBRANCH   6  26
BRANCH   7  28
ATOM     28  O   UNL     1       6.296   0.674  23.196  0.00  0.00    -0.386 OA
ATOM     29  H   UNL     1       7.088   0.221  22.841  0.00  0.00    +0.210 HD
ENDBRANCH   7  28
ENDBRANCH   1   2
BRANCH   1  35
ATOM     30  C   UNL     1       6.034  -3.715  27.332  0.00  0.00    +0.218 C 
ATOM     31  C   UNL     1       4.640  -4.242  27.734  0.00  0.00    +0.177 C 
ATOM     32  C   UNL     1       3.773  -2.982  27.840  0.00  0.00    +0.160 C 
ATOM     33  C   UNL     1       2.424  -3.038  27.138  0.00  0.00    +0.041 C 
ATOM     34  O   UNL     1       4.499  -1.930  27.209  0.00  0.00    -0.342 OA
ATOM     35  C   UNL     1       5.608  -2.468  26.503  0.00  0.00    +0.283 C 
BRANCH  31  36
ATOM     36  C   UNL     1       4.679  -4.910  29.100  0.00  0.00    +0.263 C 
ATOM     37  O   UNL     1       5.713  -5.194  29.701  0.00  0.00    -0.298 OA
ENDBRANCH  31  36
BRANCH  31  38
ATOM     38  O   UNL     1       4.127  -5.129  26.733  0.00  0.00    -0.376 OA
ATOM     39  H   UNL     1       3.795  -4.588  25.989  0.00  0.00    +0.211 HD
ENDBRANCH  31  38
BRANCH  30  40
ATOM     40  O   UNL     1       6.772  -4.697  26.560  0.00  0.00    -0.338 OA
BRANCH  40  42
ATOM     41  C   UNL     1       7.603  -4.425  24.233  0.00  0.00    +0.141 C 
ATOM     42  C   UNL     1       6.389  -4.774  25.158  0.00  0.00    +0.271 C 
ATOM     43  O   UNL     1       5.869  -6.059  24.827  0.00  0.00    -0.341 OA
ATOM     44  C   UNL     1       5.340  -6.186  23.493  0.00  0.00    +0.178 C 
ATOM     45  C   UNL     1       6.233  -5.580  22.381  0.00  0.00    +0.176 C 
ATOM     46  C   UNL     1       7.036  -4.326  22.794  0.00  0.00    +0.167 C 
BRANCH  41  48
ATOM     47  C   UNL     1       9.739  -5.122  25.263  0.00  0.00    +0.101 C 
ATOM     48  N   UNL     1       8.763  -5.352  24.216  0.00  0.00    -0.310 NA
ATOM     49  H   UNL     1       8.442  -6.313  24.269  0.00  0.00    +0.122 HD
ENDBRANCH  41  48
BRANCH  45  50
ATOM     50  O   UNL     1       7.151  -6.589  21.914  0.00  0.00    -0.387 OA
ATOM     51  H   UNL     1       7.392  -6.395  20.993  0.00  0.00    +0.210 HD
ENDBRANCH  45  50
BRANCH  46  52
ATOM     52  O   UNL     1       6.237  -3.138  22.700  0.00  0.00    -0.387 OA
ATOM     53  H   UNL     1       6.820  -2.417  22.402  0.00  0.00    +0.210 HD
ENDBRANCH  46  52
BRANCH  44  54
ATOM     54  C   UNL     1       3.852  -5.806  23.358  0.00  0.00    +0.190 C 
BRANCH  54  55
ATOM     55  O   UNL     1       3.646  -4.450  22.994  0.00  0.00    -0.392 OA
ATOM     56  H   UNL     1       3.417  -3.981  23.819  0.00  0.00    +0.210 HD
ENDBRANCH  54  55
ENDBRANCH  44  54
ENDBRANCH  40  42
ENDBRANCH  30  40
ENDBRANCH   1  35
TORSDOF 16
ENDMDL
MODEL 2
REMARK VINA RESULT:      -7.4      2.646      6.640
REMARK  Name = 
REMARK  18 active torsions:
REMARK  status: ('A' for Active; 'I' for Inactive)
REMARK    1  A    between atoms: C_1  and  N_2
REMARK    2  A    between atoms: N_2  and  C_3
REMARK    3  A    between atoms: C_5  and  O_7
REMARK    4  A    between atoms: C_8  and  O_10
REMARK    5  A    between atoms: C_11  and  C_13
REMARK    6  A    between atoms: C_13  and  O_14
REMARK    7  A    between atoms: C_16  and  O_18
REMARK    8  A    between atoms: O_18  and  C_19
REMARK    9  A    between atoms: C_21  and  O_23
REMARK   10  A    between atoms: O_23  and  C_24
REMARK   11  A    between atoms: C_26  and  O_28
REMARK   12  A    between atoms: C_29  and  O_31
REMARK   13  A    between atoms: C_32  and  N_34
REMARK   14  A    between atoms: C_38  and  O_40
REMARK   15  A    between atoms: C_41  and  N_43
REMARK   16  A    between atoms: C_48  and  C_50
REMARK   17  A    between atoms: C_51  and  O_52
REMARK   18  A    between atoms: C_51  and  C_53
REMARK                            x       y       z     vdW  Elec       q    Type
REMARK                         _______ _______ _______ _____ _____    ______ ____
ROOT
ATOM      1  O   UNL     1       7.546  -0.764  26.141  0.00  0.00    -0.339 OA
ENDROOT
BRANCH   1   2
ATOM      2  C   UNL     1       6.576  -1.835  25.934  0.00  0.00    +0.192 C 
ATOM      3  C   UNL     1       7.336  -3.188  25.909  0.00  0.00    +0.208 C 
ATOM      4  C   UNL     1       8.115  -3.399  24.578  0.00  0.00    +0.193 C 
ATOM      5  C   UNL     1       7.225  -3.261  23.309  0.00  0.00    +0.208 C 
ATOM      6  C   UNL     1       6.505  -1.882  23.342  0.00  0.00    +0.185 C 
ATOM      7  C   UNL     1       5.688  -1.732  24.649  0.00  0.00    +0.179 C 
BRANCH   5   8
ATOM      8  N   UNL     1       6.212  -4.318  23.161  0.00  0.00    -0.268 N 
ATOM      9  H   UNL     1       5.317  -4.062  23.593  0.00  0.00    +0.258 HD
ATOM     10  C   UNL     1       6.334  -5.601  22.782  0.00  0.00    +0.377 C 
ATOM     11  N   UNL     1       5.400  -6.464  22.950  0.00  0.00    -0.130 NA
ATOM     12  H   UNL     1       4.556  -5.995  23.294  0.00  0.00    +0.306 HD
ATOM     13  N   UNL     1       7.529  -5.992  22.318  0.00  0.00    -0.289 N 
ATOM     14  H   UNL     1       7.459  -6.940  21.955  0.00  0.00    +0.255 HD
ATOM     15  H   UNL     1       7.913  -5.380  21.610  0.00  0.00    +0.255 HD
ENDBRANCH   5   8
BRANCH   3  16
ATOM     16  N   UNL     1       6.407  -4.300  26.134  0.00  0.00    -0.268 N 
ATOM     17  H   UNL     1       5.632  -4.310  25.470  0.00  0.00    +0.258 HD
ATOM     18  C   UNL     1       6.709  -5.525  26.598  0.00  0.00    +0.377 C 
ATOM     19  N   UNL     1       7.771  -5.895  27.210  0.00  0.00    -0.130 NA
ATOM     20  H   UNL     1       8.411  -5.110  27.318  0.00  0.00    +0.306 HD
ATOM     21  N   UNL     1       5.703  -6.397  26.414  0.00  0.00    -0.289 N 
ATOM     22  H   UNL     1       6.005  -7.358  26.520  0.00  0.00    +0.255 HD
ATOM     23  H   UNL     1       5.081  -6.265  25.622  0.00  0.00    +0.255 HD
ENDBRANCH   3  16
BRANCH   4  24
ATOM     24  O   UNL     1       9.188  -2.443  24.473  0.00  0.00    -0.385 OA
ATOM     25  H   UNL     1       8.819  -1.547  24.578  0.00  0.00    +0.210 HD
ENDBRANCH   4  24
BRANCH   6  26
ATOM     26  O   UNL     1       7.415  -0.802  23.145  0.00  0.00    -0.386 OA
ATOM     27  H   UNL     1       8.129  -0.886  23.810  0.00  0.00    +0.210 HD
ENDBRANCH   6  26
BRANCH   7  28
ATOM     28  O   UNL     1       4.639  -2.733  24.646  0.00  0.00    -0.386 OA
ATOM     29  H   UNL     1       4.368  -2.890  23.718  0.00  0.00    +0.210 HD
ENDBRANCH   7  28
ENDBRANCH   1   2
BRANCH   1  35
ATOM     30  C   UNL     1       6.603   1.582  26.425  0.00  0.00    +0.218 C 
ATOM     31  C   UNL     1       5.677   2.080  27.555  0.00  0.00    +0.177 C 
ATOM     32  C   UNL     1       5.121   0.798  28.184  0.00  0.00    +0.160 C 
ATOM     33  C   UNL     1       5.176   0.721  29.704  0.00  0.00    +0.041 C 
ATOM     34  O   UNL     1       5.928  -0.276  27.709  0.00  0.00    -0.342 OA
ATOM     35  C   UNL     1       7.078   0.240  27.055  0.00  0.00    +0.283 C 
BRANCH  31  36
ATOM     36  C   UNL     1       4.511   2.881  26.996  0.00  0.00    +0.263 C 
ATOM     37  O   UNL     1       4.260   2.991  25.797  0.00  0.00    -0.298 OA
ENDBRANCH  31  36
BRANCH  31  38
ATOM     38  O   UNL     1       6.419   2.838  28.517  0.00  0.00    -0.376 OA
ATOM     39  H   UNL     1       7.289   2.409  28.637  0.00  0.00    +0.211 HD
ENDBRANCH  31  38
BRANCH  30  40
ATOM     40  O   UNL     1       7.683   2.516  26.171  0.00  0.00    -0.338 OA
BRANCH  40  42
ATOM     41  C   UNL     1       9.404   2.201  24.405  0.00  0.00    +0.141 C 
ATOM     42  C   UNL     1       7.975   2.731  24.762  0.00  0.00    +0.271 C 
ATOM     43  O   UNL     1       6.998   2.119  23.924  0.00  0.00    -0.341 OA
ATOM     44  C   UNL     1       7.133   2.394  22.516  0.00  0.00    +0.178 C 
ATOM     45  C   UNL     1       8.575   2.271  21.966  0.00  0.00    +0.176 C 
ATOM     46  C   UNL     1       9.692   2.672  22.957  0.00  0.00    +0.167 C 
BRANCH  41  48
ATOM     47  C   UNL     1      11.043   0.364  24.625  0.00  0.00    +0.101 C 
ATOM     48  N   UNL     1       9.651   0.739  24.480  0.00  0.00    -0.310 NA
ATOM     49  H   UNL     1       9.118   0.335  25.243  0.00  0.00    +0.122 HD
ENDBRANCH  41  48
BRANCH  45  50
ATOM     50  O   UNL     1       8.800   0.913  21.535  0.00  0.00    -0.387 OA
ATOM     51  H   UNL     1       7.952   0.438  21.534  0.00  0.00    +0.210 HD
ENDBRANCH  45  50
BRANCH  46  52
ATOM     52  O   UNL     1       9.895   4.092  22.971  0.00  0.00    -0.387 OA
ATOM     53  H   UNL     1      10.849   4.249  23.085  0.00  0.00    +0.210 HD
ENDBRANCH  46  52
BRANCH  44  54
ATOM     54  C   UNL     1       6.403   3.666  22.042  0.00  0.00    +0.190 C 
BRANCH  54  55
ATOM     55  O   UNL     1       7.279   4.742  21.745  0.00  0.00    -0.392 OA
ATOM     56  H   UNL     1       8.123   4.335  21.471  0.00  0.00    +0.210 HD
ENDBRANCH  54  55
ENDBRANCH  44  54
ENDBRANCH  40  42
ENDBRANCH  30  40
ENDBRANCH   1  35
TORSDOF 16
ENDMDL
MODEL 3
REMARK VINA RESULT:      -7.3      2.744      7.003
REMARK  Name = 
REMARK  18 active torsions:
REMARK  status: ('A' for Active; 'I' for Inactive)
REMARK    1  A    between atoms: C_1  and  N_2
REMARK    2  A    between atoms: N_2  and  C_3
REMARK    3  A    between atoms: C_5  and  O_7
REMARK    4  A    between atoms: C_8  and  O_10
REMARK    5  A    between atoms: C_11  and  C_13
REMARK    6  A    between atoms: C_13  and  O_14
REMARK    7  A    between atoms: C_16  and  O_18
REMARK    8  A    between atoms: O_18  and  C_19
REMARK    9  A    between atoms: C_21  and  O_23
REMARK   10  A    between atoms: O_23  and  C_24
REMARK   11  A    between atoms: C_26  and  O_28
REMARK   12  A    between atoms: C_29  and  O_31
REMARK   13  A    between atoms: C_32  and  N_34
REMARK   14  A    between atoms: C_38  and  O_40
REMARK   15  A    between atoms: C_41  and  N_43
REMARK   16  A    between atoms: C_48  and  C_50
REMARK   17  A    between atoms: C_51  and  O_52
REMARK   18  A    between atoms: C_51  and  C_53
REMARK                            x       y       z     vdW  Elec       q    Type
REMARK                         _______ _______ _______ _____ _____    ______ ____
ROOT
ATOM      1  O   UNL     1       7.215  -0.810  25.454  0.00  0.00    -0.339 OA
ENDROOT
BRANCH   1   2
ATOM      2  C   UNL     1       6.342  -1.922  25.818  0.00  0.00    +0.192 C 
ATOM      3  C   UNL     1       7.195  -3.217  25.877  0.00  0.00    +0.208 C 
ATOM      4  C   UNL     1       7.563  -3.742  24.459  0.00  0.00    +0.193 C 
ATOM      5  C   UNL     1       6.329  -3.955  23.536  0.00  0.00    +0.208 C 
ATOM      6  C   UNL     1       5.514  -2.632  23.465  0.00  0.00    +0.185 C 
ATOM      7  C   UNL     1       5.108  -2.173  24.888  0.00  0.00    +0.179 C 
BRANCH   5   8
ATOM      8  N   UNL     1       5.431  -5.039  23.964  0.00  0.00    -0.268 N 
ATOM      9  H   UNL     1       5.131  -4.933  24.939  0.00  0.00    +0.258 HD
ATOM     10  C   UNL     1       5.147  -6.220  23.389  0.00  0.00    +0.377 C 
ATOM     11  N   UNL     1       4.544  -7.165  24.011  0.00  0.00    -0.130 NA
ATOM     12  H   UNL     1       4.234  -6.830  24.928  0.00  0.00    +0.306 HD
ATOM     13  N   UNL     1       5.624  -6.430  22.154  0.00  0.00    -0.289 N 
ATOM     14  H   UNL     1       5.243  -7.300  21.787  0.00  0.00    +0.255 HD
ATOM     15  H   UNL     1       5.440  -5.674  21.509  0.00  0.00    +0.255 HD
ENDBRANCH   5   8
BRANCH   3  16
ATOM     16  N   UNL     1       6.493  -4.256  26.636  0.00  0.00    -0.268 N 
ATOM     17  H   UNL     1       5.511  -4.344  26.374  0.00  0.00    +0.258 HD
ATOM     18  C   UNL     1       7.011  -5.407  27.101  0.00  0.00    +0.377 C 
ATOM     19  N   UNL     1       8.245  -5.711  27.250  0.00  0.00    -0.130 NA
ATOM     20  H   UNL     1       8.840  -4.937  26.960  0.00  0.00    +0.306 HD
ATOM     21  N   UNL     1       6.056  -6.268  27.492  0.00  0.00    -0.289 N 
ATOM     22  H   UNL     1       6.411  -7.211  27.598  0.00  0.00    +0.255 HD
ATOM     23  H   UNL     1       5.152  -6.239  27.029  0.00  0.00    +0.255 HD
ENDBRANCH   3  16
BRANCH   4  24
ATOM     24  O   UNL     1       8.454  -2.819  23.802  0.00  0.00    -0.385 OA
ATOM     25  H   UNL     1       7.993  -2.434  23.034  0.00  0.00    +0.210 HD
ENDBRANCH   4  24
BRANCH   6  26
ATOM     26  O   UNL     1       6.210  -1.616  22.746  0.00  0.00    -0.386 OA
ATOM     27  H   UNL     1       5.669  -0.800  22.781  0.00  0.00    +0.210 HD
ENDBRANCH   6  26
BRANCH   7  28
ATOM     28  O   UNL     1       4.213  -3.167  25.448  0.00  0.00    -0.386 OA
ATOM     29  H   UNL     1       3.600  -2.714  26.064  0.00  0.00    +0.210 HD
ENDBRANCH   7  28
ENDBRANCH   1   2
BRANCH   1  35
ATOM     30  C   UNL     1       6.234   1.505  25.849  0.00  0.00    +0.218 C 
ATOM     31  C   UNL     1       5.864   2.137  27.208  0.00  0.00    +0.177 C 
ATOM     32  C   UNL     1       5.804   0.949  28.176  0.00  0.00    +0.160 C 
ATOM     33  C   UNL     1       6.544   1.124  29.495  0.00  0.00    +0.041 C 
ATOM     34  O   UNL     1       6.430  -0.149  27.518  0.00  0.00    -0.342 OA
ATOM     35  C   UNL     1       7.095   0.307  26.349  0.00  0.00    +0.283 C 
BRANCH  31  36
ATOM     36  C   UNL     1       4.487   2.780  27.157  0.00  0.00    +0.263 C 
ATOM     37  O   UNL     1       3.780   2.820  26.152  0.00  0.00    -0.298 OA
ENDBRANCH  31  36
BRANCH  31  38
ATOM     38  O   UNL     1       6.866   3.075  27.617  0.00  0.00    -0.376 OA
ATOM     39  H   UNL     1       7.613   3.016  26.989  0.00  0.00    +0.211 HD
ENDBRANCH  31  38
BRANCH  30  40
ATOM     40  O   UNL     1       6.968   2.434  25.012  0.00  0.00    -0.338 OA
BRANCH  40  42
ATOM     41  C   UNL     1       7.748   2.017  22.688  0.00  0.00    +0.141 C 
ATOM     42  C   UNL     1       8.025   1.825  24.217  0.00  0.00    +0.271 C 
ATOM     43  O   UNL     1       9.305   2.351  24.557  0.00  0.00    -0.341 OA
ATOM     44  C   UNL     1      10.425   1.711  23.915  0.00  0.00    +0.178 C 
ATOM     45  C   UNL     1      10.248   1.462  22.397  0.00  0.00    +0.176 C 
ATOM     46  C   UNL     1       8.801   1.155  21.947  0.00  0.00    +0.167 C 
BRANCH  41  48
ATOM     47  C   UNL     1       6.544   4.124  22.220  0.00  0.00    +0.101 C 
ATOM     48  N   UNL     1       7.793   3.393  22.133  0.00  0.00    -0.310 NA
ATOM     49  H   UNL     1       8.522   3.929  22.591  0.00  0.00    +0.122 HD
ENDBRANCH  41  48
BRANCH  45  50
ATOM     50  O   UNL     1      10.727   2.614  21.673  0.00  0.00    -0.387 OA
ATOM     51  H   UNL     1      11.679   2.509  21.509  0.00  0.00    +0.210 HD
ENDBRANCH  45  50
BRANCH  46  52
ATOM     52  O   UNL     1       8.475  -0.228  22.138  0.00  0.00    -0.387 OA
ATOM     53  H   UNL     1       9.024  -0.745  21.521  0.00  0.00    +0.210 HD
ENDBRANCH  46  52
BRANCH  44  54
ATOM     54  C   UNL     1      10.983   0.491  24.675  0.00  0.00    +0.190 C 
BRANCH  54  55
ATOM     55  O   UNL     1      10.170  -0.667  24.558  0.00  0.00    -0.392 OA
ATOM     56  H   UNL     1       9.398  -0.513  25.135  0.00  0.00    +0.210 HD
ENDBRANCH  54  55
ENDBRANCH  44  54
ENDBRANCH  40  42
ENDBRANCH  30  40
ENDBRANCH   1  35
TORSDOF 16
ENDMDL
MODEL 4
REMARK VINA RESULT:      -7.0      1.809      2.932
REMARK  Name = 
REMARK  18 active torsions:
REMARK  status: ('A' for Active; 'I' for Inactive)
REMARK    1  A    between atoms: C_1  and  N_2
REMARK    2  A    between atoms: N_2  and  C_3
REMARK    3  A    between atoms: C_5  and  O_7
REMARK    4  A    between atoms: C_8  and  O_10
REMARK    5  A    between atoms: C_11  and  C_13
REMARK    6  A    between atoms: C_13  and  O_14
REMARK    7  A    between atoms: C_16  and  O_18
REMARK    8  A    between atoms: O_18  and  C_19
REMARK    9  A    between atoms: C_21  and  O_23
REMARK   10  A    between atoms: O_23  and  C_24
REMARK   11  A    between atoms: C_26  and  O_28
REMARK   12  A    between atoms: C_29  and  O_31
REMARK   13  A    between atoms: C_32  and  N_34
REMARK   14  A    between atoms: C_38  and  O_40
REMARK   15  A    between atoms: C_41  and  N_43
REMARK   16  A    between atoms: C_48  and  C_50
REMARK   17  A    between atoms: C_51  and  O_52
REMARK   18  A    between atoms: C_51  and  C_53
REMARK                            x       y       z     vdW  Elec       q    Type
REMARK                         _______ _______ _______ _____ _____    ______ ____
ROOT
ATOM      1  O   UNL     1       6.025  -1.194  25.986  0.00  0.00    -0.339 OA
ENDROOT
BRANCH   1   2
ATOM      2  C   UNL     1       6.426  -0.788  24.642  0.00  0.00    +0.192 C 
ATOM      3  C   UNL     1       7.954  -1.017  24.496  0.00  0.00    +0.208 C 
ATOM      4  C   UNL     1       8.784   0.058  25.257  0.00  0.00    +0.193 C 
ATOM      5  C   UNL     1       8.420   1.518  24.860  0.00  0.00    +0.208 C 
ATOM      6  C   UNL     1       6.891   1.730  25.053  0.00  0.00    +0.185 C 
ATOM      7  C   UNL     1       6.095   0.685  24.231  0.00  0.00    +0.179 C 
BRANCH   5   8
ATOM      8  N   UNL     1       8.775   1.878  23.479  0.00  0.00    -0.268 N 
ATOM      9  H   UNL     1       8.014   1.686  22.819  0.00  0.00    +0.258 HD
ATOM     10  C   UNL     1       9.965   2.177  22.931  0.00  0.00    +0.377 C 
ATOM     11  N   UNL     1      10.152   2.218  21.663  0.00  0.00    -0.130 NA
ATOM     12  H   UNL     1       9.256   2.104  21.179  0.00  0.00    +0.306 HD
ATOM     13  N   UNL     1      11.005   2.323  23.764  0.00  0.00    -0.289 N 
ATOM     14  H   UNL     1      11.811   2.663  23.244  0.00  0.00    +0.255 HD
ATOM     15  H   UNL     1      10.818   2.933  24.548  0.00  0.00    +0.255 HD
ENDBRANCH   5   8
BRANCH   3  16
ATOM     16  N   UNL     1       8.334  -1.041  23.080  0.00  0.00    -0.268 N 
ATOM     17  H   UNL     1       7.999  -0.226  22.566  0.00  0.00    +0.258 HD
ATOM     18  C   UNL     1       9.454  -1.565  22.551  0.00  0.00    +0.377 C 
ATOM     19  N   UNL     1      10.266  -2.393  23.093  0.00  0.00    -0.130 NA
ATOM     20  H   UNL     1       9.956  -2.634  24.032  0.00  0.00    +0.306 HD
ATOM     21  N   UNL     1       9.643  -1.172  21.280  0.00  0.00    -0.289 N 
ATOM     22  H   UNL     1      10.591  -1.345  20.964  0.00  0.00    +0.255 HD
ATOM     23  H   UNL     1       9.293  -0.264  20.992  0.00  0.00    +0.255 HD
ENDBRANCH   3  16
BRANCH   4  24
ATOM     24  O   UNL     1       8.589  -0.077  26.678  0.00  0.00    -0.385 OA
ATOM     25  H   UNL     1       9.448   0.044  27.123  0.00  0.00    +0.210 HD
ENDBRANCH   4  24
BRANCH   6  26
ATOM     26  O   UNL     1       6.522   1.730  26.430  0.00  0.00    -0.386 OA
ATOM     27  H   UNL     1       7.302   2.014  26.950  0.00  0.00    +0.210 HD
ENDBRANCH   6  26
BRANCH   7  28
ATOM     28  O   UNL     1       6.360   0.917  22.824  0.00  0.00    -0.386 OA
ATOM     29  H   UNL     1       5.507   0.885  22.343  0.00  0.00    +0.210 HD
ENDBRANCH   7  28
ENDBRANCH   1   2
BRANCH   1  35
ATOM     30  C   UNL     1       3.811  -2.350  26.472  0.00  0.00    +0.218 C 
ATOM     31  C   UNL     1       2.602  -1.762  27.230  0.00  0.00    +0.177 C 
ATOM     32  C   UNL     1       3.174  -0.549  27.974  0.00  0.00    +0.160 C 
ATOM     33  C   UNL     1       2.380   0.745  27.850  0.00  0.00    +0.041 C 
ATOM     34  O   UNL     1       4.451  -0.280  27.401  0.00  0.00    -0.342 OA
ATOM     35  C   UNL     1       4.616  -1.042  26.214  0.00  0.00    +0.283 C 
BRANCH  31  36
ATOM     36  C   UNL     1       2.068  -2.744  28.260  0.00  0.00    +0.263 C 
ATOM     37  O   UNL     1       2.484  -3.893  28.399  0.00  0.00    -0.298 OA
ENDBRANCH  31  36
BRANCH  31  38
ATOM     38  O   UNL     1       1.580  -1.359  26.311  0.00  0.00    -0.376 OA
ATOM     39  H   UNL     1       1.941  -1.425  25.405  0.00  0.00    +0.211 HD
ENDBRANCH  31  38
BRANCH  30  40
ATOM     40  O   UNL     1       3.401  -3.026  25.257  0.00  0.00    -0.338 OA
BRANCH  40  42
ATOM     41  C   UNL     1       3.385  -5.327  24.316  0.00  0.00    +0.141 C 
ATOM     42  C   UNL     1       4.248  -4.145  24.872  0.00  0.00    +0.271 C 
ATOM     43  O   UNL     1       5.229  -3.755  23.914  0.00  0.00    -0.341 OA
ATOM     44  C   UNL     1       6.197  -4.767  23.576  0.00  0.00    +0.178 C 
ATOM     45  C   UNL     1       5.601  -6.172  23.307  0.00  0.00    +0.176 C 
ATOM     46  C   UNL     1       4.352  -6.526  24.146  0.00  0.00    +0.167 C 
BRANCH  41  48
ATOM     47  C   UNL     1       1.269  -5.534  23.056  0.00  0.00    +0.101 C 
ATOM     48  N   UNL     1       2.660  -5.126  23.036  0.00  0.00    -0.310 NA
ATOM     49  H   UNL     1       2.714  -4.153  22.754  0.00  0.00    +0.122 HD
ENDBRANCH  41  48
BRANCH  45  50
ATOM     50  O   UNL     1       5.271  -6.282  21.908  0.00  0.00    -0.387 OA
ATOM     51  H   UNL     1       4.428  -5.825  21.747  0.00  0.00    +0.210 HD
ENDBRANCH  45  50
BRANCH  46  52
ATOM     52  O   UNL     1       4.714  -7.008  25.447  0.00  0.00    -0.387 OA
ATOM     53  H   UNL     1       5.687  -7.031  25.490  0.00  0.00    +0.210 HD
ENDBRANCH  46  52
BRANCH  44  54
ATOM     54  C   UNL     1       7.438  -4.793  24.491  0.00  0.00    +0.190 C 
BRANCH  54  55
ATOM     55  O   UNL     1       8.664  -4.850  23.777  0.00  0.00    -0.392 OA
ATOM     56  H   UNL     1       9.362  -4.632  24.424  0.00  0.00    +0.210 HD
ENDBRANCH  54  55
ENDBRANCH  44  54
ENDBRANCH  40  42
ENDBRANCH  30  40
ENDBRANCH   1  35
TORSDOF 16
ENDMDL
MODEL 5
REMARK VINA RESULT:      -6.9      1.909      2.877
REMARK  Name = 
REMARK  18 active torsions:
REMARK  status: ('A' for Active; 'I' for Inactive)
REMARK    1  A    between atoms: C_1  and  N_2
REMARK    2  A    between atoms: N_2  and  C_3
REMARK    3  A    between atoms: C_5  and  O_7
REMARK    4  A    between atoms: C_8  and  O_10
REMARK    5  A    between atoms: C_11  and  C_13
REMARK    6  A    between atoms: C_13  and  O_14
REMARK    7  A    between atoms: C_16  and  O_18
REMARK    8  A    between atoms: O_18  and  C_19
REMARK    9  A    between atoms: C_21  and  O_23
REMARK   10  A    between atoms: O_23  and  C_24
REMARK   11  A    between atoms: C_26  and  O_28
REMARK   12  A    between atoms: C_29  and  O_31
REMARK   13  A    between atoms: C_32  and  N_34
REMARK   14  A    between atoms: C_38  and  O_40
REMARK   15  A    between atoms: C_41  and  N_43
REMARK   16  A    between atoms: C_48  and  C_50
REMARK   17  A    between atoms: C_51  and  O_52
REMARK   18  A    between atoms: C_51  and  C_53
REMARK                            x       y       z     vdW  Elec       q    Type
REMARK                         _______ _______ _______ _____ _____    ______ ____
ROOT
ATOM      1  O   UNL     1       6.161  -1.202  26.029  0.00  0.00    -0.339 OA
ENDROOT
BRANCH   1   2
ATOM      2  C   UNL     1       6.526  -0.796  24.675  0.00  0.00    +0.192 C 
ATOM      3  C   UNL     1       8.052  -1.011  24.493  0.00  0.00    +0.208 C 
ATOM      4  C   UNL     1       8.890   0.074  25.232  0.00  0.00    +0.193 C 
ATOM      5  C   UNL     1       8.503   1.530  24.842  0.00  0.00    +0.208 C 
ATOM      6  C   UNL     1       6.977   1.728  25.069  0.00  0.00    +0.185 C 
ATOM      7  C   UNL     1       6.172   0.674  24.269  0.00  0.00    +0.179 C 
BRANCH   5   8
ATOM      8  N   UNL     1       8.822   1.890  23.451  0.00  0.00    -0.268 N 
ATOM      9  H   UNL     1       8.065   1.648  22.803  0.00  0.00    +0.258 HD
ATOM     10  C   UNL     1       9.988   2.245  22.884  0.00  0.00    +0.377 C 
ATOM     11  N   UNL     1      10.157   2.280  21.614  0.00  0.00    -0.130 NA
ATOM     12  H   UNL     1       9.262   2.112  21.143  0.00  0.00    +0.306 HD
ATOM     13  N   UNL     1      11.027   2.459  23.703  0.00  0.00    -0.289 N 
ATOM     14  H   UNL     1      11.808   2.836  23.169  0.00  0.00    +0.255 HD
ATOM     15  H   UNL     1      10.817   3.068  24.482  0.00  0.00    +0.255 HD
ENDBRANCH   5   8
BRANCH   3  16
ATOM     16  N   UNL     1       8.398  -1.034  23.069  0.00  0.00    -0.268 N 
ATOM     17  H   UNL     1       8.031  -0.231  22.558  0.00  0.00    +0.258 HD
ATOM     18  C   UNL     1       9.518  -1.534  22.516  0.00  0.00    +0.377 C 
ATOM     19  N   UNL     1      10.363  -2.338  23.042  0.00  0.00    -0.130 NA
ATOM     20  H   UNL     1      10.082  -2.580  23.990  0.00  0.00    +0.306 HD
ATOM     21  N   UNL     1       9.667  -1.144  21.239  0.00  0.00    -0.289 N 
ATOM     22  H   UNL     1      10.611  -1.295  20.901  0.00  0.00    +0.255 HD
ATOM     23  H   UNL     1       9.287  -0.246  20.954  0.00  0.00    +0.255 HD
ENDBRANCH   3  16
BRANCH   4  24
ATOM     24  O   UNL     1       8.730  -0.060  26.658  0.00  0.00    -0.385 OA
ATOM     25  H   UNL     1       7.833  -0.397  26.841  0.00  0.00    +0.210 HD
ENDBRANCH   4  24
BRANCH   6  26
ATOM     26  O   UNL     1       6.641   1.728  26.455  0.00  0.00    -0.386 OA
ATOM     27  H   UNL     1       6.623   2.658  26.760  0.00  0.00    +0.210 HD
ENDBRANCH   6  26
BRANCH   7  28
ATOM     28  O   UNL     1       6.400   0.905  22.856  0.00  0.00    -0.386 OA
ATOM     29  H   UNL     1       6.648   1.845  22.735  0.00  0.00    +0.210 HD
ENDBRANCH   7  28
ENDBRANCH   1   2
BRANCH   1  35
ATOM     30  C   UNL     1       3.913  -2.285  26.528  0.00  0.00    +0.218 C 
ATOM     31  C   UNL     1       2.756  -1.685  27.356  0.00  0.00    +0.177 C 
ATOM     32  C   UNL     1       3.405  -0.540  28.142  0.00  0.00    +0.160 C 
ATOM     33  C   UNL     1       2.668   0.792  28.114  0.00  0.00    +0.041 C 
ATOM     34  O   UNL     1       4.675  -0.297  27.542  0.00  0.00    -0.342 OA
ATOM     35  C   UNL     1       4.767  -1.001  26.312  0.00  0.00    +0.283 C 
BRANCH  31  36
ATOM     36  C   UNL     1       2.210  -2.697  28.351  0.00  0.00    +0.263 C 
ATOM     37  O   UNL     1       1.322  -3.508  28.094  0.00  0.00    -0.298 OA
ENDBRANCH  31  36
BRANCH  31  38
ATOM     38  O   UNL     1       1.725  -1.189  26.494  0.00  0.00    -0.376 OA
ATOM     39  H   UNL     1       1.166  -1.944  26.222  0.00  0.00    +0.211 HD
ENDBRANCH  31  38
BRANCH  30  40
ATOM     40  O   UNL     1       3.434  -2.875  25.293  0.00  0.00    -0.338 OA
BRANCH  40  42
ATOM     41  C   UNL     1       3.954  -5.190  26.035  0.00  0.00    +0.141 C 
ATOM     42  C   UNL     1       4.107  -4.109  24.914  0.00  0.00    +0.271 C 
ATOM     43  O   UNL     1       3.618  -4.611  23.672  0.00  0.00    -0.341 OA
ATOM     44  C   UNL     1       4.320  -5.757  23.152  0.00  0.00    +0.178 C 
ATOM     45  C   UNL     1       4.610  -6.868  24.192  0.00  0.00    +0.176 C 
ATOM     46  C   UNL     1       4.877  -6.367  25.630  0.00  0.00    +0.167 C 
BRANCH  41  48
ATOM     47  C   UNL     1       2.542  -6.714  27.374  0.00  0.00    +0.101 C 
ATOM     48  N   UNL     1       2.599  -5.731  26.310  0.00  0.00    -0.310 NA
ATOM     49  H   UNL     1       1.958  -4.974  26.524  0.00  0.00    +0.122 HD
ENDBRANCH  41  48
BRANCH  45  50
ATOM     50  O   UNL     1       3.500  -7.789  24.217  0.00  0.00    -0.387 OA
ATOM     51  H   UNL     1       3.073  -7.792  23.344  0.00  0.00    +0.210 HD
ENDBRANCH  45  50
BRANCH  46  52
ATOM     52  O   UNL     1       6.241  -5.955  25.796  0.00  0.00    -0.387 OA
ATOM     53  H   UNL     1       6.233  -5.101  26.263  0.00  0.00    +0.210 HD
ENDBRANCH  46  52
BRANCH  44  54
ATOM     54  C   UNL     1       5.535  -5.413  22.268  0.00  0.00    +0.190 C 
BRANCH  54  55
ATOM     55  O   UNL     1       5.574  -6.145  21.052  0.00  0.00    -0.392 OA
ATOM     56  H   UNL     1       4.919  -5.725  20.463  0.00  0.00    +0.210 HD
ENDBRANCH  54  55
ENDBRANCH  44  54
ENDBRANCH  40  42
ENDBRANCH  30  40
ENDBRANCH   1  35
TORSDOF 16
ENDMDL
MODEL 6
REMARK VINA RESULT:      -6.9      2.550      6.834
REMARK  Name = 
REMARK  18 active torsions:
REMARK  status: ('A' for Active; 'I' for Inactive)
REMARK    1  A    between atoms: C_1  and  N_2
REMARK    2  A    between atoms: N_2  and  C_3
REMARK    3  A    between atoms: C_5  and  O_7
REMARK    4  A    between atoms: C_8  and  O_10
REMARK    5  A    between atoms: C_11  and  C_13
REMARK    6  A    between atoms: C_13  and  O_14
REMARK    7  A    between atoms: C_16  and  O_18
REMARK    8  A    between atoms: O_18  and  C_19
REMARK    9  A    between atoms: C_21  and  O_23
REMARK   10  A    between atoms: O_23  and  C_24
REMARK   11  A    between atoms: C_26  and  O_28
REMARK   12  A    between atoms: C_29  and  O_31
REMARK   13  A    between atoms: C_32  and  N_34
REMARK   14  A    between atoms: C_38  and  O_40
REMARK   15  A    between atoms: C_41  and  N_43
REMARK   16  A    between atoms: C_48  and  C_50
REMARK   17  A    between atoms: C_51  and  O_52
REMARK   18  A    between atoms: C_51  and  C_53
REMARK                            x       y       z     vdW  Elec       q    Type
REMARK                         _______ _______ _______ _____ _____    ______ ____
ROOT
ATOM      1  O   UNL     1       5.106  -0.431  25.029  0.00  0.00    -0.339 OA
ENDROOT
BRANCH   1   2
ATOM      2  C   UNL     1       6.490  -0.856  24.833  0.00  0.00    +0.192 C 
ATOM      3  C   UNL     1       6.523  -1.909  23.694  0.00  0.00    +0.208 C 
ATOM      4  C   UNL     1       5.981  -3.292  24.158  0.00  0.00    +0.193 C 
ATOM      5  C   UNL     1       6.697  -3.847  25.423  0.00  0.00    +0.208 C 
ATOM      6  C   UNL     1       6.615  -2.788  26.559  0.00  0.00    +0.185 C 
ATOM      7  C   UNL     1       7.222  -1.443  26.085  0.00  0.00    +0.179 C 
BRANCH   5   8
ATOM      8  N   UNL     1       8.109  -4.204  25.213  0.00  0.00    -0.268 N 
ATOM      9  H   UNL     1       8.503  -3.758  24.378  0.00  0.00    +0.258 HD
ATOM     10  C   UNL     1       8.862  -5.166  25.773  0.00  0.00    +0.377 C 
ATOM     11  N   UNL     1      10.001  -5.517  25.301  0.00  0.00    -0.130 NA
ATOM     12  H   UNL     1      10.265  -4.887  24.537  0.00  0.00    +0.306 HD
ATOM     13  N   UNL     1       8.326  -5.844  26.798  0.00  0.00    -0.289 N 
ATOM     14  H   UNL     1       9.032  -6.453  27.208  0.00  0.00    +0.255 HD
ATOM     15  H   UNL     1       7.923  -5.255  27.513  0.00  0.00    +0.255 HD
ENDBRANCH   5   8
BRANCH   3  16
ATOM     16  N   UNL     1       7.884  -2.049  23.168  0.00  0.00    -0.268 N 
ATOM     17  H   UNL     1       8.174  -3.023  23.071  0.00  0.00    +0.258 HD
ATOM     18  C   UNL     1       8.503  -1.234  22.295  0.00  0.00    +0.377 C 
ATOM     19  N   UNL     1       8.178  -0.039  21.969  0.00  0.00    -0.130 NA
ATOM     20  H   UNL     1       7.344   0.253  22.474  0.00  0.00    +0.306 HD
ATOM     21  N   UNL     1       9.619  -1.787  21.792  0.00  0.00    -0.289 N 
ATOM     22  H   UNL     1       9.945  -1.305  20.962  0.00  0.00    +0.255 HD
ATOM     23  H   UNL     1       9.667  -2.798  21.703  0.00  0.00    +0.255 HD
ENDBRANCH   3  16
BRANCH   4  24
ATOM     24  O   UNL     1       4.573  -3.202  24.450  0.00  0.00    -0.385 OA
ATOM     25  H   UNL     1       4.328  -2.261  24.519  0.00  0.00    +0.210 HD
ENDBRANCH   4  24
BRANCH   6  26
ATOM     26  O   UNL     1       5.286  -2.637  27.052  0.00  0.00    -0.386 OA
ATOM     27  H   UNL     1       4.906  -1.830  26.650  0.00  0.00    +0.210 HD
ENDBRANCH   6  26
BRANCH   7  28
ATOM     28  O   UNL     1       8.634  -1.648  25.828  0.00  0.00    -0.386 OA
ATOM     29  H   UNL     1       9.141  -1.253  26.567  0.00  0.00    +0.210 HD
ENDBRANCH   7  28
ENDBRANCH   1   2
BRANCH   1  35
ATOM     30  C   UNL     1       5.527   2.013  25.599  0.00  0.00    +0.218 C 
ATOM     31  C   UNL     1       4.702   2.898  26.558  0.00  0.00    +0.177 C 
ATOM     32  C   UNL     1       3.380   2.142  26.731  0.00  0.00    +0.160 C 
ATOM     33  C   UNL     1       2.890   1.974  28.163  0.00  0.00    +0.041 C 
ATOM     34  O   UNL     1       3.593   0.823  26.234  0.00  0.00    -0.342 OA
ATOM     35  C   UNL     1       4.979   0.613  26.006  0.00  0.00    +0.283 C 
BRANCH  31  36
ATOM     36  C   UNL     1       4.399   4.250  25.931  0.00  0.00    +0.263 C 
ATOM     37  O   UNL     1       4.074   4.410  24.756  0.00  0.00    -0.298 OA
ENDBRANCH  31  36
BRANCH  31  38
ATOM     38  O   UNL     1       5.374   3.042  27.814  0.00  0.00    -0.376 OA
ATOM     39  H   UNL     1       6.119   3.664  27.692  0.00  0.00    +0.211 HD
ENDBRANCH  31  38
BRANCH  30  40
ATOM     40  O   UNL     1       6.951   2.164  25.827  0.00  0.00    -0.338 OA
BRANCH  40  42
ATOM     41  C   UNL     1       9.178   2.458  24.760  0.00  0.00    +0.141 C 
ATOM     42  C   UNL     1       7.663   2.853  24.761  0.00  0.00    +0.271 C 
ATOM     43  O   UNL     1       7.083   2.587  23.486  0.00  0.00    -0.341 OA
ATOM     44  C   UNL     1       7.639   3.334  22.387  0.00  0.00    +0.178 C 
ATOM     45  C   UNL     1       9.187   3.388  22.357  0.00  0.00    +0.176 C 
ATOM     46  C   UNL     1       9.871   3.400  23.743  0.00  0.00    +0.167 C 
BRANCH  41  48
ATOM     47  C   UNL     1      10.953   0.755  24.524  0.00  0.00    +0.101 C 
ATOM     48  N   UNL     1       9.539   1.058  24.423  0.00  0.00    -0.310 NA
ATOM     49  H   UNL     1       9.020   0.414  25.010  0.00  0.00    +0.122 HD
ENDBRANCH  41  48
BRANCH  45  50
ATOM     50  O   UNL     1       9.682   2.263  21.603  0.00  0.00    -0.387 OA
ATOM     51  H   UNL     1       8.959   1.905  21.059  0.00  0.00    +0.210 HD
ENDBRANCH  45  50
BRANCH  46  52
ATOM     52  O   UNL     1       9.907   4.722  24.297  0.00  0.00    -0.387 OA
ATOM     53  H   UNL     1      10.688   4.775  24.877  0.00  0.00    +0.210 HD
ENDBRANCH  46  52
BRANCH  44  54
ATOM     54  C   UNL     1       6.974   4.703  22.144  0.00  0.00    +0.190 C 
BRANCH  54  55
ATOM     55  O   UNL     1       7.904   5.762  21.978  0.00  0.00    -0.392 OA
ATOM     56  H   UNL     1       7.505   6.541  22.410  0.00  0.00    +0.210 HD
ENDBRANCH  54  55
ENDBRANCH  44  54
ENDBRANCH  40  42
ENDBRANCH  30  40
ENDBRANCH   1  35
TORSDOF 16
ENDMDL
MODEL 7
REMARK VINA RESULT:      -6.7      1.841      3.233
REMARK  Name = 
REMARK  18 active torsions:
REMARK  status: ('A' for Active; 'I' for Inactive)
REMARK    1  A    between atoms: C_1  and  N_2
REMARK    2  A    between atoms: N_2  and  C_3
REMARK    3  A    between atoms: C_5  and  O_7
REMARK    4  A    between atoms: C_8  and  O_10
REMARK    5  A    between atoms: C_11  and  C_13
REMARK    6  A    between atoms: C_13  and  O_14
REMARK    7  A    between atoms: C_16  and  O_18
REMARK    8  A    between atoms: O_18  and  C_19
REMARK    9  A    between atoms: C_21  and  O_23
REMARK   10  A    between atoms: O_23  and  C_24
REMARK   11  A    between atoms: C_26  and  O_28
REMARK   12  A    between atoms: C_29  and  O_31
REMARK   13  A    between atoms: C_32  and  N_34
REMARK   14  A    between atoms: C_38  and  O_40
REMARK   15  A    between atoms: C_41  and  N_43
REMARK   16  A    between atoms: C_48  and  C_50
REMARK   17  A    between atoms: C_51  and  O_52
REMARK   18  A    between atoms: C_51  and  C_53
REMARK                            x       y       z     vdW  Elec       q    Type
REMARK                         _______ _______ _______ _____ _____    ______ ____
ROOT
ATOM      1  O   UNL     1       6.048  -0.968  26.180  0.00  0.00    -0.339 OA
ENDROOT
BRANCH   1   2
ATOM      2  C   UNL     1       6.456  -0.701  24.804  0.00  0.00    +0.192 C 
ATOM      3  C   UNL     1       7.989  -0.916  24.696  0.00  0.00    +0.208 C 
ATOM      4  C   UNL     1       8.792   0.250  25.345  0.00  0.00    +0.193 C 
ATOM      5  C   UNL     1       8.406   1.653  24.793  0.00  0.00    +0.208 C 
ATOM      6  C   UNL     1       6.872   1.855  24.948  0.00  0.00    +0.185 C 
ATOM      7  C   UNL     1       6.103   0.715  24.236  0.00  0.00    +0.179 C 
BRANCH   5   8
ATOM      8  N   UNL     1       8.770   1.871  23.384  0.00  0.00    -0.268 N 
ATOM      9  H   UNL     1       8.083   1.466  22.738  0.00  0.00    +0.258 HD
ATOM     10  C   UNL     1       9.923   2.282  22.831  0.00  0.00    +0.377 C 
ATOM     11  N   UNL     1      10.165   2.176  21.576  0.00  0.00    -0.130 NA
ATOM     12  H   UNL     1       9.324   1.851  21.089  0.00  0.00    +0.306 HD
ATOM     13  N   UNL     1      10.883   2.712  23.662  0.00  0.00    -0.289 N 
ATOM     14  H   UNL     1      11.650   3.105  23.121  0.00  0.00    +0.255 HD
ATOM     15  H   UNL     1      10.562   3.385  24.344  0.00  0.00    +0.255 HD
ENDBRANCH   5   8
BRANCH   3  16
ATOM     16  N   UNL     1       8.383  -1.083  23.294  0.00  0.00    -0.268 N 
ATOM     17  H   UNL     1       8.126  -0.285  22.711  0.00  0.00    +0.258 HD
ATOM     18  C   UNL     1       9.461  -1.739  22.829  0.00  0.00    +0.377 C 
ATOM     19  N   UNL     1      10.192  -2.588  23.448  0.00  0.00    -0.130 NA
ATOM     20  H   UNL     1       9.851  -2.727  24.397  0.00  0.00    +0.306 HD
ATOM     21  N   UNL     1       9.700  -1.464  21.535  0.00  0.00    -0.289 N 
ATOM     22  H   UNL     1      10.633  -1.741  21.252  0.00  0.00    +0.255 HD
ATOM     23  H   UNL     1       9.432  -0.555  21.171  0.00  0.00    +0.255 HD
ENDBRANCH   3  16
BRANCH   4  24
ATOM     24  O   UNL     1       8.585   0.262  26.771  0.00  0.00    -0.385 OA
ATOM     25  H   UNL     1       9.412   0.544  27.203  0.00  0.00    +0.210 HD
ENDBRANCH   4  24
BRANCH   6  26
ATOM     26  O   UNL     1       6.489   1.995  26.315  0.00  0.00    -0.386 OA
ATOM     27  H   UNL     1       5.548   1.737  26.391  0.00  0.00    +0.210 HD
ENDBRANCH   6  26
BRANCH   7  28
ATOM     28  O   UNL     1       6.378   0.801  22.814  0.00  0.00    -0.386 OA
ATOM     29  H   UNL     1       6.748  -0.058  22.522  0.00  0.00    +0.210 HD
ENDBRANCH   7  28
ENDBRANCH   1   2
BRANCH   1  35
ATOM     30  C   UNL     1       3.938  -1.938  27.220  0.00  0.00    +0.218 C 
ATOM     31  C   UNL     1       2.691  -1.159  27.689  0.00  0.00    +0.177 C 
ATOM     32  C   UNL     1       3.169   0.294  27.796  0.00  0.00    +0.160 C 
ATOM     33  C   UNL     1       2.273   1.341  27.148  0.00  0.00    +0.041 C 
ATOM     34  O   UNL     1       4.416   0.368  27.111  0.00  0.00    -0.342 OA
ATOM     35  C   UNL     1       4.632  -0.829  26.377  0.00  0.00    +0.283 C 
BRANCH  31  36
ATOM     36  C   UNL     1       2.245  -1.616  29.069  0.00  0.00    +0.263 C 
ATOM     37  O   UNL     1       1.857  -2.754  29.328  0.00  0.00    -0.298 OA
ENDBRANCH  31  36
BRANCH  31  38
ATOM     38  O   UNL     1       1.633  -1.276  26.731  0.00  0.00    -0.376 OA
ATOM     39  H   UNL     1       1.353  -0.375  26.475  0.00  0.00    +0.211 HD
ENDBRANCH  31  38
BRANCH  30  40
ATOM     40  O   UNL     1       3.574  -3.109  26.446  0.00  0.00    -0.338 OA
BRANCH  40  42
ATOM     41  C   UNL     1       5.199  -4.903  25.878  0.00  0.00    +0.141 C 
ATOM     42  C   UNL     1       4.165  -4.352  26.918  0.00  0.00    +0.271 C 
ATOM     43  O   UNL     1       4.785  -4.188  28.191  0.00  0.00    -0.341 OA
ATOM     44  C   UNL     1       5.281  -5.397  28.796  0.00  0.00    +0.178 C 
ATOM     45  C   UNL     1       6.077  -6.322  27.842  0.00  0.00    +0.176 C 
ATOM     46  C   UNL     1       5.598  -6.317  26.372  0.00  0.00    +0.167 C 
BRANCH  41  48
ATOM     47  C   UNL     1       7.242  -4.585  24.524  0.00  0.00    +0.101 C 
ATOM     48  N   UNL     1       6.439  -4.123  25.639  0.00  0.00    -0.310 NA
ATOM     49  H   UNL     1       6.213  -3.143  25.500  0.00  0.00    +0.122 HD
ENDBRANCH  41  48
BRANCH  45  50
ATOM     50  O   UNL     1       7.470  -5.951  27.880  0.00  0.00    -0.387 OA
ATOM     51  H   UNL     1       7.707  -5.712  28.792  0.00  0.00    +0.210 HD
ENDBRANCH  45  50
BRANCH  46  52
ATOM     52  O   UNL     1       4.483  -7.198  26.181  0.00  0.00    -0.387 OA
ATOM     53  H   UNL     1       3.772  -6.903  26.778  0.00  0.00    +0.210 HD
ENDBRANCH  46  52
BRANCH  44  54
ATOM     54  C   UNL     1       4.247  -6.149  29.657  0.00  0.00    +0.190 C 
BRANCH  54  55
ATOM     55  O   UNL     1       4.004  -7.477  29.217  0.00  0.00    -0.392 OA
ATOM     56  H   UNL     1       3.045  -7.532  29.043  0.00  0.00    +0.210 HD
ENDBRANCH  54  55
ENDBRANCH  44  54
ENDBRANCH  40  42
ENDBRANCH  30  40
ENDBRANCH   1  35
TORSDOF 16
ENDMDL
MODEL 8
REMARK VINA RESULT:      -6.7      3.066      8.260
REMARK  Name = 
REMARK  18 active torsions:
REMARK  status: ('A' for Active; 'I' for Inactive)
REMARK    1  A    between atoms: C_1  and  N_2
REMARK    2  A    between atoms: N_2  and  C_3
REMARK    3  A    between atoms: C_5  and  O_7
REMARK    4  A    between atoms: C_8  and  O_10
REMARK    5  A    between atoms: C_11  and  C_13
REMARK    6  A    between atoms: C_13  and  O_14
REMARK    7  A    between atoms: C_16  and  O_18
REMARK    8  A    between atoms: O_18  and  C_19
REMARK    9  A    between atoms: C_21  and  O_23
REMARK   10  A    between atoms: O_23  and  C_24
REMARK   11  A    between atoms: C_26  and  O_28
REMARK   12  A    between atoms: C_29  and  O_31
REMARK   13  A    between atoms: C_32  and  N_34
REMARK   14  A    between atoms: C_38  and  O_40
REMARK   15  A    between atoms: C_41  and  N_43
REMARK   16  A    between atoms: C_48  and  C_50
REMARK   17  A    between atoms: C_51  and  O_52
REMARK   18  A    between atoms: C_51  and  C_53
REMARK                            x       y       z     vdW  Elec       q    Type
REMARK                         _______ _______ _______ _____ _____    ______ ____
ROOT
ATOM      1  O   UNL     1       6.353  -1.641  23.928  0.00  0.00    -0.339 OA
ENDROOT
BRANCH   1   2
ATOM      2  C   UNL     1       6.870  -2.582  24.918  0.00  0.00    +0.192 C 
ATOM      3  C   UNL     1       6.918  -3.993  24.275  0.00  0.00    +0.208 C 
ATOM      4  C   UNL     1       5.502  -4.630  24.152  0.00  0.00    +0.193 C 
ATOM      5  C   UNL     1       4.724  -4.680  25.498  0.00  0.00    +0.208 C 
ATOM      6  C   UNL     1       4.660  -3.247  26.101  0.00  0.00    +0.185 C 
ATOM      7  C   UNL     1       6.087  -2.670  26.271  0.00  0.00    +0.179 C 
BRANCH   5   8
ATOM      8  N   UNL     1       5.305  -5.587  26.501  0.00  0.00    -0.268 N 
ATOM      9  H   UNL     1       6.316  -5.710  26.374  0.00  0.00    +0.258 HD
ATOM     10  C   UNL     1       4.716  -6.430  27.365  0.00  0.00    +0.377 C 
ATOM     11  N   UNL     1       5.363  -7.340  27.995  0.00  0.00    -0.130 NA
ATOM     12  H   UNL     1       6.367  -7.233  27.818  0.00  0.00    +0.306 HD
ATOM     13  N   UNL     1       3.380  -6.367  27.468  0.00  0.00    -0.289 N 
ATOM     14  H   UNL     1       3.071  -6.962  28.234  0.00  0.00    +0.255 HD
ATOM     15  H   UNL     1       3.023  -5.430  27.595  0.00  0.00    +0.255 HD
ENDBRANCH   5   8
BRANCH   3  16
ATOM     16  N   UNL     1       7.804  -4.874  25.042  0.00  0.00    -0.268 N 
ATOM     17  H   UNL     1       7.378  -5.777  25.255  0.00  0.00    +0.258 HD
ATOM     18  C   UNL     1       9.145  -4.936  24.967  0.00  0.00    +0.377 C 
ATOM     19  N   UNL     1       9.945  -4.076  24.460  0.00  0.00    -0.130 NA
ATOM     20  H   UNL     1       9.426  -3.281  24.092  0.00  0.00    +0.306 HD
ATOM     21  N   UNL     1       9.633  -6.033  25.572  0.00  0.00    -0.289 N 
ATOM     22  H   UNL     1      10.593  -6.221  25.305  0.00  0.00    +0.255 HD
ATOM     23  H   UNL     1       9.062  -6.872  25.599  0.00  0.00    +0.255 HD
ENDBRANCH   3  16
BRANCH   4  24
ATOM     24  O   UNL     1       4.705  -3.890  23.206  0.00  0.00    -0.385 OA
ATOM     25  H   UNL     1       4.135  -3.270  23.698  0.00  0.00    +0.210 HD
ENDBRANCH   4  24
BRANCH   6  26
ATOM     26  O   UNL     1       3.815  -2.387  25.339  0.00  0.00    -0.386 OA
ATOM     27  H   UNL     1       2.887  -2.602  25.564  0.00  0.00    +0.210 HD
ENDBRANCH   6  26
BRANCH   7  28
ATOM     28  O   UNL     1       6.793  -3.483  27.242  0.00  0.00    -0.386 OA
ATOM     29  H   UNL     1       6.785  -4.411  26.928  0.00  0.00    +0.210 HD
ENDBRANCH   7  28
ENDBRANCH   1   2
BRANCH   1  35
ATOM     30  C   UNL     1       7.546   0.552  23.433  0.00  0.00    +0.218 C 
ATOM     31  C   UNL     1       9.019   0.732  23.008  0.00  0.00    +0.177 C 
ATOM     32  C   UNL     1       9.685  -0.600  23.370  0.00  0.00    +0.160 C 
ATOM     33  C   UNL     1      10.556  -1.227  22.289  0.00  0.00    +0.041 C 
ATOM     34  O   UNL     1       8.635  -1.532  23.614  0.00  0.00    -0.342 OA
ATOM     35  C   UNL     1       7.395  -0.980  23.194  0.00  0.00    +0.283 C 
BRANCH  31  36
ATOM     36  C   UNL     1       9.691   1.834  23.812  0.00  0.00    +0.263 C 
ATOM     37  O   UNL     1      10.055   2.910  23.340  0.00  0.00    -0.298 OA
ENDBRANCH  31  36
BRANCH  31  38
ATOM     38  O   UNL     1       9.111   0.980  21.600  0.00  0.00    -0.376 OA
ATOM     39  H   UNL     1       8.283   0.672  21.182  0.00  0.00    +0.211 HD
ENDBRANCH  31  38
BRANCH  30  40
ATOM     40  O   UNL     1       6.655   1.354  22.618  0.00  0.00    -0.338 OA
BRANCH  40  42
ATOM     41  C   UNL     1       5.166   3.340  22.477  0.00  0.00    +0.141 C 
ATOM     42  C   UNL     1       6.461   2.715  23.095  0.00  0.00    +0.271 C 
ATOM     43  O   UNL     1       6.404   2.768  24.519  0.00  0.00    -0.341 OA
ATOM     44  C   UNL     1       6.350   4.092  25.085  0.00  0.00    +0.178 C 
ATOM     45  C   UNL     1       5.349   5.052  24.395  0.00  0.00    +0.176 C 
ATOM     46  C   UNL     1       5.177   4.838  22.873  0.00  0.00    +0.167 C 
BRANCH  41  48
ATOM     47  C   UNL     1       2.717   3.308  22.146  0.00  0.00    +0.101 C 
ATOM     48  N   UNL     1       3.854   2.763  22.862  0.00  0.00    -0.310 NA
ATOM     49  H   UNL     1       3.868   1.756  22.742  0.00  0.00    +0.122 HD
ENDBRANCH  41  48
BRANCH  45  50
ATOM     50  O   UNL     1       4.061   4.925  25.032  0.00  0.00    -0.387 OA
ATOM     51  H   UNL     1       3.378   5.273  24.434  0.00  0.00    +0.210 HD
ENDBRANCH  45  50
BRANCH  46  52
ATOM     52  O   UNL     1       6.211   5.499  22.132  0.00  0.00    -0.387 OA
ATOM     53  H   UNL     1       6.031   6.456  22.169  0.00  0.00    +0.210 HD
ENDBRANCH  46  52
BRANCH  44  54
ATOM     54  C   UNL     1       7.728   4.730  25.349  0.00  0.00    +0.190 C 
BRANCH  54  55
ATOM     55  O   UNL     1       8.322   5.290  24.188  0.00  0.00    -0.392 OA
ATOM     56  H   UNL     1       9.062   5.843  24.504  0.00  0.00    +0.210 HD
ENDBRANCH  54  55
ENDBRANCH  44  54
ENDBRANCH  40  42
ENDBRANCH  30  40
ENDBRANCH   1  35
TORSDOF 16
ENDMDL
MODEL 9
REMARK VINA RESULT:      -6.7      2.780      7.645
REMARK  Name = 
REMARK  18 active torsions:
REMARK  status: ('A' for Active; 'I' for Inactive)
REMARK    1  A    between atoms: C_1  and  N_2
REMARK    2  A    between atoms: N_2  and  C_3
REMARK    3  A    between atoms: C_5  and  O_7
REMARK    4  A    between atoms: C_8  and  O_10
REMARK    5  A    between atoms: C_11  and  C_13
REMARK    6  A    between atoms: C_13  and  O_14
REMARK    7  A    between atoms: C_16  and  O_18
REMARK    8  A    between atoms: O_18  and  C_19
REMARK    9  A    between atoms: C_21  and  O_23
REMARK   10  A    between atoms: O_23  and  C_24
REMARK   11  A    between atoms: C_26  and  O_28
REMARK   12  A    between atoms: C_29  and  O_31
REMARK   13  A    between atoms: C_32  and  N_34
REMARK   14  A    between atoms: C_38  and  O_40
REMARK   15  A    between atoms: C_41  and  N_43
REMARK   16  A    between atoms: C_48  and  C_50
REMARK   17  A    between atoms: C_51  and  O_52
REMARK   18  A    between atoms: C_51  and  C_53
REMARK                            x       y       z     vdW  Elec       q    Type
REMARK                         _______ _______ _______ _____ _____    ______ ____
ROOT
ATOM      1  O   UNL     1       6.066  -2.077  23.627  0.00  0.00    -0.339 OA
ENDROOT
BRANCH   1   2
ATOM      2  C   UNL     1       6.671  -2.882  24.684  0.00  0.00    +0.192 C 
ATOM      3  C   UNL     1       6.732  -4.356  24.204  0.00  0.00    +0.208 C 
ATOM      4  C   UNL     1       5.335  -5.043  24.240  0.00  0.00    +0.193 C 
ATOM      5  C   UNL     1       4.637  -4.959  25.629  0.00  0.00    +0.208 C 
ATOM      6  C   UNL     1       4.556  -3.469  26.067  0.00  0.00    +0.185 C 
ATOM      7  C   UNL     1       5.969  -2.835  26.083  0.00  0.00    +0.179 C 
BRANCH   5   8
ATOM      8  N   UNL     1       5.306  -5.727  26.691  0.00  0.00    -0.268 N 
ATOM      9  H   UNL     1       6.325  -5.614  26.669  0.00  0.00    +0.258 HD
ATOM     10  C   UNL     1       4.840  -6.697  27.496  0.00  0.00    +0.377 C 
ATOM     11  N   UNL     1       5.611  -7.446  28.194  0.00  0.00    -0.130 NA
ATOM     12  H   UNL     1       6.577  -7.110  28.120  0.00  0.00    +0.306 HD
ATOM     13  N   UNL     1       3.523  -6.942  27.461  0.00  0.00    -0.289 N 
ATOM     14  H   UNL     1       3.282  -7.605  28.195  0.00  0.00    +0.255 HD
ATOM     15  H   UNL     1       2.950  -6.113  27.545  0.00  0.00    +0.255 HD
ENDBRANCH   5   8
BRANCH   3  16
ATOM     16  N   UNL     1       7.690  -5.117  25.012  0.00  0.00    -0.268 N 
ATOM     17  H   UNL     1       7.372  -6.064  25.218  0.00  0.00    +0.258 HD
ATOM     18  C   UNL     1       9.031  -5.013  24.987  0.00  0.00    +0.377 C 
ATOM     19  N   UNL     1       9.737  -4.062  24.501  0.00  0.00    -0.130 NA
ATOM     20  H   UNL     1       9.138  -3.339  24.106  0.00  0.00    +0.306 HD
ATOM     21  N   UNL     1       9.628  -6.037  25.619  0.00  0.00    -0.289 N 
ATOM     22  H   UNL     1      10.613  -6.106  25.390  0.00  0.00    +0.255 HD
ATOM     23  H   UNL     1       9.164  -6.941  25.633  0.00  0.00    +0.255 HD
ENDBRANCH   3  16
BRANCH   4  24
ATOM     24  O   UNL     1       4.459  -4.441  23.267  0.00  0.00    -0.385 OA
ATOM     25  H   UNL     1       4.652  -4.828  22.393  0.00  0.00    +0.210 HD
ENDBRANCH   4  24
BRANCH   6  26
ATOM     26  O   UNL     1       3.639  -2.727  25.265  0.00  0.00    -0.386 OA
ATOM     27  H   UNL     1       2.752  -2.808  25.670  0.00  0.00    +0.210 HD
ENDBRANCH   6  26
BRANCH   7  28
ATOM     28  O   UNL     1       6.758  -3.509  27.096  0.00  0.00    -0.386 OA
ATOM     29  H   UNL     1       6.280  -4.321  27.366  0.00  0.00    +0.210 HD
ENDBRANCH   7  28
ENDBRANCH   1   2
BRANCH   1  35
ATOM     30  C   UNL     1       7.196   0.172  24.001  0.00  0.00    +0.218 C 
ATOM     31  C   UNL     1       8.560   0.630  23.444  0.00  0.00    +0.177 C 
ATOM     32  C   UNL     1       9.249  -0.669  23.009  0.00  0.00    +0.160 C 
ATOM     33  C   UNL     1       9.872  -0.662  21.620  0.00  0.00    +0.041 C 
ATOM     34  O   UNL     1       8.243  -1.678  22.981  0.00  0.00    -0.342 OA
ATOM     35  C   UNL     1       6.960  -1.081  23.107  0.00  0.00    +0.283 C 
BRANCH  31  36
ATOM     36  C   UNL     1       9.407   1.278  24.528  0.00  0.00    +0.263 C 
ATOM     37  O   UNL     1      10.630   1.177  24.603  0.00  0.00    -0.298 OA
ENDBRANCH  31  36
BRANCH  31  38
ATOM     38  O   UNL     1       8.379   1.508  22.326  0.00  0.00    -0.376 OA
ATOM     39  H   UNL     1       9.036   2.229  22.396  0.00  0.00    +0.211 HD
ENDBRANCH  31  38
BRANCH  30  40
ATOM     40  O   UNL     1       6.183   1.197  23.838  0.00  0.00    -0.338 OA
BRANCH  40  42
ATOM     41  C   UNL     1       4.436   2.679  24.805  0.00  0.00    +0.141 C 
ATOM     42  C   UNL     1       5.399   1.466  25.034  0.00  0.00    +0.271 C 
ATOM     43  O   UNL     1       4.658   0.319  25.444  0.00  0.00    -0.341 OA
ATOM     44  C   UNL     1       3.957   0.452  26.696  0.00  0.00    +0.178 C 
ATOM     45  C   UNL     1       3.175   1.779  26.864  0.00  0.00    +0.176 C 
ATOM     46  C   UNL     1       3.820   3.011  26.187  0.00  0.00    +0.167 C 
BRANCH  41  48
ATOM     47  C   UNL     1       2.585   3.738  23.556  0.00  0.00    +0.101 C 
ATOM     48  N   UNL     1       3.332   2.525  23.824  0.00  0.00    -0.310 NA
ATOM     49  H   UNL     1       3.692   2.158  22.949  0.00  0.00    +0.122 HD
ENDBRANCH  41  48
BRANCH  45  50
ATOM     50  O   UNL     1       1.841   1.607  26.346  0.00  0.00    -0.387 OA
ATOM     51  H   UNL     1       1.382   0.931  26.874  0.00  0.00    +0.210 HD
ENDBRANCH  45  50
BRANCH  46  52
ATOM     52  O   UNL     1       4.838   3.589  27.014  0.00  0.00    -0.387 OA
ATOM     53  H   UNL     1       4.518   3.562  27.934  0.00  0.00    +0.210 HD
ENDBRANCH  46  52
BRANCH  44  54
ATOM     54  C   UNL     1       4.789   0.070  27.936  0.00  0.00    +0.190 C 
BRANCH  54  55
ATOM     55  O   UNL     1       4.229  -0.999  28.684  0.00  0.00    -0.392 OA
ATOM     56  H   UNL     1       3.922  -1.654  28.029  0.00  0.00    +0.210 HD
ENDBRANCH  54  55
ENDBRANCH  44  54
ENDBRANCH  40  42
ENDBRANCH  30  40
ENDBRANCH   1  35
TORSDOF 16
ENDMDL
