MODEL 1
REMARK VINA RESULT:      -6.4      0.000      0.000
REMARK  Name = 
REMARK  6 active torsions:
REMARK  status: ('A' for Active; 'I' for Inactive)
REMARK    1  A    between atoms: O_1  and  C_2
REMARK    2  A    between atoms: C_2  and  C_3
REMARK    3  A    between atoms: C_2  and  C_10
REMARK    4  A    between atoms: C_2  and  C_16
REMARK    5  A    between atoms: C_3  and  C_4
REMARK    6  A    between atoms: C_4  and  N_5
REMARK                            x       y       z     vdW  Elec       q    Type
REMARK                         _______ _______ _______ _____ _____    ______ ____
ROOT
ATOM      1  C   UNL     1       8.166  -1.983  23.618  0.00  0.00    +0.095 C 
ENDROOT
BRANCH   1   2
ATOM      2  C   UNL     1       8.115  -3.092  24.691  0.00  0.00    -0.016 A 
ATOM      3  C   UNL     1       7.280  -2.984  25.819  0.00  0.00    +0.006 A 
ATOM      4  C   UNL     1       7.235  -3.995  26.787  0.00  0.00    +0.000 A 
ATOM      5  C   UNL     1       8.023  -5.135  26.652  0.00  0.00    +0.000 A 
ATOM      6  C   UNL     1       8.861  -5.262  25.550  0.00  0.00    +0.000 A 
ATOM      7  C   UNL     1       8.908  -4.251  24.584  0.00  0.00    +0.006 A 
ENDBRANCH   1   2
BRANCH   1   8
ATOM      8  C   UNL     1       9.652  -1.489  23.363  0.00  0.00    +0.025 C 
ATOM      9  C   UNL     1      10.174  -0.432  24.365  0.00  0.00    +0.007 C 
ATOM     10  C   UNL     1       9.685   0.987  24.092  0.00  0.00    +0.000 C 
ATOM     11  C   UNL     1      10.011   1.433  22.672  0.00  0.00    +0.000 C 
ATOM     12  C   UNL     1       9.497   0.447  21.633  0.00  0.00    +0.000 C 
ATOM     13  C   UNL     1       9.955  -0.980  21.927  0.00  0.00    +0.007 C 
ENDBRANCH   1   8
BRANCH   1  14
ATOM     14  O   UNL     1       7.371  -0.881  24.066  0.00  0.00    -0.384 OA
ATOM     15  H   UNL     1       7.935  -0.093  24.078  0.00  0.00    +0.211 HD
ENDBRANCH   1  14
BRANCH   1  16
ATOM     16  C   UNL     1       7.557  -2.506  22.281  0.00  0.00    +0.055 C 
BRANCH  16  17
ATOM     17  C   UNL     1       6.027  -2.658  22.261  0.00  0.00    +0.087 C 
BRANCH  17  18
ATOM     18  N   UNL     1       5.631  -4.070  22.106  0.00  0.00    -0.302 NA
ATOM     19  C   UNL     1       5.072  -4.619  23.349  0.00  0.00    +0.084 C 
ATOM     20  C   UNL     1       5.405  -6.108  23.334  0.00  0.00    +0.017 C 
ATOM     21  C   UNL     1       6.191  -6.329  22.054  0.00  0.00    +0.017 C 
ATOM     22  C   UNL     1       6.737  -4.954  21.729  0.00  0.00    +0.084 C 
ENDBRANCH  17  18
ENDBRANCH  16  17
ENDBRANCH   1  16
TORSDOF 6
ENDMDL
MODEL 2
REMARK VINA RESULT:      -5.8      1.556      5.534
REMARK  Name = 
REMARK  6 active torsions:
REMARK  status: ('A' for Active; 'I' for Inactive)
REMARK    1  A    between atoms: O_1  and  C_2
REMARK    2  A    between atoms: C_2  and  C_3
REMARK    3  A    between atoms: C_2  and  C_10
REMARK    4  A    between atoms: C_2  and  C_16
REMARK    5  A    between atoms: C_3  and  C_4
REMARK    6  A    between atoms: C_4  and  N_5
REMARK                            x       y       z     vdW  Elec       q    Type
REMARK                         _______ _______ _______ _____ _____    ______ ____
ROOT
ATOM      1  C   UNL     1       7.907  -2.542  23.413  0.00  0.00    +0.095 C 
ENDROOT
BRANCH   1   2
ATOM      2  C   UNL     1       6.917  -3.670  23.054  0.00  0.00    -0.016 A 
ATOM      3  C   UNL     1       7.279  -4.715  22.182  0.00  0.00    +0.006 A 
ATOM      4  C   UNL     1       6.377  -5.738  21.864  0.00  0.00    +0.000 A 
ATOM      5  C   UNL     1       5.095  -5.741  22.407  0.00  0.00    +0.000 A 
ATOM      6  C   UNL     1       4.712  -4.718  23.266  0.00  0.00    +0.000 A 
ATOM      7  C   UNL     1       5.611  -3.694  23.582  0.00  0.00    +0.006 A 
ENDBRANCH   1   2
BRANCH   1   8
ATOM      8  C   UNL     1       8.803  -2.931  24.664  0.00  0.00    +0.025 C 
ATOM      9  C   UNL     1       9.032  -4.448  24.862  0.00  0.00    +0.007 C 
ATOM     10  C   UNL     1       7.860  -5.181  25.509  0.00  0.00    +0.000 C 
ATOM     11  C   UNL     1       7.467  -4.551  26.839  0.00  0.00    +0.000 C 
ATOM     12  C   UNL     1       7.198  -3.059  26.706  0.00  0.00    +0.000 C 
ATOM     13  C   UNL     1       8.355  -2.331  26.024  0.00  0.00    +0.007 C 
ENDBRANCH   1   8
BRANCH   1  14
ATOM     14  O   UNL     1       7.158  -1.361  23.717  0.00  0.00    -0.384 OA
ATOM     15  H   UNL     1       6.757  -1.043  22.894  0.00  0.00    +0.211 HD
ENDBRANCH   1  14
BRANCH   1  16
ATOM     16  C   UNL     1       8.827  -2.230  22.194  0.00  0.00    +0.055 C 
BRANCH  16  17
ATOM     17  C   UNL     1      10.097  -1.421  22.507  0.00  0.00    +0.087 C 
BRANCH  17  18
ATOM     18  N   UNL     1       9.765  -0.061  22.969  0.00  0.00    -0.302 NA
ATOM     19  C   UNL     1       9.824   0.916  21.873  0.00  0.00    +0.084 C 
ATOM     20  C   UNL     1      10.216   2.243  22.516  0.00  0.00    +0.017 C 
ATOM     21  C   UNL     1      10.397   1.934  23.991  0.00  0.00    +0.017 C 
ATOM     22  C   UNL     1      10.662   0.442  24.013  0.00  0.00    +0.084 C 
ENDBRANCH  17  18
ENDBRANCH  16  17
ENDBRANCH   1  16
TORSDOF 6
ENDMDL
MODEL 3
REMARK VINA RESULT:      -5.8      2.131      5.595
REMARK  Name = 
REMARK  6 active torsions:
REMARK  status: ('A' for Active; 'I' for Inactive)
REMARK    1  A    between atoms: O_1  and  C_2
REMARK    2  A    between atoms: C_2  and  C_3
REMARK    3  A    between atoms: C_2  and  C_10
REMARK    4  A    between atoms: C_2  and  C_16
REMARK    5  A    between atoms: C_3  and  C_4
REMARK    6  A    between atoms: C_4  and  N_5
REMARK                            x       y       z     vdW  Elec       q    Type
REMARK                         _______ _______ _______ _____ _____    ______ ____
ROOT
ATOM      1  C   UNL     1       7.706  -2.619  23.445  0.00  0.00    +0.095 C 
ENDROOT
BRANCH   1   2
ATOM      2  C   UNL     1       7.675  -1.606  24.610  0.00  0.00    -0.016 A 
ATOM      3  C   UNL     1       8.354  -1.855  25.818  0.00  0.00    +0.006 A 
ATOM      4  C   UNL     1       8.325  -0.931  26.870  0.00  0.00    +0.000 A 
ATOM      5  C   UNL     1       7.617   0.261  26.740  0.00  0.00    +0.000 A 
ATOM      6  C   UNL     1       6.933   0.527  25.560  0.00  0.00    +0.000 A 
ATOM      7  C   UNL     1       6.960  -0.397  24.510  0.00  0.00    +0.006 A 
ENDBRANCH   1   2
BRANCH   1   8
ATOM      8  C   UNL     1       6.242  -3.009  22.975  0.00  0.00    +0.025 C 
ATOM      9  C   UNL     1       5.425  -3.842  23.991  0.00  0.00    +0.007 C 
ATOM     10  C   UNL     1       5.782  -5.326  24.018  0.00  0.00    +0.000 C 
ATOM     11  C   UNL     1       5.666  -5.959  22.637  0.00  0.00    +0.000 C 
ATOM     12  C   UNL     1       6.473  -5.201  21.593  0.00  0.00    +0.000 C 
ATOM     13  C   UNL     1       6.144  -3.709  21.592  0.00  0.00    +0.007 C 
ENDBRANCH   1   8
BRANCH   1  14
ATOM     14  O   UNL     1       8.391  -3.795  23.885  0.00  0.00    -0.384 OA
ATOM     15  H   UNL     1       9.319  -3.560  24.040  0.00  0.00    +0.211 HD
ENDBRANCH   1  14
BRANCH   1  16
ATOM     16  C   UNL     1       8.496  -2.022  22.241  0.00  0.00    +0.055 C 
BRANCH  16  17
ATOM     17  C   UNL     1       9.998  -1.791  22.478  0.00  0.00    +0.087 C 
BRANCH  17  18
ATOM     18  N   UNL     1      10.344  -0.362  22.365  0.00  0.00    -0.302 NA
ATOM     19  C   UNL     1      10.556   0.253  23.682  0.00  0.00    +0.084 C 
ATOM     20  C   UNL     1      10.158   1.718  23.527  0.00  0.00    +0.017 C 
ATOM     21  C   UNL     1       9.694   1.857  22.089  0.00  0.00    +0.017 C 
ATOM     22  C   UNL     1       9.317   0.442  21.699  0.00  0.00    +0.084 C 
ENDBRANCH  17  18
ENDBRANCH  16  17
ENDBRANCH   1  16
TORSDOF 6
ENDMDL
MODEL 4
REMARK VINA RESULT:      -5.7      1.860      3.743
REMARK  Name = 
REMARK  6 active torsions:
REMARK  status: ('A' for Active; 'I' for Inactive)
REMARK    1  A    between atoms: O_1  and  C_2
REMARK    2  A    between atoms: C_2  and  C_3
REMARK    3  A    between atoms: C_2  and  C_10
REMARK    4  A    between atoms: C_2  and  C_16
REMARK    5  A    between atoms: C_3  and  C_4
REMARK    6  A    between atoms: C_4  and  N_5
REMARK                            x       y       z     vdW  Elec       q    Type
REMARK                         _______ _______ _______ _____ _____    ______ ____
ROOT
ATOM      1  C   UNL     1       8.330  -2.120  24.480  0.00  0.00    +0.095 C 
ENDROOT
BRANCH   1   2
ATOM      2  C   UNL     1       7.341  -3.041  23.735  0.00  0.00    -0.016 A 
ATOM      3  C   UNL     1       7.790  -4.135  22.971  0.00  0.00    +0.006 A 
ATOM      4  C   UNL     1       6.887  -4.970  22.301  0.00  0.00    +0.000 A 
ATOM      5  C   UNL     1       5.517  -4.732  22.378  0.00  0.00    +0.000 A 
ATOM      6  C   UNL     1       5.050  -3.655  23.121  0.00  0.00    +0.000 A 
ATOM      7  C   UNL     1       5.951  -2.819  23.788  0.00  0.00    +0.006 A 
ENDBRANCH   1   2
BRANCH   1   8
ATOM      8  C   UNL     1       8.087  -0.594  24.120  0.00  0.00    +0.025 C 
ATOM      9  C   UNL     1       8.358  -0.215  22.644  0.00  0.00    +0.007 C 
ATOM     10  C   UNL     1       9.833  -0.031  22.303  0.00  0.00    +0.000 C 
ATOM     11  C   UNL     1      10.500   0.990  23.217  0.00  0.00    +0.000 C 
ATOM     12  C   UNL     1      10.295   0.658  24.688  0.00  0.00    +0.000 C 
ATOM     13  C   UNL     1       8.821   0.436  25.021  0.00  0.00    +0.007 C 
ENDBRANCH   1   8
BRANCH   1  14
ATOM     14  O   UNL     1       9.662  -2.487  24.106  0.00  0.00    -0.384 OA
ATOM     15  H   UNL     1       9.748  -3.446  24.217  0.00  0.00    +0.211 HD
ENDBRANCH   1  14
BRANCH   1  16
ATOM     16  C   UNL     1       8.189  -2.317  26.020  0.00  0.00    +0.055 C 
BRANCH  16  17
ATOM     17  C   UNL     1       8.621  -3.692  26.557  0.00  0.00    +0.087 C 
BRANCH  17  18
ATOM     18  N   UNL     1       7.472  -4.444  27.092  0.00  0.00    -0.302 NA
ATOM     19  C   UNL     1       7.122  -5.585  26.236  0.00  0.00    +0.084 C 
ATOM     20  C   UNL     1       5.619  -5.790  26.407  0.00  0.00    +0.017 C 
ATOM     21  C   UNL     1       5.172  -4.696  27.359  0.00  0.00    +0.017 C 
ATOM     22  C   UNL     1       6.253  -3.642  27.223  0.00  0.00    +0.084 C 
ENDBRANCH  17  18
ENDBRANCH  16  17
ENDBRANCH   1  16
TORSDOF 6
ENDMDL
MODEL 5
REMARK VINA RESULT:      -5.6      2.482      4.351
REMARK  Name = 
REMARK  6 active torsions:
REMARK  status: ('A' for Active; 'I' for Inactive)
REMARK    1  A    between atoms: O_1  and  C_2
REMARK    2  A    between atoms: C_2  and  C_3
REMARK    3  A    between atoms: C_2  and  C_10
REMARK    4  A    between atoms: C_2  and  C_16
REMARK    5  A    between atoms: C_3  and  C_4
REMARK    6  A    between atoms: C_4  and  N_5
REMARK                            x       y       z     vdW  Elec       q    Type
REMARK                         _______ _______ _______ _____ _____    ______ ____
ROOT
ATOM      1  C   UNL     1       8.643  -1.065  24.420  0.00  0.00    +0.095 C 
ENDROOT
BRANCH   1   2
ATOM      2  C   UNL     1       8.550  -2.544  24.855  0.00  0.00    -0.016 A 
ATOM      3  C   UNL     1       8.472  -3.583  23.908  0.00  0.00    +0.006 A 
ATOM      4  C   UNL     1       8.392  -4.923  24.309  0.00  0.00    +0.000 A 
ATOM      5  C   UNL     1       8.387  -5.255  25.661  0.00  0.00    +0.000 A 
ATOM      6  C   UNL     1       8.457  -4.246  26.614  0.00  0.00    +0.000 A 
ATOM      7  C   UNL     1       8.534  -2.908  26.215  0.00  0.00    +0.006 A 
ENDBRANCH   1   2
BRANCH   1   8
ATOM      8  C   UNL     1      10.019  -0.759  23.692  0.00  0.00    +0.025 C 
ATOM      9  C   UNL     1      10.767   0.496  24.201  0.00  0.00    +0.007 C 
ATOM     10  C   UNL     1      10.221   1.815  23.661  0.00  0.00    +0.000 C 
ATOM     11  C   UNL     1      10.187   1.830  22.138  0.00  0.00    +0.000 C 
ATOM     12  C   UNL     1       9.437   0.632  21.573  0.00  0.00    +0.000 C 
ATOM     13  C   UNL     1       9.958  -0.687  22.142  0.00  0.00    +0.007 C 
ENDBRANCH   1   8
BRANCH   1  14
ATOM     14  O   UNL     1       8.532  -0.242  25.586  0.00  0.00    -0.384 OA
ATOM     15  H   UNL     1       8.777   0.662  25.337  0.00  0.00    +0.211 HD
ENDBRANCH   1  14
BRANCH   1  16
ATOM     16  C   UNL     1       7.462  -0.713  23.466  0.00  0.00    +0.055 C 
BRANCH  16  17
ATOM     17  C   UNL     1       6.422   0.270  24.029  0.00  0.00    +0.087 C 
BRANCH  17  18
ATOM     18  N   UNL     1       6.831   1.669  23.804  0.00  0.00    -0.302 NA
ATOM     19  C   UNL     1       6.369   2.551  24.885  0.00  0.00    +0.084 C 
ATOM     20  C   UNL     1       6.159   3.920  24.245  0.00  0.00    +0.017 C 
ATOM     21  C   UNL     1       6.492   3.731  22.777  0.00  0.00    +0.017 C 
ATOM     22  C   UNL     1       6.313   2.242  22.560  0.00  0.00    +0.084 C 
ENDBRANCH  17  18
ENDBRANCH  16  17
ENDBRANCH   1  16
TORSDOF 6
ENDMDL
MODEL 6
REMARK VINA RESULT:      -5.5      1.838      5.302
REMARK  Name = 
REMARK  6 active torsions:
REMARK  status: ('A' for Active; 'I' for Inactive)
REMARK    1  A    between atoms: O_1  and  C_2
REMARK    2  A    between atoms: C_2  and  C_3
REMARK    3  A    between atoms: C_2  and  C_10
REMARK    4  A    between atoms: C_2  and  C_16
REMARK    5  A    between atoms: C_3  and  C_4
REMARK    6  A    between atoms: C_4  and  N_5
REMARK                            x       y       z     vdW  Elec       q    Type
REMARK                         _______ _______ _______ _____ _____    ______ ____
ROOT
ATOM      1  C   UNL     1       8.240  -4.030  24.086  0.00  0.00    +0.095 C 
ENDROOT
BRANCH   1   2
ATOM      2  C   UNL     1       7.298  -4.051  25.310  0.00  0.00    -0.016 A 
ATOM      3  C   UNL     1       6.859  -2.860  25.918  0.00  0.00    +0.006 A 
ATOM      4  C   UNL     1       6.001  -2.886  27.025  0.00  0.00    +0.000 A 
ATOM      5  C   UNL     1       5.565  -4.099  27.549  0.00  0.00    +0.000 A 
ATOM      6  C   UNL     1       5.989  -5.289  26.970  0.00  0.00    +0.000 A 
ATOM      7  C   UNL     1       6.848  -5.264  25.866  0.00  0.00    +0.006 A 
ENDBRANCH   1   2
BRANCH   1   8
ATOM      8  C   UNL     1       7.426  -3.929  22.728  0.00  0.00    +0.025 C 
ATOM      9  C   UNL     1       6.031  -3.272  22.845  0.00  0.00    +0.007 C 
ATOM     10  C   UNL     1       4.946  -4.194  23.394  0.00  0.00    +0.000 C 
ATOM     11  C   UNL     1       4.833  -5.478  22.581  0.00  0.00    +0.000 C 
ATOM     12  C   UNL     1       6.172  -6.190  22.453  0.00  0.00    +0.000 C 
ATOM     13  C   UNL     1       7.267  -5.257  21.939  0.00  0.00    +0.007 C 
ENDBRANCH   1   8
BRANCH   1  14
ATOM     14  O   UNL     1       9.012  -5.235  24.087  0.00  0.00    -0.384 OA
ATOM     15  H   UNL     1       9.029  -5.576  24.994  0.00  0.00    +0.211 HD
ENDBRANCH   1  14
BRANCH   1  16
ATOM     16  C   UNL     1       9.225  -2.826  24.191  0.00  0.00    +0.055 C 
BRANCH  16  17
ATOM     17  C   UNL     1       9.542  -2.108  22.868  0.00  0.00    +0.087 C 
BRANCH  17  18
ATOM     18  N   UNL     1       9.362  -0.650  22.993  0.00  0.00    -0.302 NA
ATOM     19  C   UNL     1       9.420   0.020  21.687  0.00  0.00    +0.084 C 
ATOM     20  C   UNL     1       9.969   1.417  21.959  0.00  0.00    +0.017 C 
ATOM     21  C   UNL     1      10.233   1.460  23.453  0.00  0.00    +0.017 C 
ATOM     22  C   UNL     1      10.373  -0.001  23.831  0.00  0.00    +0.084 C 
ENDBRANCH  17  18
ENDBRANCH  16  17
ENDBRANCH   1  16
TORSDOF 6
ENDMDL
MODEL 7
REMARK VINA RESULT:      -5.5      2.398      4.662
REMARK  Name = 
REMARK  6 active torsions:
REMARK  status: ('A' for Active; 'I' for Inactive)
REMARK    1  A    between atoms: O_1  and  C_2
REMARK    2  A    between atoms: C_2  and  C_3
REMARK    3  A    between atoms: C_2  and  C_10
REMARK    4  A    between atoms: C_2  and  C_16
REMARK    5  A    between atoms: C_3  and  C_4
REMARK    6  A    between atoms: C_4  and  N_5
REMARK                            x       y       z     vdW  Elec       q    Type
REMARK                         _______ _______ _______ _____ _____    ______ ____
ROOT
ATOM      1  C   UNL     1       8.343  -1.319  23.569  0.00  0.00    +0.095 C 
ENDROOT
BRANCH   1   2
ATOM      2  C   UNL     1       7.932  -2.777  23.268  0.00  0.00    -0.016 A 
ATOM      3  C   UNL     1       7.070  -3.091  22.200  0.00  0.00    +0.006 A 
ATOM      4  C   UNL     1       6.704  -4.415  21.929  0.00  0.00    +0.000 A 
ATOM      5  C   UNL     1       7.189  -5.454  22.718  0.00  0.00    +0.000 A 
ATOM      6  C   UNL     1       8.037  -5.170  23.782  0.00  0.00    +0.000 A 
ATOM      7  C   UNL     1       8.400  -3.846  24.054  0.00  0.00    +0.006 A 
ENDBRANCH   1   2
BRANCH   1   8
ATOM      8  C   UNL     1       9.651  -0.907  22.772  0.00  0.00    +0.025 C 
ATOM      9  C   UNL     1      10.704  -0.127  23.594  0.00  0.00    +0.007 C 
ATOM     10  C   UNL     1      10.385   1.354  23.779  0.00  0.00    +0.000 C 
ATOM     11  C   UNL     1      10.166   2.054  22.444  0.00  0.00    +0.000 C 
ATOM     12  C   UNL     1       9.117   1.350  21.596  0.00  0.00    +0.000 C 
ATOM     13  C   UNL     1       9.415  -0.140  21.442  0.00  0.00    +0.007 C 
ENDBRANCH   1   8
BRANCH   1  14
ATOM     14  O   UNL     1       8.587  -1.198  24.974  0.00  0.00    -0.384 OA
ATOM     15  H   UNL     1       9.540  -1.296  25.120  0.00  0.00    +0.211 HD
ENDBRANCH   1  14
BRANCH   1  16
ATOM     16  C   UNL     1       7.181  -0.349  23.196  0.00  0.00    +0.055 C 
BRANCH  16  17
ATOM     17  C   UNL     1       6.452   0.304  24.382  0.00  0.00    +0.087 C 
BRANCH  17  18
ATOM     18  N   UNL     1       7.236   1.417  24.947  0.00  0.00    -0.302 NA
ATOM     19  C   UNL     1       6.985   1.585  26.385  0.00  0.00    +0.084 C 
ATOM     20  C   UNL     1       7.185   3.071  26.672  0.00  0.00    +0.017 C 
ATOM     21  C   UNL     1       7.520   3.696  25.331  0.00  0.00    +0.017 C 
ATOM     22  C   UNL     1       6.951   2.714  24.327  0.00  0.00    +0.084 C 
ENDBRANCH  17  18
ENDBRANCH  16  17
ENDBRANCH   1  16
TORSDOF 6
ENDMDL
MODEL 8
REMARK VINA RESULT:      -5.5      1.861      3.137
REMARK  Name = 
REMARK  6 active torsions:
REMARK  status: ('A' for Active; 'I' for Inactive)
REMARK    1  A    between atoms: O_1  and  C_2
REMARK    2  A    between atoms: C_2  and  C_3
REMARK    3  A    between atoms: C_2  and  C_10
REMARK    4  A    between atoms: C_2  and  C_16
REMARK    5  A    between atoms: C_3  and  C_4
REMARK    6  A    between atoms: C_4  and  N_5
REMARK                            x       y       z     vdW  Elec       q    Type
REMARK                         _______ _______ _______ _____ _____    ______ ____
ROOT
ATOM      1  C   UNL     1       8.623  -1.568  23.431  0.00  0.00    +0.095 C 
ENDROOT
BRANCH   1   2
ATOM      2  C   UNL     1       8.169  -0.871  24.732  0.00  0.00    -0.016 A 
ATOM      3  C   UNL     1       7.172   0.123  24.723  0.00  0.00    +0.006 A 
ATOM      4  C   UNL     1       6.762   0.748  25.907  0.00  0.00    +0.000 A 
ATOM      5  C   UNL     1       7.338   0.397  27.124  0.00  0.00    +0.000 A 
ATOM      6  C   UNL     1       8.329  -0.577  27.159  0.00  0.00    +0.000 A 
ATOM      7  C   UNL     1       8.741  -1.200  25.976  0.00  0.00    +0.006 A 
ENDBRANCH   1   2
BRANCH   1   8
ATOM      8  C   UNL     1       9.885  -0.846  22.795  0.00  0.00    +0.025 C 
ATOM      9  C   UNL     1      10.681   0.061  23.763  0.00  0.00    +0.007 C 
ATOM     10  C   UNL     1      10.053   1.431  24.001  0.00  0.00    +0.000 C 
ATOM     11  C   UNL     1       9.813   2.176  22.694  0.00  0.00    +0.000 C 
ATOM     12  C   UNL     1       9.007   1.346  21.705  0.00  0.00    +0.000 C 
ATOM     13  C   UNL     1       9.615  -0.039  21.496  0.00  0.00    +0.007 C 
ENDBRANCH   1   8
BRANCH   1  14
ATOM     14  O   UNL     1       7.540  -1.536  22.497  0.00  0.00    -0.384 OA
ATOM     15  H   UNL     1       7.890  -1.773  21.625  0.00  0.00    +0.211 HD
ENDBRANCH   1  14
BRANCH   1  16
ATOM     16  C   UNL     1       8.970  -3.060  23.717  0.00  0.00    +0.055 C 
BRANCH  16  17
ATOM     17  C   UNL     1       7.837  -4.068  23.461  0.00  0.00    +0.087 C 
BRANCH  17  18
ATOM     18  N   UNL     1       7.414  -4.728  24.710  0.00  0.00    -0.302 NA
ATOM     19  C   UNL     1       6.377  -3.957  25.409  0.00  0.00    +0.084 C 
ATOM     20  C   UNL     1       6.564  -4.256  26.894  0.00  0.00    +0.017 C 
ATOM     21  C   UNL     1       7.759  -5.189  26.966  0.00  0.00    +0.017 C 
ATOM     22  C   UNL     1       8.501  -4.918  25.673  0.00  0.00    +0.084 C 
ENDBRANCH  17  18
ENDBRANCH  16  17
ENDBRANCH   1  16
TORSDOF 6
ENDMDL
MODEL 9
REMARK VINA RESULT:      -5.4      3.376      6.784
REMARK  Name = 
REMARK  6 active torsions:
REMARK  status: ('A' for Active; 'I' for Inactive)
REMARK    1  A    between atoms: O_1  and  C_2
REMARK    2  A    between atoms: C_2  and  C_3
REMARK    3  A    between atoms: C_2  and  C_10
REMARK    4  A    between atoms: C_2  and  C_16
REMARK    5  A    between atoms: C_3  and  C_4
REMARK    6  A    between atoms: C_4  and  N_5
REMARK                            x       y       z     vdW  Elec       q    Type
REMARK                         _______ _______ _______ _____ _____    ______ ____
ROOT
ATOM      1  C   UNL     1       9.496   2.587  23.700  0.00  0.00    +0.095 C 
ENDROOT
BRANCH   1   2
ATOM      2  C   UNL     1      10.364   3.862  23.770  0.00  0.00    -0.016 A 
ATOM      3  C   UNL     1       9.867   5.058  24.321  0.00  0.00    +0.006 A 
ATOM      4  C   UNL     1      10.661   6.210  24.385  0.00  0.00    +0.000 A 
ATOM      5  C   UNL     1      11.967   6.193  23.902  0.00  0.00    +0.000 A 
ATOM      6  C   UNL     1      12.478   5.026  23.349  0.00  0.00    +0.000 A 
ATOM      7  C   UNL     1      11.685   3.876  23.281  0.00  0.00    +0.006 A 
ENDBRANCH   1   2
BRANCH   1   8
ATOM      8  C   UNL     1       8.529   2.611  22.443  0.00  0.00    +0.025 C 
ATOM      9  C   UNL     1       7.606   3.850  22.347  0.00  0.00    +0.007 C 
ATOM     10  C   UNL     1       6.380   3.791  23.253  0.00  0.00    +0.000 C 
ATOM     11  C   UNL     1       5.560   2.531  23.012  0.00  0.00    +0.000 C 
ATOM     12  C   UNL     1       6.406   1.271  23.121  0.00  0.00    +0.000 C 
ATOM     13  C   UNL     1       7.654   1.344  22.242  0.00  0.00    +0.007 C 
ENDBRANCH   1   8
BRANCH   1  14
ATOM     14  O   UNL     1       8.715   2.503  24.896  0.00  0.00    -0.384 OA
ATOM     15  H   UNL     1       7.840   2.163  24.657  0.00  0.00    +0.211 HD
ENDBRANCH   1  14
BRANCH   1  16
ATOM     16  C   UNL     1      10.406   1.324  23.629  0.00  0.00    +0.055 C 
BRANCH  16  17
ATOM     17  C   UNL     1      10.440   0.454  24.897  0.00  0.00    +0.087 C 
BRANCH  17  18
ATOM     18  N   UNL     1       9.267  -0.438  24.966  0.00  0.00    -0.302 NA
ATOM     19  C   UNL     1       8.906  -0.755  26.354  0.00  0.00    +0.084 C 
ATOM     20  C   UNL     1       8.279  -2.146  26.315  0.00  0.00    +0.017 C 
ATOM     21  C   UNL     1       8.348  -2.574  24.861  0.00  0.00    +0.017 C 
ATOM     22  C   UNL     1       9.465  -1.723  24.291  0.00  0.00    +0.084 C 
ENDBRANCH  17  18
ENDBRANCH  16  17
ENDBRANCH   1  16
TORSDOF 6
ENDMDL
