MODEL 1
REMARK VINA RESULT:      -6.1      0.000      0.000
REMARK  Name = 
REMARK  16 active torsions:
REMARK  status: ('A' for Active; 'I' for Inactive)
REMARK    1  A    between atoms: C_1  and  C_2
REMARK    2  A    between atoms: C_2  and  N_4
REMARK    3  A    between atoms: C_2  and  C_30
REMARK    4  A    between atoms: C_5  and  CA_7
REMARK    5  A    between atoms: CA_7  and  CB_9
REMARK    6  A    between atoms: CA_7  and  N_10
REMARK    7  A    between atoms: C_11  and  C_13
REMARK    8  A    between atoms: C_13  and  C_14
REMARK    9  A    between atoms: C_14  and  C_15
REMARK   10  A    between atoms: C_15  and  C_16
REMARK   11  A    between atoms: C_16  and  C_17
REMARK   12  A    between atoms: C_17  and  N_19
REMARK   13  A    between atoms: C_17  and  C_27
REMARK   14  A    between atoms: C_20  and  CA_22
REMARK   15  A    between atoms: CA_22  and  N_23
REMARK   16  A    between atoms: C_30  and  O_31
REMARK                            x       y       z     vdW  Elec       q    Type
REMARK                         _______ _______ _______ _____ _____    ______ ____
ROOT
ATOM      1  C   UNK A   0       9.632  -0.432  24.824  0.00  0.00    +0.096 C 
ENDROOT
BRANCH   1   4
ATOM      2  N   GLY A   1       8.058  -1.954  23.791  0.00  0.00    -0.304 N 
ATOM      3  H   GLY A   1       7.379  -1.530  24.412  0.00  0.00    +0.149 HD
ATOM      4  C   UNK A   0       9.387  -1.627  23.940  0.00  0.00    +0.214 C 
ATOM      5  O   UNK A   0      10.292  -2.204  23.350  0.00  0.00    -0.276 OA
BRANCH   2   6
ATOM      6  CA  GLY A   1       7.657  -3.141  23.035  0.00  0.00    +0.156 C 
ATOM      7  CB  GLY A   1       6.353  -2.930  22.272  0.00  0.00    +0.038 C 
BRANCH   6  10
ATOM      8  N   UNK A   2       6.658  -4.374  24.906  0.00  0.00    -0.301 N 
ATOM      9  H   UNK A   2       5.986  -3.612  24.867  0.00  0.00    +0.150 HD
ATOM     10  C   GLY A   1       7.628  -4.408  23.926  0.00  0.00    +0.234 C 
ATOM     11  O   GLY A   1       8.476  -5.295  23.872  0.00  0.00    -0.274 OA
BRANCH   8  13
ATOM     12  C   UNK A   2       4.824  -5.550  26.075  0.00  0.00    +0.040 C 
ATOM     13  C   UNK A   2       6.312  -5.517  25.737  0.00  0.00    +0.179 C 
BRANCH  13  14
ATOM     14  C   UNK A   2       7.144  -5.419  27.025  0.00  0.00    +0.325 C 
ATOM     15  O   UNK A   2       6.713  -4.993  28.092  0.00  0.00    -0.249 OA
BRANCH  14  16
ATOM     16  O   UNK A   2       8.422  -5.847  26.895  0.00  0.00    -0.479 OA
ATOM     17  H   UNK A   2       8.992  -5.630  27.658  0.00  0.00    +0.295 HD
ENDBRANCH  14  16
ENDBRANCH  13  14
ENDBRANCH   8  13
ENDBRANCH   6  10
ENDBRANCH   2   6
ENDBRANCH   1   4
BRANCH   1  18
ATOM     18  C   UNK A   0      10.896   0.278  24.360  0.00  0.00    +0.009 C 
BRANCH  18  19
ATOM     19  C   UNK A   0      10.684   1.774  24.145  0.00  0.00    +0.003 C 
BRANCH  19  20
ATOM     20  C   UNK A   0       9.848   2.120  22.909  0.00  0.00    +0.028 C 
BRANCH  20  21
ATOM     21  C   UNK A   0       8.431   2.623  23.219  0.00  0.00    +0.119 C 
BRANCH  21  22
ATOM     22  N   UNK A   0       8.275   4.017  22.747  0.00  0.00    -0.303 N 
ATOM     23  H   UNK A   0       7.624   3.959  21.954  0.00  0.00    +0.150 HD
ATOM     24  C   GLY A   1       8.258   5.141  23.530  0.00  0.00    +0.259 C 
ATOM     25  O   GLY A   1       8.329   5.184  24.748  0.00  0.00    -0.270 OA
BRANCH  24  26
ATOM     26  CA  GLY A   1       8.247   6.411  22.689  0.00  0.00    +0.225 C 
BRANCH  26  27
ATOM     27  N   GLY A   1       7.437   6.225  21.440  0.00  0.00    +0.225 N 
ATOM     28  H1  GLY A   1       7.607   5.331  20.974  0.00  0.00    +0.200 HD
ATOM     29  H2  GLY A   1       7.615   7.000  20.785  0.00  0.00    +0.200 HD
ATOM     30  H3  GLY A   1       6.438   6.309  21.684  0.00  0.00    +0.200 HD
ENDBRANCH  26  27
ENDBRANCH  24  26
ENDBRANCH  21  22
BRANCH  21  31
ATOM     31  C   UNK A   0       7.443   1.726  22.389  0.00  0.00    +0.062 C 
ATOM     32  O   UNK A   2       6.340   2.341  22.173  0.00  0.00    -0.548 OA
ATOM     33  O   UNK A   2       7.841   0.589  22.044  0.00  0.00    -0.548 OA
ENDBRANCH  21  31
ENDBRANCH  20  21
ENDBRANCH  19  20
ENDBRANCH  18  19
ENDBRANCH   1  18
TORSDOF 14
ENDMDL
MODEL 2
REMARK VINA RESULT:      -6.0      2.245      2.962
REMARK  Name = 
REMARK  16 active torsions:
REMARK  status: ('A' for Active; 'I' for Inactive)
REMARK    1  A    between atoms: C_1  and  C_2
REMARK    2  A    between atoms: C_2  and  N_4
REMARK    3  A    between atoms: C_2  and  C_30
REMARK    4  A    between atoms: C_5  and  CA_7
REMARK    5  A    between atoms: CA_7  and  CB_9
REMARK    6  A    between atoms: CA_7  and  N_10
REMARK    7  A    between atoms: C_11  and  C_13
REMARK    8  A    between atoms: C_13  and  C_14
REMARK    9  A    between atoms: C_14  and  C_15
REMARK   10  A    between atoms: C_15  and  C_16
REMARK   11  A    between atoms: C_16  and  C_17
REMARK   12  A    between atoms: C_17  and  N_19
REMARK   13  A    between atoms: C_17  and  C_27
REMARK   14  A    between atoms: C_20  and  CA_22
REMARK   15  A    between atoms: CA_22  and  N_23
REMARK   16  A    between atoms: C_30  and  O_31
REMARK                            x       y       z     vdW  Elec       q    Type
REMARK                         _______ _______ _______ _____ _____    ______ ____
ROOT
ATOM      1  C   UNK A   0       9.949  -1.172  22.143  0.00  0.00    +0.096 C 
ENDROOT
BRANCH   1   4
ATOM      2  N   GLY A   1       9.151  -2.429  24.052  0.00  0.00    -0.304 N 
ATOM      3  H   GLY A   1      10.118  -2.406  24.356  0.00  0.00    +0.149 HD
ATOM      4  C   UNK A   0       8.840  -1.955  22.798  0.00  0.00    +0.214 C 
ATOM      5  O   UNK A   0       7.737  -2.089  22.282  0.00  0.00    -0.276 OA
BRANCH   2   6
ATOM      6  CA  GLY A   1       8.217  -3.282  24.786  0.00  0.00    +0.156 C 
ATOM      7  CB  GLY A   1       8.586  -3.414  26.260  0.00  0.00    +0.038 C 
BRANCH   6  10
ATOM      8  N   UNK A   2       6.744  -4.866  23.628  0.00  0.00    -0.301 N 
ATOM      9  H   UNK A   2       6.104  -4.076  23.657  0.00  0.00    +0.150 HD
ATOM     10  C   GLY A   1       8.025  -4.654  24.094  0.00  0.00    +0.234 C 
ATOM     11  O   GLY A   1       8.880  -5.537  24.088  0.00  0.00    -0.274 OA
BRANCH   8  13
ATOM     12  C   UNK A   2       6.323  -5.603  21.306  0.00  0.00    +0.040 C 
ATOM     13  C   UNK A   2       6.369  -5.989  22.783  0.00  0.00    +0.179 C 
BRANCH  13  14
ATOM     14  C   UNK A   2       4.986  -6.473  23.245  0.00  0.00    +0.325 C 
ATOM     15  O   UNK A   2       4.798  -7.189  24.224  0.00  0.00    -0.249 OA
BRANCH  14  16
ATOM     16  O   UNK A   2       3.960  -6.043  22.472  0.00  0.00    -0.479 OA
ATOM     17  H   UNK A   2       4.241  -5.537  21.686  0.00  0.00    +0.295 HD
ENDBRANCH  14  16
ENDBRANCH  13  14
ENDBRANCH   8  13
ENDBRANCH   6  10
ENDBRANCH   2   6
ENDBRANCH   1   4
BRANCH   1  18
ATOM     18  C   UNK A   0       9.356   0.062  21.475  0.00  0.00    +0.009 C 
BRANCH  18  19
ATOM     19  C   UNK A   0       9.982   1.359  21.978  0.00  0.00    +0.003 C 
BRANCH  19  20
ATOM     20  C   UNK A   0      10.312   1.359  23.475  0.00  0.00    +0.028 C 
BRANCH  20  21
ATOM     21  C   UNK A   0       9.249   2.023  24.361  0.00  0.00    +0.119 C 
BRANCH  21  22
ATOM     22  N   UNK A   0       8.362   2.873  23.535  0.00  0.00    -0.303 N 
ATOM     23  H   UNK A   0       7.496   2.330  23.428  0.00  0.00    +0.150 HD
ATOM     24  C   GLY A   1       8.279   4.240  23.576  0.00  0.00    +0.259 C 
ATOM     25  O   GLY A   1       8.890   4.986  24.325  0.00  0.00    -0.270 OA
BRANCH  24  26
ATOM     26  CA  GLY A   1       7.382   4.782  22.472  0.00  0.00    +0.225 C 
BRANCH  26  27
ATOM     27  N   GLY A   1       6.561   3.688  21.856  0.00  0.00    +0.225 N 
ATOM     28  H1  GLY A   1       6.907   3.384  20.944  0.00  0.00    +0.200 HD
ATOM     29  H2  GLY A   1       5.578   3.986  21.775  0.00  0.00    +0.200 HD
ATOM     30  H3  GLY A   1       6.542   2.889  22.508  0.00  0.00    +0.200 HD
ENDBRANCH  26  27
ENDBRANCH  24  26
ENDBRANCH  21  22
BRANCH  21  31
ATOM     31  C   UNK A   0       8.373   0.864  24.960  0.00  0.00    +0.062 C 
ATOM     32  O   UNK A   2       7.199   0.867  24.450  0.00  0.00    -0.548 OA
ATOM     33  O   UNK A   2       8.910   0.108  25.804  0.00  0.00    -0.548 OA
ENDBRANCH  21  31
ENDBRANCH  20  21
ENDBRANCH  19  20
ENDBRANCH  18  19
ENDBRANCH   1  18
TORSDOF 14
ENDMDL
MODEL 3
REMARK VINA RESULT:      -6.0      2.490      3.945
REMARK  Name = 
REMARK  16 active torsions:
REMARK  status: ('A' for Active; 'I' for Inactive)
REMARK    1  A    between atoms: C_1  and  C_2
REMARK    2  A    between atoms: C_2  and  N_4
REMARK    3  A    between atoms: C_2  and  C_30
REMARK    4  A    between atoms: C_5  and  CA_7
REMARK    5  A    between atoms: CA_7  and  CB_9
REMARK    6  A    between atoms: CA_7  and  N_10
REMARK    7  A    between atoms: C_11  and  C_13
REMARK    8  A    between atoms: C_13  and  C_14
REMARK    9  A    between atoms: C_14  and  C_15
REMARK   10  A    between atoms: C_15  and  C_16
REMARK   11  A    between atoms: C_16  and  C_17
REMARK   12  A    between atoms: C_17  and  N_19
REMARK   13  A    between atoms: C_17  and  C_27
REMARK   14  A    between atoms: C_20  and  CA_22
REMARK   15  A    between atoms: CA_22  and  N_23
REMARK   16  A    between atoms: C_30  and  O_31
REMARK                            x       y       z     vdW  Elec       q    Type
REMARK                         _______ _______ _______ _____ _____    ______ ____
ROOT
ATOM      1  C   UNK A   0      10.460  -1.150  22.763  0.00  0.00    +0.096 C 
ENDROOT
BRANCH   1   4
ATOM      2  N   GLY A   1       9.704  -3.018  24.106  0.00  0.00    -0.304 N 
ATOM      3  H   GLY A   1      10.007  -3.586  23.322  0.00  0.00    +0.149 HD
ATOM      4  C   UNK A   0       9.709  -1.648  23.970  0.00  0.00    +0.214 C 
ATOM      5  O   UNK A   0       9.212  -0.889  24.793  0.00  0.00    -0.276 OA
BRANCH   2   6
ATOM      6  CA  GLY A   1       8.946  -3.665  25.175  0.00  0.00    +0.156 C 
ATOM      7  CB  GLY A   1       9.563  -4.991  25.605  0.00  0.00    +0.038 C 
BRANCH   6  10
ATOM      8  N   UNK A   2       7.215  -4.342  23.574  0.00  0.00    -0.301 N 
ATOM      9  H   UNK A   2       8.018  -4.724  23.081  0.00  0.00    +0.150 HD
ATOM     10  C   GLY A   1       7.444  -3.794  24.819  0.00  0.00    +0.234 C 
ATOM     11  O   GLY A   1       6.540  -3.320  25.504  0.00  0.00    -0.274 OA
BRANCH   8  13
ATOM     12  C   UNK A   2       5.451  -6.071  23.689  0.00  0.00    +0.040 C 
ATOM     13  C   UNK A   2       5.898  -4.736  23.097  0.00  0.00    +0.179 C 
BRANCH  13  14
ATOM     14  C   UNK A   2       5.973  -4.837  21.566  0.00  0.00    +0.325 C 
ATOM     15  O   UNK A   2       6.340  -5.838  20.959  0.00  0.00    -0.249 OA
BRANCH  14  16
ATOM     16  O   UNK A   2       5.595  -3.710  20.915  0.00  0.00    -0.479 OA
ATOM     17  H   UNK A   2       6.126  -3.516  20.119  0.00  0.00    +0.295 HD
ENDBRANCH  14  16
ENDBRANCH  13  14
ENDBRANCH   8  13
ENDBRANCH   6  10
ENDBRANCH   2   6
ENDBRANCH   1   4
BRANCH   1  18
ATOM     18  C   UNK A   0       9.537  -1.192  21.552  0.00  0.00    +0.009 C 
BRANCH  18  19
ATOM     19  C   UNK A   0       9.008   0.187  21.170  0.00  0.00    +0.003 C 
BRANCH  19  20
ATOM     20  C   UNK A   0       9.783   1.354  21.794  0.00  0.00    +0.028 C 
BRANCH  20  21
ATOM     21  C   UNK A   0       8.954   2.234  22.739  0.00  0.00    +0.119 C 
BRANCH  21  22
ATOM     22  N   UNK A   0       7.972   1.404  23.472  0.00  0.00    -0.303 N 
ATOM     23  H   UNK A   0       8.536   0.810  24.093  0.00  0.00    +0.150 HD
ATOM     24  C   GLY A   1       6.729   1.798  23.892  0.00  0.00    +0.259 C 
ATOM     25  O   GLY A   1       6.234   2.907  23.768  0.00  0.00    -0.270 OA
BRANCH  24  26
ATOM     26  CA  GLY A   1       5.934   0.633  24.466  0.00  0.00    +0.225 C 
BRANCH  26  27
ATOM     27  N   GLY A   1       6.219  -0.636  23.719  0.00  0.00    +0.225 N 
ATOM     28  H1  GLY A   1       5.442  -0.946  23.132  0.00  0.00    +0.200 HD
ATOM     29  H2  GLY A   1       6.479  -1.384  24.378  0.00  0.00    +0.200 HD
ATOM     30  H3  GLY A   1       7.060  -0.491  23.139  0.00  0.00    +0.200 HD
ENDBRANCH  26  27
ENDBRANCH  24  26
ENDBRANCH  21  22
BRANCH  21  31
ATOM     31  C   UNK A   0       9.955   2.830  23.794  0.00  0.00    +0.062 C 
ATOM     32  O   UNK A   2       9.535   3.956  24.237  0.00  0.00    -0.548 OA
ATOM     33  O   UNK A   2      10.976   2.156  24.070  0.00  0.00    -0.548 OA
ENDBRANCH  21  31
ENDBRANCH  20  21
ENDBRANCH  19  20
ENDBRANCH  18  19
ENDBRANCH   1  18
TORSDOF 14
ENDMDL
MODEL 4
REMARK VINA RESULT:      -6.0      1.566      2.006
REMARK  Name = 
REMARK  16 active torsions:
REMARK  status: ('A' for Active; 'I' for Inactive)
REMARK    1  A    between atoms: C_1  and  C_2
REMARK    2  A    between atoms: C_2  and  N_4
REMARK    3  A    between atoms: C_2  and  C_30
REMARK    4  A    between atoms: C_5  and  CA_7
REMARK    5  A    between atoms: CA_7  and  CB_9
REMARK    6  A    between atoms: CA_7  and  N_10
REMARK    7  A    between atoms: C_11  and  C_13
REMARK    8  A    between atoms: C_13  and  C_14
REMARK    9  A    between atoms: C_14  and  C_15
REMARK   10  A    between atoms: C_15  and  C_16
REMARK   11  A    between atoms: C_16  and  C_17
REMARK   12  A    between atoms: C_17  and  N_19
REMARK   13  A    between atoms: C_17  and  C_27
REMARK   14  A    between atoms: C_20  and  CA_22
REMARK   15  A    between atoms: CA_22  and  N_23
REMARK   16  A    between atoms: C_30  and  O_31
REMARK                            x       y       z     vdW  Elec       q    Type
REMARK                         _______ _______ _______ _____ _____    ______ ____
ROOT
ATOM      1  C   UNK A   0      10.023  -1.383  22.292  0.00  0.00    +0.096 C 
ENDROOT
BRANCH   1   4
ATOM      2  N   GLY A   1       7.899  -2.545  22.217  0.00  0.00    -0.304 N 
ATOM      3  H   GLY A   1       7.879  -2.255  21.246  0.00  0.00    +0.149 HD
ATOM      4  C   UNK A   0       8.896  -2.058  23.032  0.00  0.00    +0.214 C 
ATOM      5  O   UNK A   0       8.912  -2.218  24.246  0.00  0.00    -0.276 OA
BRANCH   2   6
ATOM      6  CA  GLY A   1       6.694  -3.148  22.784  0.00  0.00    +0.156 C 
ATOM      7  CB  GLY A   1       5.891  -2.161  23.625  0.00  0.00    +0.038 C 
BRANCH   6  10
ATOM      8  N   UNK A   2       6.677  -4.419  24.882  0.00  0.00    -0.301 N 
ATOM      9  H   UNK A   2       6.148  -3.612  25.203  0.00  0.00    +0.150 HD
ATOM     10  C   GLY A   1       7.009  -4.461  23.543  0.00  0.00    +0.234 C 
ATOM     11  O   GLY A   1       7.632  -5.398  23.050  0.00  0.00    -0.274 OA
BRANCH   8  13
ATOM     12  C   UNK A   2       5.307  -5.960  26.246  0.00  0.00    +0.040 C 
ATOM     13  C   UNK A   2       6.702  -5.583  25.754  0.00  0.00    +0.179 C 
BRANCH  13  14
ATOM     14  C   UNK A   2       7.609  -5.246  26.948  0.00  0.00    +0.325 C 
ATOM     15  O   UNK A   2       8.284  -4.225  27.034  0.00  0.00    -0.249 OA
BRANCH  14  16
ATOM     16  O   UNK A   2       7.612  -6.184  27.926  0.00  0.00    -0.479 OA
ATOM     17  H   UNK A   2       6.720  -6.450  28.222  0.00  0.00    +0.295 HD
ENDBRANCH  14  16
ENDBRANCH  13  14
ENDBRANCH   8  13
ENDBRANCH   6  10
ENDBRANCH   2   6
ENDBRANCH   1   4
BRANCH   1  18
ATOM     18  C   UNK A   0       9.437  -0.452  21.239  0.00  0.00    +0.009 C 
BRANCH  18  19
ATOM     19  C   UNK A   0       9.148   0.943  21.785  0.00  0.00    +0.003 C 
BRANCH  19  20
ATOM     20  C   UNK A   0      10.380   1.672  22.333  0.00  0.00    +0.028 C 
BRANCH  20  21
ATOM     21  C   UNK A   0      10.150   2.394  23.668  0.00  0.00    +0.119 C 
BRANCH  21  22
ATOM     22  N   UNK A   0       8.970   3.282  23.566  0.00  0.00    -0.303 N 
ATOM     23  H   UNK A   0       8.231   2.804  24.095  0.00  0.00    +0.150 HD
ATOM     24  C   GLY A   1       8.984   4.651  23.548  0.00  0.00    +0.259 C 
ATOM     25  O   GLY A   1       9.964   5.373  23.651  0.00  0.00    -0.270 OA
BRANCH  24  26
ATOM     26  CA  GLY A   1       7.602   5.224  23.267  0.00  0.00    +0.225 C 
BRANCH  26  27
ATOM     27  N   GLY A   1       7.346   5.321  21.792  0.00  0.00    +0.225 N 
ATOM     28  H1  GLY A   1       7.545   4.456  21.286  0.00  0.00    +0.200 HD
ATOM     29  H2  GLY A   1       7.894   6.095  21.389  0.00  0.00    +0.200 HD
ATOM     30  H3  GLY A   1       6.361   5.593  21.649  0.00  0.00    +0.200 HD
ENDBRANCH  26  27
ENDBRANCH  24  26
ENDBRANCH  21  22
BRANCH  21  31
ATOM     31  C   UNK A   0       9.820   1.284  24.730  0.00  0.00    +0.062 C 
ATOM     32  O   UNK A   2       8.602   1.368  25.115  0.00  0.00    -0.548 OA
ATOM     33  O   UNK A   2      10.736   0.485  25.037  0.00  0.00    -0.548 OA
ENDBRANCH  21  31
ENDBRANCH  20  21
ENDBRANCH  19  20
ENDBRANCH  18  19
ENDBRANCH   1  18
TORSDOF 14
ENDMDL
MODEL 5
REMARK VINA RESULT:      -5.9      1.943      2.452
REMARK  Name = 
REMARK  16 active torsions:
REMARK  status: ('A' for Active; 'I' for Inactive)
REMARK    1  A    between atoms: C_1  and  C_2
REMARK    2  A    between atoms: C_2  and  N_4
REMARK    3  A    between atoms: C_2  and  C_30
REMARK    4  A    between atoms: C_5  and  CA_7
REMARK    5  A    between atoms: CA_7  and  CB_9
REMARK    6  A    between atoms: CA_7  and  N_10
REMARK    7  A    between atoms: C_11  and  C_13
REMARK    8  A    between atoms: C_13  and  C_14
REMARK    9  A    between atoms: C_14  and  C_15
REMARK   10  A    between atoms: C_15  and  C_16
REMARK   11  A    between atoms: C_16  and  C_17
REMARK   12  A    between atoms: C_17  and  N_19
REMARK   13  A    between atoms: C_17  and  C_27
REMARK   14  A    between atoms: C_20  and  CA_22
REMARK   15  A    between atoms: CA_22  and  N_23
REMARK   16  A    between atoms: C_30  and  O_31
REMARK                            x       y       z     vdW  Elec       q    Type
REMARK                         _______ _______ _______ _____ _____    ______ ____
ROOT
ATOM      1  C   UNK A   0      10.108  -0.237  24.257  0.00  0.00    +0.096 C 
ENDROOT
BRANCH   1   4
ATOM      2  N   GLY A   1       8.571  -2.022  23.694  0.00  0.00    -0.304 N 
ATOM      3  H   GLY A   1       8.061  -1.718  24.515  0.00  0.00    +0.149 HD
ATOM      4  C   UNK A   0       9.804  -1.465  23.437  0.00  0.00    +0.214 C 
ATOM      5  O   UNK A   0      10.561  -1.879  22.568  0.00  0.00    -0.276 OA
BRANCH   2   6
ATOM      6  CA  GLY A   1       8.160  -3.267  23.046  0.00  0.00    +0.156 C 
ATOM      7  CB  GLY A   1       6.885  -3.101  22.225  0.00  0.00    +0.038 C 
BRANCH   6  10
ATOM      8  N   UNK A   2       6.918  -4.429  24.814  0.00  0.00    -0.301 N 
ATOM      9  H   UNK A   2       6.198  -3.759  24.555  0.00  0.00    +0.150 HD
ATOM     10  C   GLY A   1       8.070  -4.439  24.055  0.00  0.00    +0.234 C 
ATOM     11  O   GLY A   1       8.994  -5.219  24.273  0.00  0.00    -0.274 OA
BRANCH   8  13
ATOM     12  C   UNK A   2       5.003  -5.651  25.789  0.00  0.00    +0.040 C 
ATOM     13  C   UNK A   2       6.521  -5.522  25.689  0.00  0.00    +0.179 C 
BRANCH  13  14
ATOM     14  C   UNK A   2       7.118  -5.243  27.077  0.00  0.00    +0.325 C 
ATOM     15  O   UNK A   2       6.539  -4.627  27.965  0.00  0.00    -0.249 OA
BRANCH  14  16
ATOM     16  O   UNK A   2       8.367  -5.738  27.254  0.00  0.00    -0.479 OA
ATOM     17  H   UNK A   2       8.443  -6.363  28.001  0.00  0.00    +0.295 HD
ENDBRANCH  14  16
ENDBRANCH  13  14
ENDBRANCH   8  13
ENDBRANCH   6  10
ENDBRANCH   2   6
ENDBRANCH   1   4
BRANCH   1  18
ATOM     18  C   UNK A   0       9.271   0.924  23.740  0.00  0.00    +0.009 C 
BRANCH  18  19
ATOM     19  C   UNK A   0       9.934   2.278  23.978  0.00  0.00    +0.003 C 
BRANCH  19  20
ATOM     20  C   UNK A   0       8.989   3.354  24.526  0.00  0.00    +0.028 C 
BRANCH  20  21
ATOM     21  C   UNK A   0       9.357   4.788  24.123  0.00  0.00    +0.119 C 
BRANCH  21  22
ATOM     22  N   UNK A   0      10.702   4.811  23.505  0.00  0.00    -0.303 N 
ATOM     23  H   UNK A   0      10.540   4.624  22.507  0.00  0.00    +0.150 HD
ATOM     24  C   GLY A   1      11.744   5.625  23.860  0.00  0.00    +0.259 C 
ATOM     25  O   GLY A   1      11.732   6.495  24.717  0.00  0.00    -0.270 OA
BRANCH  24  26
ATOM     26  CA  GLY A   1      13.023   5.257  23.120  0.00  0.00    +0.225 C 
BRANCH  26  27
ATOM     27  N   GLY A   1      12.820   5.303  21.635  0.00  0.00    +0.225 N 
ATOM     28  H1  GLY A   1      12.293   4.507  21.270  0.00  0.00    +0.200 HD
ATOM     29  H2  GLY A   1      13.730   5.369  21.156  0.00  0.00    +0.200 HD
ATOM     30  H3  GLY A   1      12.334   6.183  21.400  0.00  0.00    +0.200 HD
ENDBRANCH  26  27
ENDBRANCH  24  26
ENDBRANCH  21  22
BRANCH  21  31
ATOM     31  C   UNK A   0       8.322   5.227  23.025  0.00  0.00    +0.062 C 
ATOM     32  O   UNK A   2       8.445   6.473  22.753  0.00  0.00    -0.548 OA
ATOM     33  O   UNK A   2       7.558   4.347  22.563  0.00  0.00    -0.548 OA
ENDBRANCH  21  31
ENDBRANCH  20  21
ENDBRANCH  19  20
ENDBRANCH  18  19
ENDBRANCH   1  18
TORSDOF 14
ENDMDL
MODEL 6
REMARK VINA RESULT:      -5.9      3.000      8.874
REMARK  Name = 
REMARK  16 active torsions:
REMARK  status: ('A' for Active; 'I' for Inactive)
REMARK    1  A    between atoms: C_1  and  C_2
REMARK    2  A    between atoms: C_2  and  N_4
REMARK    3  A    between atoms: C_2  and  C_30
REMARK    4  A    between atoms: C_5  and  CA_7
REMARK    5  A    between atoms: CA_7  and  CB_9
REMARK    6  A    between atoms: CA_7  and  N_10
REMARK    7  A    between atoms: C_11  and  C_13
REMARK    8  A    between atoms: C_13  and  C_14
REMARK    9  A    between atoms: C_14  and  C_15
REMARK   10  A    between atoms: C_15  and  C_16
REMARK   11  A    between atoms: C_16  and  C_17
REMARK   12  A    between atoms: C_17  and  N_19
REMARK   13  A    between atoms: C_17  and  C_27
REMARK   14  A    between atoms: C_20  and  CA_22
REMARK   15  A    between atoms: CA_22  and  N_23
REMARK   16  A    between atoms: C_30  and  O_31
REMARK                            x       y       z     vdW  Elec       q    Type
REMARK                         _______ _______ _______ _____ _____    ______ ____
ROOT
ATOM      1  C   UNK A   0       6.479  -4.919  22.102  0.00  0.00    +0.096 C 
ENDROOT
BRANCH   1   4
ATOM      2  N   GLY A   1       7.600  -3.340  23.556  0.00  0.00    -0.304 N 
ATOM      3  H   GLY A   1       7.041  -2.642  23.077  0.00  0.00    +0.149 HD
ATOM      4  C   UNK A   0       7.580  -4.636  23.092  0.00  0.00    +0.214 C 
ATOM      5  O   UNK A   0       8.338  -5.508  23.497  0.00  0.00    -0.276 OA
BRANCH   2   6
ATOM      6  CA  GLY A   1       8.658  -2.880  24.454  0.00  0.00    +0.156 C 
ATOM      7  CB  GLY A   1       8.107  -2.172  25.687  0.00  0.00    +0.038 C 
BRANCH   6  10
ATOM      8  N   UNK A   2       9.440  -0.687  23.682  0.00  0.00    -0.301 N 
ATOM      9  H   UNK A   2       8.663  -0.365  24.254  0.00  0.00    +0.150 HD
ATOM     10  C   GLY A   1       9.722  -2.037  23.707  0.00  0.00    +0.234 C 
ATOM     11  O   GLY A   1      10.649  -2.526  23.067  0.00  0.00    -0.274 OA
BRANCH   8  13
ATOM     12  C   UNK A   2      10.539   1.464  24.210  0.00  0.00    +0.040 C 
ATOM     13  C   UNK A   2      10.376   0.322  23.210  0.00  0.00    +0.179 C 
BRANCH  13  14
ATOM     14  C   UNK A   2       9.837   0.863  21.876  0.00  0.00    +0.325 C 
ATOM     15  O   UNK A   2       9.200   0.194  21.068  0.00  0.00    -0.249 OA
BRANCH  14  16
ATOM     16  O   UNK A   2      10.124   2.167  21.649  0.00  0.00    -0.479 OA
ATOM     17  H   UNK A   2      11.077   2.351  21.545  0.00  0.00    +0.295 HD
ENDBRANCH  14  16
ENDBRANCH  13  14
ENDBRANCH   8  13
ENDBRANCH   6  10
ENDBRANCH   2   6
ENDBRANCH   1   4
BRANCH   1  18
ATOM     18  C   UNK A   0       5.697  -6.140  22.565  0.00  0.00    +0.009 C 
BRANCH  18  19
ATOM     19  C   UNK A   0       4.765  -5.832  23.734  0.00  0.00    +0.003 C 
BRANCH  19  20
ATOM     20  C   UNK A   0       4.059  -7.061  24.317  0.00  0.00    +0.028 C 
BRANCH  20  21
ATOM     21  C   UNK A   0       4.039  -7.116  25.851  0.00  0.00    +0.119 C 
BRANCH  21  22
ATOM     22  N   UNK A   0       5.174  -6.340  26.399  0.00  0.00    -0.303 N 
ATOM     23  H   UNK A   0       5.031  -5.381  26.059  0.00  0.00    +0.150 HD
ATOM     24  C   GLY A   1       5.767  -6.522  27.620  0.00  0.00    +0.259 C 
ATOM     25  O   GLY A   1       5.438  -7.325  28.479  0.00  0.00    -0.270 OA
BRANCH  24  26
ATOM     26  CA  GLY A   1       7.008  -5.654  27.778  0.00  0.00    +0.225 C 
BRANCH  26  27
ATOM     27  N   GLY A   1       7.887  -5.742  26.565  0.00  0.00    +0.225 N 
ATOM     28  H1  GLY A   1       7.645  -5.067  25.837  0.00  0.00    +0.200 HD
ATOM     29  H2  GLY A   1       7.861  -6.697  26.179  0.00  0.00    +0.200 HD
ATOM     30  H3  GLY A   1       8.866  -5.604  26.861  0.00  0.00    +0.200 HD
ENDBRANCH  26  27
ENDBRANCH  24  26
ENDBRANCH  21  22
BRANCH  21  31
ATOM     31  C   UNK A   0       2.714  -6.408  26.310  0.00  0.00    +0.062 C 
ATOM     32  O   UNK A   2       2.926  -5.175  26.586  0.00  0.00    -0.548 OA
ATOM     33  O   UNK A   2       1.665  -7.095  26.329  0.00  0.00    -0.548 OA
ENDBRANCH  21  31
ENDBRANCH  20  21
ENDBRANCH  19  20
ENDBRANCH  18  19
ENDBRANCH   1  18
TORSDOF 14
ENDMDL
MODEL 7
REMARK VINA RESULT:      -5.9      1.990      2.434
REMARK  Name = 
REMARK  16 active torsions:
REMARK  status: ('A' for Active; 'I' for Inactive)
REMARK    1  A    between atoms: C_1  and  C_2
REMARK    2  A    between atoms: C_2  and  N_4
REMARK    3  A    between atoms: C_2  and  C_30
REMARK    4  A    between atoms: C_5  and  CA_7
REMARK    5  A    between atoms: CA_7  and  CB_9
REMARK    6  A    between atoms: CA_7  and  N_10
REMARK    7  A    between atoms: C_11  and  C_13
REMARK    8  A    between atoms: C_13  and  C_14
REMARK    9  A    between atoms: C_14  and  C_15
REMARK   10  A    between atoms: C_15  and  C_16
REMARK   11  A    between atoms: C_16  and  C_17
REMARK   12  A    between atoms: C_17  and  N_19
REMARK   13  A    between atoms: C_17  and  C_27
REMARK   14  A    between atoms: C_20  and  CA_22
REMARK   15  A    between atoms: CA_22  and  N_23
REMARK   16  A    between atoms: C_30  and  O_31
REMARK                            x       y       z     vdW  Elec       q    Type
REMARK                         _______ _______ _______ _____ _____    ______ ____
ROOT
ATOM      1  C   UNK A   0       9.374  -1.603  23.416  0.00  0.00    +0.096 C 
ENDROOT
BRANCH   1   4
ATOM      2  N   GLY A   1       7.979  -3.518  22.917  0.00  0.00    -0.304 N 
ATOM      3  H   GLY A   1       7.383  -2.846  22.446  0.00  0.00    +0.149 HD
ATOM      4  C   UNK A   0       9.045  -3.054  23.654  0.00  0.00    +0.214 C 
ATOM      5  O   UNK A   0       9.720  -3.769  24.385  0.00  0.00    -0.276 OA
BRANCH   2   6
ATOM      6  CA  GLY A   1       7.477  -4.880  23.097  0.00  0.00    +0.156 C 
ATOM      7  CB  GLY A   1       7.070  -5.527  21.777  0.00  0.00    +0.038 C 
BRANCH   6  10
ATOM      8  N   UNK A   2       6.828  -5.011  25.459  0.00  0.00    -0.301 N 
ATOM      9  H   UNK A   2       7.827  -4.876  25.596  0.00  0.00    +0.150 HD
ATOM     10  C   GLY A   1       6.357  -4.945  24.164  0.00  0.00    +0.234 C 
ATOM     11  O   GLY A   1       5.166  -5.077  23.891  0.00  0.00    -0.274 OA
BRANCH   8  13
ATOM     12  C   UNK A   2       5.599  -3.438  26.917  0.00  0.00    +0.040 C 
ATOM     13  C   UNK A   2       5.977  -4.889  26.633  0.00  0.00    +0.179 C 
BRANCH  13  14
ATOM     14  C   UNK A   2       6.749  -5.476  27.825  0.00  0.00    +0.325 C 
ATOM     15  O   UNK A   2       6.323  -5.505  28.975  0.00  0.00    -0.249 OA
BRANCH  14  16
ATOM     16  O   UNK A   2       7.969  -5.973  27.507  0.00  0.00    -0.479 OA
ATOM     17  H   UNK A   2       7.941  -6.721  26.881  0.00  0.00    +0.295 HD
ENDBRANCH  14  16
ENDBRANCH  13  14
ENDBRANCH   8  13
ENDBRANCH   6  10
ENDBRANCH   2   6
ENDBRANCH   1   4
BRANCH   1  18
ATOM     18  C   UNK A   0       8.674  -1.137  22.147  0.00  0.00    +0.009 C 
BRANCH  18  19
ATOM     19  C   UNK A   0       9.408   0.010  21.459  0.00  0.00    +0.003 C 
BRANCH  19  20
ATOM     20  C   UNK A   0       8.626   1.328  21.425  0.00  0.00    +0.028 C 
BRANCH  20  21
ATOM     21  C   UNK A   0       8.490   2.021  22.788  0.00  0.00    +0.119 C 
BRANCH  21  22
ATOM     22  N   UNK A   0       9.530   3.065  22.930  0.00  0.00    -0.303 N 
ATOM     23  H   UNK A   0       9.012   3.934  23.110  0.00  0.00    +0.150 HD
ATOM     24  C   GLY A   1      10.766   2.907  23.499  0.00  0.00    +0.259 C 
ATOM     25  O   GLY A   1      11.207   1.894  24.019  0.00  0.00    -0.270 OA
BRANCH  24  26
ATOM     26  CA  GLY A   1      11.629   4.149  23.321  0.00  0.00    +0.225 C 
BRANCH  26  27
ATOM     27  N   GLY A   1      10.785   5.384  23.216  0.00  0.00    +0.225 N 
ATOM     28  H1  GLY A   1      10.881   6.013  24.015  0.00  0.00    +0.200 HD
ATOM     29  H2  GLY A   1       9.795   5.125  23.092  0.00  0.00    +0.200 HD
ATOM     30  H3  GLY A   1      11.038   5.879  22.347  0.00  0.00    +0.200 HD
ENDBRANCH  26  27
ENDBRANCH  24  26
ENDBRANCH  21  22
BRANCH  21  31
ATOM     31  C   UNK A   0       7.092   2.739  22.790  0.00  0.00    +0.062 C 
ATOM     32  O   UNK A   2       6.537   2.653  23.941  0.00  0.00    -0.548 OA
ATOM     33  O   UNK A   2       6.723   3.293  21.728  0.00  0.00    -0.548 OA
ENDBRANCH  21  31
ENDBRANCH  20  21
ENDBRANCH  19  20
ENDBRANCH  18  19
ENDBRANCH   1  18
TORSDOF 14
ENDMDL
MODEL 8
REMARK VINA RESULT:      -5.8      2.464      3.942
REMARK  Name = 
REMARK  16 active torsions:
REMARK  status: ('A' for Active; 'I' for Inactive)
REMARK    1  A    between atoms: C_1  and  C_2
REMARK    2  A    between atoms: C_2  and  N_4
REMARK    3  A    between atoms: C_2  and  C_30
REMARK    4  A    between atoms: C_5  and  CA_7
REMARK    5  A    between atoms: CA_7  and  CB_9
REMARK    6  A    between atoms: CA_7  and  N_10
REMARK    7  A    between atoms: C_11  and  C_13
REMARK    8  A    between atoms: C_13  and  C_14
REMARK    9  A    between atoms: C_14  and  C_15
REMARK   10  A    between atoms: C_15  and  C_16
REMARK   11  A    between atoms: C_16  and  C_17
REMARK   12  A    between atoms: C_17  and  N_19
REMARK   13  A    between atoms: C_17  and  C_27
REMARK   14  A    between atoms: C_20  and  CA_22
REMARK   15  A    between atoms: CA_22  and  N_23
REMARK   16  A    between atoms: C_30  and  O_31
REMARK                            x       y       z     vdW  Elec       q    Type
REMARK                         _______ _______ _______ _____ _____    ______ ____
ROOT
ATOM      1  C   UNK A   0      10.069  -0.975  22.810  0.00  0.00    +0.096 C 
ENDROOT
BRANCH   1   4
ATOM      2  N   GLY A   1       9.340  -2.690  24.356  0.00  0.00    -0.304 N 
ATOM      3  H   GLY A   1      10.316  -2.960  24.374  0.00  0.00    +0.149 HD
ATOM      4  C   UNK A   0       8.936  -1.730  23.455  0.00  0.00    +0.214 C 
ATOM      5  O   UNK A   0       7.761  -1.455  23.246  0.00  0.00    -0.276 OA
BRANCH   2   6
ATOM      6  CA  GLY A   1       8.367  -3.570  25.002  0.00  0.00    +0.156 C 
ATOM      7  CB  GLY A   1       8.754  -3.908  26.438  0.00  0.00    +0.038 C 
BRANCH   6  10
ATOM      8  N   UNK A   2       6.760  -4.933  23.745  0.00  0.00    -0.301 N 
ATOM      9  H   UNK A   2       6.158  -4.132  23.919  0.00  0.00    +0.150 HD
ATOM     10  C   GLY A   1       8.075  -4.830  24.150  0.00  0.00    +0.234 C 
ATOM     11  O   GLY A   1       8.889  -5.733  23.973  0.00  0.00    -0.274 OA
BRANCH   8  13
ATOM     12  C   UNK A   2       6.476  -5.453  21.345  0.00  0.00    +0.040 C 
ATOM     13  C   UNK A   2       6.288  -5.920  22.786  0.00  0.00    +0.179 C 
BRANCH  13  14
ATOM     14  C   UNK A   2       4.798  -6.163  23.071  0.00  0.00    +0.325 C 
ATOM     15  O   UNK A   2       3.898  -5.397  22.740  0.00  0.00    -0.249 OA
BRANCH  14  16
ATOM     16  O   UNK A   2       4.539  -7.316  23.734  0.00  0.00    -0.479 OA
ATOM     17  H   UNK A   2       5.194  -8.022  23.570  0.00  0.00    +0.295 HD
ENDBRANCH  14  16
ENDBRANCH  13  14
ENDBRANCH   8  13
ENDBRANCH   6  10
ENDBRANCH   2   6
ENDBRANCH   1   4
BRANCH   1  18
ATOM     18  C   UNK A   0       9.624  -0.489  21.437  0.00  0.00    +0.009 C 
BRANCH  18  19
ATOM     19  C   UNK A   0       9.209   0.979  21.440  0.00  0.00    +0.003 C 
BRANCH  19  20
ATOM     20  C   UNK A   0      10.075   1.877  22.331  0.00  0.00    +0.028 C 
BRANCH  20  21
ATOM     21  C   UNK A   0       9.283   2.805  23.262  0.00  0.00    +0.119 C 
BRANCH  21  22
ATOM     22  N   UNK A   0       8.902   2.079  24.495  0.00  0.00    -0.303 N 
ATOM     23  H   UNK A   0       9.479   2.495  25.237  0.00  0.00    +0.150 HD
ATOM     24  C   GLY A   1       7.652   1.620  24.813  0.00  0.00    +0.259 C 
ATOM     25  O   GLY A   1       6.632   1.764  24.157  0.00  0.00    -0.270 OA
BRANCH  24  26
ATOM     26  CA  GLY A   1       7.668   0.777  26.081  0.00  0.00    +0.225 C 
BRANCH  26  27
ATOM     27  N   GLY A   1       6.781  -0.424  25.943  0.00  0.00    +0.225 N 
ATOM     28  H1  GLY A   1       6.366  -0.728  26.826  0.00  0.00    +0.200 HD
ATOM     29  H2  GLY A   1       7.305  -1.203  25.518  0.00  0.00    +0.200 HD
ATOM     30  H3  GLY A   1       6.037  -0.204  25.263  0.00  0.00    +0.200 HD
ENDBRANCH  26  27
ENDBRANCH  24  26
ENDBRANCH  21  22
BRANCH  21  31
ATOM     31  C   UNK A   0      10.256   3.967  23.675  0.00  0.00    +0.062 C 
ATOM     32  O   UNK A   2      11.457   3.708  23.312  0.00  0.00    -0.548 OA
ATOM     33  O   UNK A   2       9.760   4.958  24.261  0.00  0.00    -0.548 OA
ENDBRANCH  21  31
ENDBRANCH  20  21
ENDBRANCH  19  20
ENDBRANCH  18  19
ENDBRANCH   1  18
TORSDOF 14
ENDMDL
MODEL 9
REMARK VINA RESULT:      -5.8      2.302      3.052
REMARK  Name = 
REMARK  16 active torsions:
REMARK  status: ('A' for Active; 'I' for Inactive)
REMARK    1  A    between atoms: C_1  and  C_2
REMARK    2  A    between atoms: C_2  and  N_4
REMARK    3  A    between atoms: C_2  and  C_30
REMARK    4  A    between atoms: C_5  and  CA_7
REMARK    5  A    between atoms: CA_7  and  CB_9
REMARK    6  A    between atoms: CA_7  and  N_10
REMARK    7  A    between atoms: C_11  and  C_13
REMARK    8  A    between atoms: C_13  and  C_14
REMARK    9  A    between atoms: C_14  and  C_15
REMARK   10  A    between atoms: C_15  and  C_16
REMARK   11  A    between atoms: C_16  and  C_17
REMARK   12  A    between atoms: C_17  and  N_19
REMARK   13  A    between atoms: C_17  and  C_27
REMARK   14  A    between atoms: C_20  and  CA_22
REMARK   15  A    between atoms: CA_22  and  N_23
REMARK   16  A    between atoms: C_30  and  O_31
REMARK                            x       y       z     vdW  Elec       q    Type
REMARK                         _______ _______ _______ _____ _____    ______ ____
ROOT
ATOM      1  C   UNK A   0       7.164   0.189  22.640  0.00  0.00    +0.096 C 
ENDROOT
BRANCH   1   4
ATOM      2  N   GLY A   1       7.799  -0.825  24.746  0.00  0.00    -0.304 N 
ATOM      3  H   GLY A   1       8.658  -1.067  24.266  0.00  0.00    +0.149 HD
ATOM      4  C   UNK A   0       6.768  -0.273  24.019  0.00  0.00    +0.214 C 
ATOM      5  O   UNK A   0       5.643  -0.099  24.471  0.00  0.00    -0.276 OA
BRANCH   2   6
ATOM      6  CA  GLY A   1       7.560  -1.402  26.068  0.00  0.00    +0.156 C 
ATOM      7  CB  GLY A   1       8.268  -0.627  27.175  0.00  0.00    +0.038 C 
BRANCH   6  10
ATOM      8  N   UNK A   2       6.843  -3.712  25.659  0.00  0.00    -0.301 N 
ATOM      9  H   UNK A   2       6.047  -3.242  25.236  0.00  0.00    +0.150 HD
ATOM     10  C   GLY A   1       7.880  -2.917  26.102  0.00  0.00    +0.234 C 
ATOM     11  O   GLY A   1       8.895  -3.385  26.613  0.00  0.00    -0.274 OA
BRANCH   8  13
ATOM     12  C   UNK A   2       6.024  -5.624  24.323  0.00  0.00    +0.040 C 
ATOM     13  C   UNK A   2       6.970  -5.141  25.421  0.00  0.00    +0.179 C 
BRANCH  13  14
ATOM     14  C   UNK A   2       6.654  -5.859  26.742  0.00  0.00    +0.325 C 
ATOM     15  O   UNK A   2       5.569  -6.366  27.009  0.00  0.00    -0.249 OA
BRANCH  14  16
ATOM     16  O   UNK A   2       7.687  -5.893  27.617  0.00  0.00    -0.479 OA
ATOM     17  H   UNK A   2       8.363  -6.565  27.407  0.00  0.00    +0.295 HD
ENDBRANCH  14  16
ENDBRANCH  13  14
ENDBRANCH   8  13
ENDBRANCH   6  10
ENDBRANCH   2   6
ENDBRANCH   1   4
BRANCH   1  18
ATOM     18  C   UNK A   0       8.433  -0.540  22.219  0.00  0.00    +0.009 C 
BRANCH  18  19
ATOM     19  C   UNK A   0       9.476   0.398  21.619  0.00  0.00    +0.003 C 
BRANCH  19  20
ATOM     20  C   UNK A   0       9.332   1.861  22.053  0.00  0.00    +0.028 C 
BRANCH  20  21
ATOM     21  C   UNK A   0      10.457   2.368  22.965  0.00  0.00    +0.119 C 
BRANCH  21  22
ATOM     22  N   UNK A   0      10.212   3.780  23.334  0.00  0.00    -0.303 N 
ATOM     23  H   UNK A   0       9.419   3.750  23.988  0.00  0.00    +0.150 HD
ATOM     24  C   GLY A   1      11.161   4.754  23.496  0.00  0.00    +0.259 C 
ATOM     25  O   GLY A   1      12.371   4.616  23.403  0.00  0.00    -0.270 OA
BRANCH  24  26
ATOM     26  CA  GLY A   1      10.531   6.123  23.713  0.00  0.00    +0.225 C 
BRANCH  26  27
ATOM     27  N   GLY A   1       9.256   6.260  22.936  0.00  0.00    +0.225 N 
ATOM     28  H1  GLY A   1       8.446   5.854  23.407  0.00  0.00    +0.200 HD
ATOM     29  H2  GLY A   1       9.365   5.839  22.002  0.00  0.00    +0.200 HD
ATOM     30  H3  GLY A   1       9.091   7.263  22.756  0.00  0.00    +0.200 HD
ENDBRANCH  26  27
ENDBRANCH  24  26
ENDBRANCH  21  22
BRANCH  21  31
ATOM     31  C   UNK A   0      10.390   1.513  24.282  0.00  0.00    +0.062 C 
ATOM     32  O   UNK A   2       9.330   1.783  24.948  0.00  0.00    -0.548 OA
ATOM     33  O   UNK A   2      11.322   0.703  24.497  0.00  0.00    -0.548 OA
ENDBRANCH  21  31
ENDBRANCH  20  21
ENDBRANCH  19  20
ENDBRANCH  18  19
ENDBRANCH   1  18
TORSDOF 14
ENDMDL
