MODEL 1
REMARK VINA RESULT:      -7.1      0.000      0.000
REMARK  Name = 
REMARK  7 active torsions:
REMARK  status: ('A' for Active; 'I' for Inactive)
REMARK    1  A    between atoms: C_1  and  C_2
REMARK    2  A    between atoms: C_2  and  C_3
REMARK    3  A    between atoms: N_5  and  C_22
REMARK    4  A    between atoms: C_11  and  C_12
REMARK    5  A    between atoms: C_12  and  C_13
REMARK    6  A    between atoms: C_15  and  O_16
REMARK    7  A    between atoms: C_17  and  O_18
REMARK                            x       y       z     vdW  Elec       q    Type
REMARK                         _______ _______ _______ _____ _____    ______ ____
ROOT
ATOM      1  C   UNL     1       7.156  -4.373  22.790  0.00  0.00    +0.078 A 
ATOM      2  C   UNL     1       7.766  -3.167  23.164  0.00  0.00    +0.106 A 
ATOM      3  C   UNL     1       8.619  -2.227  22.506  0.00  0.00    +0.263 A 
ATOM      4  N   UNL     1       9.065  -1.229  23.349  0.00  0.00    -0.310 N 
ATOM      5  H   UNL     1       9.674  -0.544  22.924  0.00  0.00    +0.170 HD
ATOM      6  C   UNL     1       8.680  -1.117  24.675  0.00  0.00    +0.116 A 
ATOM      7  N   UNL     1       7.815  -1.905  25.249  0.00  0.00    -0.214 NA
ATOM      8  O   UNL     1       8.947  -2.284  21.329  0.00  0.00    -0.267 OA
ATOM      9  C   UNL     1       7.415  -2.952  24.478  0.00  0.00    +0.171 A 
ATOM     10  N   UNL     1       6.591  -4.016  24.844  0.00  0.00    -0.211 N 
ATOM     11  N   UNL     1       6.460  -4.895  23.806  0.00  0.00    -0.169 NA
ENDROOT
BRANCH  10  12
ATOM     12  C   UNL     1       5.923  -4.267  26.080  0.00  0.00    +0.104 A 
ATOM     13  C   UNL     1       6.626  -4.848  27.162  0.00  0.00    +0.069 A 
ATOM     14 CL   UNL     1       8.279  -5.379  27.112  0.00  0.00    -0.081 Cl
ATOM     15  C   UNL     1       5.975  -5.128  28.373  0.00  0.00    +0.042 A 
ATOM     16  C   UNL     1       4.622  -4.864  28.516  0.00  0.00    +0.044 A 
ATOM     17 CL   UNL     1       3.825  -5.229  29.995  0.00  0.00    -0.083 Cl
ATOM     18  C   UNL     1       3.915  -4.282  27.475  0.00  0.00    +0.042 A 
ATOM     19  C   UNL     1       4.563  -3.948  26.274  0.00  0.00    +0.069 A 
ATOM     20 CL   UNL     1       3.615  -2.936  25.231  0.00  0.00    -0.081 Cl
ENDBRANCH  10  12
BRANCH   1  22
ATOM     21  C   UNL     1       6.034  -5.998  21.241  0.00  0.00    +0.010 C 
ATOM     22  C   UNL     1       7.235  -5.098  21.488  0.00  0.00    +0.055 C 
ENDBRANCH   1  22
BRANCH   6  23
ATOM     23  C   UNL     1       9.383  -0.032  25.468  0.00  0.00    +0.109 C 
BRANCH  23  24
ATOM     24  C   UNL     1       9.297   1.317  24.810  0.00  0.00    -0.036 A 
ATOM     25  C   UNL     1       8.128   2.089  24.927  0.00  0.00    +0.008 A 
ATOM     26  C   UNL     1       8.075   3.376  24.393  0.00  0.00    +0.049 A 
ATOM     27  C   UNL     1       9.186   3.884  23.738  0.00  0.00    +0.158 A 
ATOM     28  C   UNL     1      10.333   3.114  23.576  0.00  0.00    +0.158 A 
ATOM     29  C   UNL     1      10.401   1.833  24.110  0.00  0.00    +0.053 A 
BRANCH  27  30
ATOM     30  O   UNL     1       9.149   5.163  23.262  0.00  0.00    -0.503 OA
ATOM     31  H   UNL     1       9.683   5.132  22.442  0.00  0.00    +0.292 HD
ENDBRANCH  27  30
BRANCH  28  32
ATOM     32  O   UNL     1      11.379   3.667  22.890  0.00  0.00    -0.503 OA
ATOM     33  H   UNL     1      11.941   2.943  22.563  0.00  0.00    +0.292 HD
ENDBRANCH  28  32
ENDBRANCH  23  24
ENDBRANCH   6  23
TORSDOF 6
ENDMDL
MODEL 2
REMARK VINA RESULT:      -7.0      3.529      7.175
REMARK  Name = 
REMARK  7 active torsions:
REMARK  status: ('A' for Active; 'I' for Inactive)
REMARK    1  A    between atoms: C_1  and  C_2
REMARK    2  A    between atoms: C_2  and  C_3
REMARK    3  A    between atoms: N_5  and  C_22
REMARK    4  A    between atoms: C_11  and  C_12
REMARK    5  A    between atoms: C_12  and  C_13
REMARK    6  A    between atoms: C_15  and  O_16
REMARK    7  A    between atoms: C_17  and  O_18
REMARK                            x       y       z     vdW  Elec       q    Type
REMARK                         _______ _______ _______ _____ _____    ______ ____
ROOT
ATOM      1  C   UNL     1       8.868   1.110  22.861  0.00  0.00    +0.078 A 
ATOM      2  C   UNL     1       8.420  -0.217  22.796  0.00  0.00    +0.106 A 
ATOM      3  C   UNL     1       8.937  -1.424  22.229  0.00  0.00    +0.263 A 
ATOM      4  N   UNL     1       8.052  -2.480  22.323  0.00  0.00    -0.310 N 
ATOM      5  H   UNL     1       8.378  -3.353  21.932  0.00  0.00    +0.170 HD
ATOM      6  C   UNL     1       6.820  -2.393  22.951  0.00  0.00    +0.116 A 
ATOM      7  N   UNL     1       6.392  -1.328  23.567  0.00  0.00    -0.214 NA
ATOM      8  O   UNL     1      10.034  -1.536  21.700  0.00  0.00    -0.267 OA
ATOM      9  C   UNL     1       7.197  -0.240  23.427  0.00  0.00    +0.171 A 
ATOM     10  N   UNL     1       6.959   1.061  23.870  0.00  0.00    -0.211 N 
ATOM     11  N   UNL     1       7.982   1.885  23.495  0.00  0.00    -0.169 NA
ENDROOT
BRANCH  10  12
ATOM     12  C   UNL     1       5.858   1.583  24.614  0.00  0.00    +0.104 A 
ATOM     13  C   UNL     1       5.726   1.285  25.991  0.00  0.00    +0.069 A 
ATOM     14 CL   UNL     1       6.778   0.239  26.894  0.00  0.00    -0.081 Cl
ATOM     15  C   UNL     1       4.634   1.765  26.727  0.00  0.00    +0.042 A 
ATOM     16  C   UNL     1       3.650   2.518  26.107  0.00  0.00    +0.044 A 
ATOM     17 CL   UNL     1       2.301   3.087  27.010  0.00  0.00    -0.083 Cl
ATOM     18  C   UNL     1       3.764   2.835  24.762  0.00  0.00    +0.042 A 
ATOM     19  C   UNL     1       4.878   2.405  24.022  0.00  0.00    +0.069 A 
ATOM     20 CL   UNL     1       5.019   3.169  22.471  0.00  0.00    -0.081 Cl
ENDBRANCH  10  12
BRANCH   1  22
ATOM     21  C   UNL     1      10.737   2.746  23.222  0.00  0.00    +0.010 C 
ATOM     22  C   UNL     1      10.117   1.706  22.302  0.00  0.00    +0.055 C 
ENDBRANCH   1  22
BRANCH   6  23
ATOM     23  C   UNL     1       5.940  -3.623  22.831  0.00  0.00    +0.109 C 
BRANCH  23  24
ATOM     24  C   UNL     1       5.855  -4.403  24.114  0.00  0.00    -0.036 A 
ATOM     25  C   UNL     1       4.610  -4.850  24.589  0.00  0.00    +0.008 A 
ATOM     26  C   UNL     1       4.534  -5.649  25.730  0.00  0.00    +0.049 A 
ATOM     27  C   UNL     1       5.701  -5.992  26.395  0.00  0.00    +0.158 A 
ATOM     28  C   UNL     1       6.935  -5.519  25.961  0.00  0.00    +0.158 A 
ATOM     29  C   UNL     1       7.025  -4.729  24.821  0.00  0.00    +0.053 A 
BRANCH  27  30
ATOM     30  O   UNL     1       5.629  -6.816  27.481  0.00  0.00    -0.503 OA
ATOM     31  H   UNL     1       6.276  -7.525  27.290  0.00  0.00    +0.292 HD
ENDBRANCH  27  30
BRANCH  28  32
ATOM     32  O   UNL     1       8.041  -5.870  26.685  0.00  0.00    -0.503 OA
ATOM     33  H   UNL     1       7.766  -6.008  27.608  0.00  0.00    +0.292 HD
ENDBRANCH  28  32
ENDBRANCH  23  24
ENDBRANCH   6  23
TORSDOF 6
ENDMDL
MODEL 3
REMARK VINA RESULT:      -7.0      3.588      7.599
REMARK  Name = 
REMARK  7 active torsions:
REMARK  status: ('A' for Active; 'I' for Inactive)
REMARK    1  A    between atoms: C_1  and  C_2
REMARK    2  A    between atoms: C_2  and  C_3
REMARK    3  A    between atoms: N_5  and  C_22
REMARK    4  A    between atoms: C_11  and  C_12
REMARK    5  A    between atoms: C_12  and  C_13
REMARK    6  A    between atoms: C_15  and  O_16
REMARK    7  A    between atoms: C_17  and  O_18
REMARK                            x       y       z     vdW  Elec       q    Type
REMARK                         _______ _______ _______ _____ _____    ______ ____
ROOT
ATOM      1  C   UNL     1       9.174   0.803  23.405  0.00  0.00    +0.078 A 
ATOM      2  C   UNL     1       8.648  -0.463  23.115  0.00  0.00    +0.106 A 
ATOM      3  C   UNL     1       9.173  -1.659  22.532  0.00  0.00    +0.263 A 
ATOM      4  N   UNL     1       8.208  -2.629  22.343  0.00  0.00    -0.310 N 
ATOM      5  H   UNL     1       8.536  -3.491  21.930  0.00  0.00    +0.170 HD
ATOM      6  C   UNL     1       6.886  -2.480  22.730  0.00  0.00    +0.116 A 
ATOM      7  N   UNL     1       6.427  -1.437  23.363  0.00  0.00    -0.214 NA
ATOM      8  O   UNL     1      10.341  -1.828  22.213  0.00  0.00    -0.267 OA
ATOM      9  C   UNL     1       7.325  -0.424  23.495  0.00  0.00    +0.171 A 
ATOM     10  N   UNL     1       7.104   0.849  24.020  0.00  0.00    -0.211 N 
ATOM     11  N   UNL     1       8.242   1.601  23.937  0.00  0.00    -0.169 NA
ENDROOT
BRANCH  10  12
ATOM     12  C   UNL     1       5.921   1.406  24.591  0.00  0.00    +0.104 A 
ATOM     13  C   UNL     1       5.186   2.387  23.883  0.00  0.00    +0.069 A 
ATOM     14 CL   UNL     1       5.640   3.067  22.351  0.00  0.00    -0.081 Cl
ATOM     15  C   UNL     1       4.037   2.965  24.444  0.00  0.00    +0.042 A 
ATOM     16  C   UNL     1       3.622   2.603  25.715  0.00  0.00    +0.044 A 
ATOM     17 CL   UNL     1       2.226   3.331  26.406  0.00  0.00    -0.083 Cl
ATOM     18  C   UNL     1       4.318   1.634  26.422  0.00  0.00    +0.042 A 
ATOM     19  C   UNL     1       5.440   1.008  25.854  0.00  0.00    +0.069 A 
ATOM     20 CL   UNL     1       5.969  -0.394  26.729  0.00  0.00    -0.081 Cl
ENDBRANCH  10  12
BRANCH   1  22
ATOM     21  C   UNL     1      10.661   2.825  23.373  0.00  0.00    +0.010 C 
ATOM     22  C   UNL     1      10.552   1.323  23.161  0.00  0.00    +0.055 C 
ENDBRANCH   1  22
BRANCH   6  23
ATOM     23  C   UNL     1       5.955  -3.603  22.314  0.00  0.00    +0.109 C 
BRANCH  23  24
ATOM     24  C   UNL     1       5.745  -4.617  23.405  0.00  0.00    -0.036 A 
ATOM     25  C   UNL     1       6.358  -4.446  24.658  0.00  0.00    +0.008 A 
ATOM     26  C   UNL     1       6.096  -5.335  25.700  0.00  0.00    +0.049 A 
ATOM     27  C   UNL     1       5.229  -6.395  25.484  0.00  0.00    +0.158 A 
ATOM     28  C   UNL     1       4.651  -6.601  24.236  0.00  0.00    +0.158 A 
ATOM     29  C   UNL     1       4.898  -5.718  23.192  0.00  0.00    +0.053 A 
BRANCH  27  30
ATOM     30  O   UNL     1       4.934  -7.233  26.520  0.00  0.00    -0.503 OA
ATOM     31  H   UNL     1       4.682  -8.074  26.087  0.00  0.00    +0.292 HD
ENDBRANCH  27  30
BRANCH  28  32
ATOM     32  O   UNL     1       3.832  -7.686  24.086  0.00  0.00    -0.503 OA
ATOM     33  H   UNL     1       3.805  -8.163  24.934  0.00  0.00    +0.292 HD
ENDBRANCH  28  32
ENDBRANCH  23  24
ENDBRANCH   6  23
TORSDOF 6
ENDMDL
MODEL 4
REMARK VINA RESULT:      -6.9      2.725      4.024
REMARK  Name = 
REMARK  7 active torsions:
REMARK  status: ('A' for Active; 'I' for Inactive)
REMARK    1  A    between atoms: C_1  and  C_2
REMARK    2  A    between atoms: C_2  and  C_3
REMARK    3  A    between atoms: N_5  and  C_22
REMARK    4  A    between atoms: C_11  and  C_12
REMARK    5  A    between atoms: C_12  and  C_13
REMARK    6  A    between atoms: C_15  and  O_16
REMARK    7  A    between atoms: C_17  and  O_18
REMARK                            x       y       z     vdW  Elec       q    Type
REMARK                         _______ _______ _______ _____ _____    ______ ____
ROOT
ATOM      1  C   UNL     1       6.254  -4.581  25.658  0.00  0.00    +0.078 A 
ATOM      2  C   UNL     1       6.869  -4.060  24.511  0.00  0.00    +0.106 A 
ATOM      3  C   UNL     1       7.354  -4.622  23.288  0.00  0.00    +0.263 A 
ATOM      4  N   UNL     1       8.003  -3.696  22.496  0.00  0.00    -0.310 N 
ATOM      5  H   UNL     1       8.364  -4.053  21.622  0.00  0.00    +0.170 HD
ATOM      6  C   UNL     1       8.121  -2.355  22.824  0.00  0.00    +0.116 A 
ATOM      7  N   UNL     1       7.584  -1.816  23.882  0.00  0.00    -0.214 NA
ATOM      8  O   UNL     1       7.232  -5.794  22.960  0.00  0.00    -0.267 OA
ATOM      9  C   UNL     1       7.007  -2.707  24.732  0.00  0.00    +0.171 A 
ATOM     10  N   UNL     1       6.452  -2.455  25.986  0.00  0.00    -0.211 N 
ATOM     11  N   UNL     1       6.016  -3.618  26.555  0.00  0.00    -0.169 NA
ENDROOT
BRANCH  10  12
ATOM     12  C   UNL     1       6.301  -1.219  26.683  0.00  0.00    +0.104 A 
ATOM     13  C   UNL     1       5.015  -0.779  27.077  0.00  0.00    +0.069 A 
ATOM     14 CL   UNL     1       3.524  -1.594  26.717  0.00  0.00    -0.081 Cl
ATOM     15  C   UNL     1       4.847   0.448  27.736  0.00  0.00    +0.042 A 
ATOM     16  C   UNL     1       5.940   1.262  27.986  0.00  0.00    +0.044 A 
ATOM     17 CL   UNL     1       5.726   2.774  28.774  0.00  0.00    -0.083 Cl
ATOM     18  C   UNL     1       7.212   0.846  27.622  0.00  0.00    +0.042 A 
ATOM     19  C   UNL     1       7.404  -0.403  27.008  0.00  0.00    +0.069 A 
ATOM     20 CL   UNL     1       9.066  -0.894  26.935  0.00  0.00    -0.081 Cl
ENDBRANCH  10  12
BRANCH   1  22
ATOM     21  C   UNL     1       4.638  -6.461  25.267  0.00  0.00    +0.010 C 
ATOM     22  C   UNL     1       5.904  -5.998  25.971  0.00  0.00    +0.055 C 
ENDBRANCH   1  22
BRANCH   6  23
ATOM     23  C   UNL     1       8.985  -1.530  21.889  0.00  0.00    +0.109 C 
BRANCH  23  24
ATOM     24  C   UNL     1       9.268  -0.153  22.424  0.00  0.00    -0.036 A 
ATOM     25  C   UNL     1      10.239   0.032  23.424  0.00  0.00    +0.008 A 
ATOM     26  C   UNL     1      10.568   1.315  23.861  0.00  0.00    +0.049 A 
ATOM     27  C   UNL     1       9.921   2.407  23.303  0.00  0.00    +0.158 A 
ATOM     28  C   UNL     1       8.926   2.235  22.345  0.00  0.00    +0.158 A 
ATOM     29  C   UNL     1       8.595   0.962  21.896  0.00  0.00    +0.053 A 
BRANCH  27  30
ATOM     30  O   UNL     1      10.281   3.664  23.694  0.00  0.00    -0.503 OA
ATOM     31  H   UNL     1      11.076   3.527  24.248  0.00  0.00    +0.292 HD
ENDBRANCH  27  30
BRANCH  28  32
ATOM     32  O   UNL     1       8.307   3.355  21.863  0.00  0.00    -0.503 OA
ATOM     33  H   UNL     1       7.554   3.557  22.445  0.00  0.00    +0.292 HD
ENDBRANCH  28  32
ENDBRANCH  23  24
ENDBRANCH   6  23
TORSDOF 6
ENDMDL
MODEL 5
REMARK VINA RESULT:      -6.8      3.589      6.836
REMARK  Name = 
REMARK  7 active torsions:
REMARK  status: ('A' for Active; 'I' for Inactive)
REMARK    1  A    between atoms: C_1  and  C_2
REMARK    2  A    between atoms: C_2  and  C_3
REMARK    3  A    between atoms: N_5  and  C_22
REMARK    4  A    between atoms: C_11  and  C_12
REMARK    5  A    between atoms: C_12  and  C_13
REMARK    6  A    between atoms: C_15  and  O_16
REMARK    7  A    between atoms: C_17  and  O_18
REMARK                            x       y       z     vdW  Elec       q    Type
REMARK                         _______ _______ _______ _____ _____    ______ ____
ROOT
ATOM      1  C   UNL     1       8.325   0.170  22.966  0.00  0.00    +0.078 A 
ATOM      2  C   UNL     1       8.781  -0.997  23.594  0.00  0.00    +0.106 A 
ATOM      3  C   UNL     1       9.798  -1.960  23.307  0.00  0.00    +0.263 A 
ATOM      4  N   UNL     1       9.785  -3.028  24.183  0.00  0.00    -0.310 N 
ATOM      5  H   UNL     1      10.488  -3.734  24.014  0.00  0.00    +0.170 HD
ATOM      6  C   UNL     1       8.917  -3.126  25.258  0.00  0.00    +0.116 A 
ATOM      7  N   UNL     1       8.064  -2.199  25.590  0.00  0.00    -0.214 NA
ATOM      8  O   UNL     1      10.598  -1.880  22.385  0.00  0.00    -0.267 OA
ATOM      9  C   UNL     1       7.986  -1.168  24.706  0.00  0.00    +0.171 A 
ATOM     10  N   UNL     1       7.100  -0.092  24.725  0.00  0.00    -0.211 N 
ATOM     11  N   UNL     1       7.303   0.710  23.637  0.00  0.00    -0.169 NA
ENDROOT
BRANCH  10  12
ATOM     12  C   UNL     1       6.090   0.239  25.677  0.00  0.00    +0.104 A 
ATOM     13  C   UNL     1       5.047  -0.677  25.953  0.00  0.00    +0.069 A 
ATOM     14 CL   UNL     1       4.821  -2.205  25.160  0.00  0.00    -0.081 Cl
ATOM     15  C   UNL     1       4.031  -0.354  26.864  0.00  0.00    +0.042 A 
ATOM     16  C   UNL     1       4.019   0.884  27.487  0.00  0.00    +0.044 A 
ATOM     17 CL   UNL     1       2.759   1.283  28.587  0.00  0.00    -0.083 Cl
ATOM     18  C   UNL     1       5.037   1.793  27.243  0.00  0.00    +0.042 A 
ATOM     19  C   UNL     1       6.090   1.465  26.373  0.00  0.00    +0.069 A 
ATOM     20 CL   UNL     1       7.426   2.569  26.452  0.00  0.00    -0.081 Cl
ENDBRANCH  10  12
BRANCH   1  22
ATOM     21  C   UNL     1       9.978   1.741  21.916  0.00  0.00    +0.010 C 
ATOM     22  C   UNL     1       8.803   0.800  21.699  0.00  0.00    +0.055 C 
ENDBRANCH   1  22
BRANCH   6  23
ATOM     23  C   UNL     1       8.971  -4.436  26.021  0.00  0.00    +0.109 C 
BRANCH  23  24
ATOM     24  C   UNL     1       7.617  -5.070  26.183  0.00  0.00    -0.036 A 
ATOM     25  C   UNL     1       6.823  -5.340  25.055  0.00  0.00    +0.008 A 
ATOM     26  C   UNL     1       5.605  -6.007  25.192  0.00  0.00    +0.049 A 
ATOM     27  C   UNL     1       5.183  -6.394  26.454  0.00  0.00    +0.158 A 
ATOM     28  C   UNL     1       5.937  -6.092  27.583  0.00  0.00    +0.158 A 
ATOM     29  C   UNL     1       7.156  -5.435  27.459  0.00  0.00    +0.053 A 
BRANCH  27  30
ATOM     30  O   UNL     1       4.016  -7.092  26.579  0.00  0.00    -0.503 OA
ATOM     31  H   UNL     1       3.378  -6.600  26.024  0.00  0.00    +0.292 HD
ENDBRANCH  27  30
BRANCH  28  32
ATOM     32  O   UNL     1       5.443  -6.474  28.799  0.00  0.00    -0.503 OA
ATOM     33  H   UNL     1       6.032  -6.120  29.488  0.00  0.00    +0.292 HD
ENDBRANCH  28  32
ENDBRANCH  23  24
ENDBRANCH   6  23
TORSDOF 6
ENDMDL
MODEL 6
REMARK VINA RESULT:      -6.8      2.705      3.281
REMARK  Name = 
REMARK  7 active torsions:
REMARK  status: ('A' for Active; 'I' for Inactive)
REMARK    1  A    between atoms: C_1  and  C_2
REMARK    2  A    between atoms: C_2  and  C_3
REMARK    3  A    between atoms: N_5  and  C_22
REMARK    4  A    between atoms: C_11  and  C_12
REMARK    5  A    between atoms: C_12  and  C_13
REMARK    6  A    between atoms: C_15  and  O_16
REMARK    7  A    between atoms: C_17  and  O_18
REMARK                            x       y       z     vdW  Elec       q    Type
REMARK                         _______ _______ _______ _____ _____    ______ ____
ROOT
ATOM      1  C   UNL     1       4.589  -4.297  23.729  0.00  0.00    +0.078 A 
ATOM      2  C   UNL     1       5.897  -3.894  23.425  0.00  0.00    +0.106 A 
ATOM      3  C   UNL     1       6.863  -4.278  22.443  0.00  0.00    +0.263 A 
ATOM      4  N   UNL     1       8.084  -3.660  22.624  0.00  0.00    -0.310 N 
ATOM      5  H   UNL     1       8.797  -3.906  21.952  0.00  0.00    +0.170 HD
ATOM      6  C   UNL     1       8.329  -2.724  23.616  0.00  0.00    +0.116 A 
ATOM      7  N   UNL     1       7.421  -2.287  24.442  0.00  0.00    -0.214 NA
ATOM      8  O   UNL     1       6.661  -5.075  21.537  0.00  0.00    -0.267 OA
ATOM      9  C   UNL     1       6.226  -2.931  24.352  0.00  0.00    +0.171 A 
ATOM     10  N   UNL     1       5.105  -2.769  25.166  0.00  0.00    -0.211 N 
ATOM     11  N   UNL     1       4.115  -3.631  24.788  0.00  0.00    -0.169 NA
ENDROOT
BRANCH  10  12
ATOM     12  C   UNL     1       4.894  -1.874  26.257  0.00  0.00    +0.104 A 
ATOM     13  C   UNL     1       4.649  -2.383  27.555  0.00  0.00    +0.069 A 
ATOM     14 CL   UNL     1       4.499  -4.065  27.959  0.00  0.00    -0.081 Cl
ATOM     15  C   UNL     1       4.410  -1.516  28.632  0.00  0.00    +0.042 A 
ATOM     16  C   UNL     1       4.383  -0.145  28.432  0.00  0.00    +0.044 A 
ATOM     17 CL   UNL     1       4.068   0.912  29.752  0.00  0.00    -0.083 Cl
ATOM     18  C   UNL     1       4.633   0.378  27.173  0.00  0.00    +0.042 A 
ATOM     19  C   UNL     1       4.925  -0.474  26.095  0.00  0.00    +0.069 A 
ATOM     20 CL   UNL     1       5.537   0.356  24.699  0.00  0.00    -0.081 Cl
ENDBRANCH  10  12
BRANCH   1  22
ATOM     21  C   UNL     1       2.281  -5.240  23.437  0.00  0.00    +0.010 C 
ATOM     22  C   UNL     1       3.753  -5.342  23.069  0.00  0.00    +0.055 C 
ENDBRANCH   1  22
BRANCH   6  23
ATOM     23  C   UNL     1       9.769  -2.261  23.734  0.00  0.00    +0.109 C 
BRANCH  23  24
ATOM     24  C   UNL     1       9.916  -0.774  23.570  0.00  0.00    -0.036 A 
ATOM     25  C   UNL     1      10.602  -0.019  24.537  0.00  0.00    +0.008 A 
ATOM     26  C   UNL     1      10.818   1.346  24.347  0.00  0.00    +0.049 A 
ATOM     27  C   UNL     1      10.342   1.952  23.195  0.00  0.00    +0.158 A 
ATOM     28  C   UNL     1       9.622   1.226  22.251  0.00  0.00    +0.158 A 
ATOM     29  C   UNL     1       9.407  -0.136  22.425  0.00  0.00    +0.053 A 
BRANCH  27  30
ATOM     30  O   UNL     1      10.599   3.276  22.986  0.00  0.00    -0.503 OA
ATOM     31  H   UNL     1       9.775   3.623  22.588  0.00  0.00    +0.292 HD
ENDBRANCH  27  30
BRANCH  28  32
ATOM     32  O   UNL     1       9.154   1.896  21.155  0.00  0.00    -0.503 OA
ATOM     33  H   UNL     1       9.556   1.497  20.363  0.00  0.00    +0.292 HD
ENDBRANCH  28  32
ENDBRANCH  23  24
ENDBRANCH   6  23
TORSDOF 6
ENDMDL
MODEL 7
REMARK VINA RESULT:      -6.8      3.516      6.560
REMARK  Name = 
REMARK  7 active torsions:
REMARK  status: ('A' for Active; 'I' for Inactive)
REMARK    1  A    between atoms: C_1  and  C_2
REMARK    2  A    between atoms: C_2  and  C_3
REMARK    3  A    between atoms: N_5  and  C_22
REMARK    4  A    between atoms: C_11  and  C_12
REMARK    5  A    between atoms: C_12  and  C_13
REMARK    6  A    between atoms: C_15  and  O_16
REMARK    7  A    between atoms: C_17  and  O_18
REMARK                            x       y       z     vdW  Elec       q    Type
REMARK                         _______ _______ _______ _____ _____    ______ ____
ROOT
ATOM      1  C   UNL     1       7.612   2.206  23.334  0.00  0.00    +0.078 A 
ATOM      2  C   UNL     1       8.381   1.034  23.355  0.00  0.00    +0.106 A 
ATOM      3  C   UNL     1       9.385   0.478  22.502  0.00  0.00    +0.263 A 
ATOM      4  N   UNL     1       9.772  -0.790  22.890  0.00  0.00    -0.310 N 
ATOM      5  H   UNL     1      10.480  -1.222  22.312  0.00  0.00    +0.170 HD
ATOM      6  C   UNL     1       9.282  -1.429  24.017  0.00  0.00    +0.116 A 
ATOM      7  N   UNL     1       8.452  -0.883  24.859  0.00  0.00    -0.214 NA
ATOM      8  O   UNL     1       9.859   1.035  21.522  0.00  0.00    -0.267 OA
ATOM      9  C   UNL     1       7.981   0.333  24.471  0.00  0.00    +0.171 A 
ATOM     10  N   UNL     1       7.007   1.111  25.095  0.00  0.00    -0.211 N 
ATOM     11  N   UNL     1       6.772   2.247  24.374  0.00  0.00    -0.169 NA
ENDROOT
BRANCH  10  12
ATOM     12  C   UNL     1       6.290   0.873  26.306  0.00  0.00    +0.104 A 
ATOM     13  C   UNL     1       6.299   1.841  27.338  0.00  0.00    +0.069 A 
ATOM     14 CL   UNL     1       7.196   3.328  27.310  0.00  0.00    -0.081 Cl
ATOM     15  C   UNL     1       5.623   1.608  28.546  0.00  0.00    +0.042 A 
ATOM     16  C   UNL     1       4.959   0.410  28.755  0.00  0.00    +0.044 A 
ATOM     17 CL   UNL     1       4.151   0.122  30.245  0.00  0.00    -0.083 Cl
ATOM     18  C   UNL     1       4.924  -0.548  27.753  0.00  0.00    +0.042 A 
ATOM     19  C   UNL     1       5.552  -0.309  26.519  0.00  0.00    +0.069 A 
ATOM     20 CL   UNL     1       5.123  -1.454  25.288  0.00  0.00    -0.081 Cl
ENDBRANCH  10  12
BRANCH   1  22
ATOM     21  C   UNL     1       6.526   4.343  22.589  0.00  0.00    +0.010 C 
ATOM     22  C   UNL     1       7.606   3.305  22.325  0.00  0.00    +0.055 C 
ENDBRANCH   1  22
BRANCH   6  23
ATOM     23  C   UNL     1       9.731  -2.867  24.196  0.00  0.00    +0.109 C 
BRANCH  23  24
ATOM     24  C   UNL     1       8.641  -3.752  24.735  0.00  0.00    -0.036 A 
ATOM     25  C   UNL     1       7.494  -4.012  23.964  0.00  0.00    +0.008 A 
ATOM     26  C   UNL     1       6.522  -4.902  24.422  0.00  0.00    +0.049 A 
ATOM     27  C   UNL     1       6.695  -5.521  25.650  0.00  0.00    +0.158 A 
ATOM     28  C   UNL     1       7.803  -5.238  26.443  0.00  0.00    +0.158 A 
ATOM     29  C   UNL     1       8.782  -4.360  25.994  0.00  0.00    +0.053 A 
BRANCH  27  30
ATOM     30  O   UNL     1       5.768  -6.430  26.072  0.00  0.00    -0.503 OA
ATOM     31  H   UNL     1       6.286  -7.243  26.243  0.00  0.00    +0.292 HD
ENDBRANCH  27  30
BRANCH  28  32
ATOM     32  O   UNL     1       7.892  -5.861  27.657  0.00  0.00    -0.503 OA
ATOM     33  H   UNL     1       7.102  -5.627  28.174  0.00  0.00    +0.292 HD
ENDBRANCH  28  32
ENDBRANCH  23  24
ENDBRANCH   6  23
TORSDOF 6
ENDMDL
MODEL 8
REMARK VINA RESULT:      -6.6      4.217      7.946
REMARK  Name = 
REMARK  7 active torsions:
REMARK  status: ('A' for Active; 'I' for Inactive)
REMARK    1  A    between atoms: C_1  and  C_2
REMARK    2  A    between atoms: C_2  and  C_3
REMARK    3  A    between atoms: N_5  and  C_22
REMARK    4  A    between atoms: C_11  and  C_12
REMARK    5  A    between atoms: C_12  and  C_13
REMARK    6  A    between atoms: C_15  and  O_16
REMARK    7  A    between atoms: C_17  and  O_18
REMARK                            x       y       z     vdW  Elec       q    Type
REMARK                         _______ _______ _______ _____ _____    ______ ____
ROOT
ATOM      1  C   UNL     1       4.569   0.890  27.802  0.00  0.00    +0.078 A 
ATOM      2  C   UNL     1       4.325  -0.284  27.076  0.00  0.00    +0.106 A 
ATOM      3  C   UNL     1       3.377  -1.350  27.180  0.00  0.00    +0.263 A 
ATOM      4  N   UNL     1       3.619  -2.369  26.280  0.00  0.00    -0.310 N 
ATOM      5  H   UNL     1       2.973  -3.145  26.322  0.00  0.00    +0.170 HD
ATOM      6  C   UNL     1       4.634  -2.334  25.338  0.00  0.00    +0.116 A 
ATOM      7  N   UNL     1       5.429  -1.316  25.164  0.00  0.00    -0.214 NA
ATOM      8  O   UNL     1       2.452  -1.389  27.980  0.00  0.00    -0.267 OA
ATOM      9  C   UNL     1       5.280  -0.326  26.085  0.00  0.00    +0.171 A 
ATOM     10  N   UNL     1       6.049   0.828  26.230  0.00  0.00    -0.211 N 
ATOM     11  N   UNL     1       5.617   1.554  27.304  0.00  0.00    -0.169 NA
ENDROOT
BRANCH  10  12
ATOM     12  C   UNL     1       7.144   1.297  25.445  0.00  0.00    +0.104 A 
ATOM     13  C   UNL     1       8.390   0.627  25.493  0.00  0.00    +0.069 A 
ATOM     14 CL   UNL     1       8.760  -0.727  26.514  0.00  0.00    -0.081 Cl
ATOM     15  C   UNL     1       9.484   1.094  24.749  0.00  0.00    +0.042 A 
ATOM     16  C   UNL     1       9.367   2.239  23.977  0.00  0.00    +0.044 A 
ATOM     17 CL   UNL     1      10.718   2.819  23.086  0.00  0.00    -0.083 Cl
ATOM     18  C   UNL     1       8.153   2.905  23.903  0.00  0.00    +0.042 A 
ATOM     19  C   UNL     1       7.033   2.421  24.601  0.00  0.00    +0.069 A 
ATOM     20 CL   UNL     1       5.542   3.172  24.128  0.00  0.00    -0.081 Cl
ENDBRANCH  10  12
BRANCH   1  22
ATOM     21  C   UNL     1       4.269   0.698  30.287  0.00  0.00    +0.010 C 
ATOM     22  C   UNL     1       3.859   1.411  29.008  0.00  0.00    +0.055 C 
ENDBRANCH   1  22
BRANCH   6  23
ATOM     23  C   UNL     1       4.818  -3.605  24.531  0.00  0.00    +0.109 C 
BRANCH  23  24
ATOM     24  C   UNL     1       6.133  -4.282  24.806  0.00  0.00    -0.036 A 
ATOM     25  C   UNL     1       7.125  -4.331  23.811  0.00  0.00    +0.008 A 
ATOM     26  C   UNL     1       8.377  -4.879  24.088  0.00  0.00    +0.049 A 
ATOM     27  C   UNL     1       8.630  -5.381  25.355  0.00  0.00    +0.158 A 
ATOM     28  C   UNL     1       7.643  -5.379  26.335  0.00  0.00    +0.158 A 
ATOM     29  C   UNL     1       6.394  -4.829  26.073  0.00  0.00    +0.053 A 
BRANCH  27  30
ATOM     30  O   UNL     1       9.873  -5.870  25.640  0.00  0.00    -0.503 OA
ATOM     31  H   UNL     1       9.858  -6.786  25.299  0.00  0.00    +0.292 HD
ENDBRANCH  27  30
BRANCH  28  32
ATOM     32  O   UNL     1       7.953  -5.922  27.552  0.00  0.00    -0.503 OA
ATOM     33  H   UNL     1       8.842  -6.311  27.490  0.00  0.00    +0.292 HD
ENDBRANCH  28  32
ENDBRANCH  23  24
ENDBRANCH   6  23
TORSDOF 6
ENDMDL
MODEL 9
REMARK VINA RESULT:      -6.6      3.444      6.907
REMARK  Name = 
REMARK  7 active torsions:
REMARK  status: ('A' for Active; 'I' for Inactive)
REMARK    1  A    between atoms: C_1  and  C_2
REMARK    2  A    between atoms: C_2  and  C_3
REMARK    3  A    between atoms: N_5  and  C_22
REMARK    4  A    between atoms: C_11  and  C_12
REMARK    5  A    between atoms: C_12  and  C_13
REMARK    6  A    between atoms: C_15  and  O_16
REMARK    7  A    between atoms: C_17  and  O_18
REMARK                            x       y       z     vdW  Elec       q    Type
REMARK                         _______ _______ _______ _____ _____    ______ ____
ROOT
ATOM      1  C   UNL     1       8.418   2.713  23.844  0.00  0.00    +0.078 A 
ATOM      2  C   UNL     1       8.566   1.395  23.390  0.00  0.00    +0.106 A 
ATOM      3  C   UNL     1       9.336   0.767  22.361  0.00  0.00    +0.263 A 
ATOM      4  N   UNL     1       9.045  -0.575  22.220  0.00  0.00    -0.310 N 
ATOM      5  H   UNL     1       9.566  -1.057  21.501  0.00  0.00    +0.170 HD
ATOM      6  C   UNL     1       8.146  -1.253  23.028  0.00  0.00    +0.116 A 
ATOM      7  N   UNL     1       7.526  -0.712  24.038  0.00  0.00    -0.214 NA
ATOM      8  O   UNL     1      10.160   1.336  21.658  0.00  0.00    -0.267 OA
ATOM      9  C   UNL     1       7.720   0.628  24.161  0.00  0.00    +0.171 A 
ATOM     10  N   UNL     1       7.113   1.500  25.064  0.00  0.00    -0.211 N 
ATOM     11  N   UNL     1       7.532   2.782  24.842  0.00  0.00    -0.169 NA
ENDROOT
BRANCH  10  12
ATOM     12  C   UNL     1       6.181   1.225  26.109  0.00  0.00    +0.104 A 
ATOM     13  C   UNL     1       4.826   1.611  25.973  0.00  0.00    +0.069 A 
ATOM     14 CL   UNL     1       4.167   2.493  24.630  0.00  0.00    -0.081 Cl
ATOM     15  C   UNL     1       3.905   1.373  27.004  0.00  0.00    +0.042 A 
ATOM     16  C   UNL     1       4.318   0.780  28.186  0.00  0.00    +0.044 A 
ATOM     17 CL   UNL     1       3.190   0.512  29.455  0.00  0.00    -0.083 Cl
ATOM     18  C   UNL     1       5.637   0.381  28.338  0.00  0.00    +0.042 A 
ATOM     19  C   UNL     1       6.561   0.564  27.296  0.00  0.00    +0.069 A 
ATOM     20 CL   UNL     1       8.053  -0.290  27.530  0.00  0.00    -0.081 Cl
ENDBRANCH  10  12
BRANCH   1  22
ATOM     21  C   UNL     1      10.532   4.062  23.737  0.00  0.00    +0.010 C 
ATOM     22  C   UNL     1       9.069   3.957  23.335  0.00  0.00    +0.055 C 
ENDBRANCH   1  22
BRANCH   6  23
ATOM     23  C   UNL     1       7.866  -2.689  22.628  0.00  0.00    +0.109 C 
BRANCH  23  24
ATOM     24  C   UNL     1       7.952  -3.643  23.787  0.00  0.00    -0.036 A 
ATOM     25  C   UNL     1       9.151  -3.771  24.511  0.00  0.00    +0.008 A 
ATOM     26  C   UNL     1       9.210  -4.587  25.640  0.00  0.00    +0.049 A 
ATOM     27  C   UNL     1       8.076  -5.277  26.038  0.00  0.00    +0.158 A 
ATOM     28  C   UNL     1       6.896  -5.194  25.305  0.00  0.00    +0.158 A 
ATOM     29  C   UNL     1       6.822  -4.379  24.182  0.00  0.00    +0.053 A 
BRANCH  27  30
ATOM     30  O   UNL     1       8.122  -6.034  27.173  0.00  0.00    -0.503 OA
ATOM     31  H   UNL     1       7.187  -6.110  27.451  0.00  0.00    +0.292 HD
ENDBRANCH  27  30
BRANCH  28  32
ATOM     32  O   UNL     1       5.826  -5.929  25.736  0.00  0.00    -0.503 OA
ATOM     33  H   UNL     1       6.149  -6.809  25.994  0.00  0.00    +0.292 HD
ENDBRANCH  28  32
ENDBRANCH  23  24
ENDBRANCH   6  23
TORSDOF 6
ENDMDL
