MODEL 1
REMARK VINA RESULT:      -7.3      0.000      0.000
REMARK  Name = 
REMARK  5 active torsions:
REMARK  status: ('A' for Active; 'I' for Inactive)
REMARK    1  A    between atoms: O_1  and  C_2
REMARK    2  A    between atoms: C_2  and  C_4
REMARK    3  A    between atoms: C_7  and  C_10
REMARK    4  A    between atoms: C_12  and  C_13
REMARK    5  A    between atoms: C_17  and  N_19
REMARK                            x       y       z     vdW  Elec       q    Type
REMARK                         _______ _______ _______ _____ _____    ______ ____
ROOT
ATOM      1  C   UNL     1       7.743  -1.782  23.607  0.00  0.00    +0.072 A 
ATOM      2  C   UNL     1       7.716  -2.637  22.509  0.00  0.00    +0.038 A 
ATOM      3  C   UNL     1       7.050  -3.861  22.587  0.00  0.00    +0.005 A 
ATOM      4  C   UNL     1       6.368  -4.225  23.757  0.00  0.00    +0.097 A 
ATOM      5  N   UNL     1       5.776  -5.449  23.833  0.00  0.00    -0.253 NA
ATOM      6  C   UNL     1       5.817  -6.289  22.779  0.00  0.00    +0.111 A 
ATOM      7  C   UNL     1       6.447  -5.985  21.596  0.00  0.00    +0.020 A 
ATOM      8  C   UNL     1       6.366  -3.267  24.799  0.00  0.00    +0.098 A 
ATOM      9  C   UNL     1       7.074  -4.751  21.500  0.00  0.00    +0.011 A 
ATOM     10  N   UNL     1       7.052  -2.072  24.736  0.00  0.00    -0.245 NA
ENDROOT
BRANCH   1  14
ATOM     11  C   UNL     1       9.922   1.959  23.438  0.00  0.00    +0.059 A 
ATOM     12  C   UNL     1       9.375   1.508  24.646  0.00  0.00    +0.015 A 
ATOM     13  C   UNL     1       8.698   0.279  24.714  0.00  0.00    +0.011 A 
ATOM     14  C   UNL     1       8.538  -0.528  23.577  0.00  0.00    +0.000 A 
ATOM     15  C   UNL     1       9.133  -0.068  22.381  0.00  0.00    +0.011 A 
ATOM     16  C   UNL     1       9.801   1.162  22.301  0.00  0.00    +0.015 A 
BRANCH  11  17
ATOM     17  C   UNL     1      10.548   3.310  23.406  0.00  0.00    +0.337 C 
ATOM     18  O   UNL     1      11.754   3.476  23.465  0.00  0.00    -0.245 OA
BRANCH  17  19
ATOM     19  O   UNL     1       9.677   4.336  23.299  0.00  0.00    -0.477 OA
ATOM     20  H   UNL     1       9.936   5.161  23.747  0.00  0.00    +0.295 HD
ENDBRANCH  17  19
ENDBRANCH  11  17
ENDBRANCH   1  14
BRANCH   8  21
ATOM     21  C   UNL     1       5.657  -3.527  26.094  0.00  0.00    +0.009 A 
ATOM     22  C   UNL     1       6.105  -4.509  27.006  0.00  0.00    +0.094 A 
ATOM     23  C   UNL     1       5.562  -4.614  28.296  0.00  0.00    +0.274 A 
ATOM     24  C   UNL     1       4.492  -3.808  28.680  0.00  0.00    +0.084 A 
ATOM     25  C   UNL     1       3.972  -2.894  27.764  0.00  0.00    +0.007 A 
ATOM     26  C   UNL     1       4.552  -2.753  26.494  0.00  0.00    +0.010 A 
BRANCH  23  27
ATOM     27  N   UNL     1       6.174  -5.534  29.265  0.00  0.00    +0.080 N 
ATOM     28  O   UNL     1       5.995  -5.313  30.473  0.00  0.00    +0.041 OA
ATOM     29  O   UNL     1       6.822  -6.493  28.819  0.00  0.00    -0.576 OA
ENDBRANCH  23  27
ENDBRANCH   8  21
TORSDOF 5
ENDMDL
MODEL 2
REMARK VINA RESULT:      -7.2      2.711      4.983
REMARK  Name = 
REMARK  5 active torsions:
REMARK  status: ('A' for Active; 'I' for Inactive)
REMARK    1  A    between atoms: O_1  and  C_2
REMARK    2  A    between atoms: C_2  and  C_4
REMARK    3  A    between atoms: C_7  and  C_10
REMARK    4  A    between atoms: C_12  and  C_13
REMARK    5  A    between atoms: C_17  and  N_19
REMARK                            x       y       z     vdW  Elec       q    Type
REMARK                         _______ _______ _______ _____ _____    ______ ____
ROOT
ATOM      1  C   UNL     1       8.126   1.847  24.772  0.00  0.00    +0.072 A 
ATOM      2  C   UNL     1       7.158   2.268  25.680  0.00  0.00    +0.038 A 
ATOM      3  C   UNL     1       6.115   1.414  26.041  0.00  0.00    +0.005 A 
ATOM      4  C   UNL     1       6.051   0.112  25.523  0.00  0.00    +0.097 A 
ATOM      5  N   UNL     1       4.992  -0.683  25.841  0.00  0.00    -0.253 NA
ATOM      6  C   UNL     1       4.031  -0.233  26.673  0.00  0.00    +0.111 A 
ATOM      7  C   UNL     1       4.046   1.022  27.234  0.00  0.00    +0.020 A 
ATOM      8  C   UNL     1       7.117  -0.273  24.675  0.00  0.00    +0.098 A 
ATOM      9  C   UNL     1       5.105   1.858  26.911  0.00  0.00    +0.011 A 
ATOM     10  N   UNL     1       8.130   0.580  24.291  0.00  0.00    -0.245 NA
ENDROOT
BRANCH   1  14
ATOM     11  C   UNL     1      11.251   4.589  23.552  0.00  0.00    +0.059 A 
ATOM     12  C   UNL     1      11.391   3.210  23.342  0.00  0.00    +0.015 A 
ATOM     13  C   UNL     1      10.366   2.321  23.703  0.00  0.00    +0.011 A 
ATOM     14  C   UNL     1       9.179   2.779  24.294  0.00  0.00    +0.000 A 
ATOM     15  C   UNL     1       9.047   4.176  24.459  0.00  0.00    +0.011 A 
ATOM     16  C   UNL     1      10.069   5.071  24.111  0.00  0.00    +0.015 A 
BRANCH  11  17
ATOM     17  C   UNL     1      12.407   5.473  23.234  0.00  0.00    +0.337 C 
ATOM     18  O   UNL     1      12.887   5.548  22.116  0.00  0.00    -0.245 OA
BRANCH  17  19
ATOM     19  O   UNL     1      12.875   6.191  24.277  0.00  0.00    -0.477 OA
ATOM     20  H   UNL     1      13.747   5.924  24.618  0.00  0.00    +0.295 HD
ENDBRANCH  17  19
ENDBRANCH  11  17
ENDBRANCH   1  14
BRANCH   8  21
ATOM     21  C   UNL     1       7.175  -1.644  24.072  0.00  0.00    +0.009 A 
ATOM     22  C   UNL     1       7.862  -2.707  24.699  0.00  0.00    +0.094 A 
ATOM     23  C   UNL     1       7.749  -4.028  24.237  0.00  0.00    +0.274 A 
ATOM     24  C   UNL     1       7.026  -4.311  23.079  0.00  0.00    +0.084 A 
ATOM     25  C   UNL     1       6.416  -3.264  22.390  0.00  0.00    +0.007 A 
ATOM     26  C   UNL     1       6.485  -1.953  22.885  0.00  0.00    +0.010 A 
BRANCH  23  27
ATOM     27  N   UNL     1       8.341  -5.122  25.019  0.00  0.00    +0.080 N 
ATOM     28  O   UNL     1       9.508  -5.457  24.764  0.00  0.00    +0.041 OA
ATOM     29  O   UNL     1       7.644  -5.639  25.905  0.00  0.00    -0.576 OA
ENDBRANCH  23  27
ENDBRANCH   8  21
TORSDOF 5
ENDMDL
MODEL 3
REMARK VINA RESULT:      -7.1      3.381      5.400
REMARK  Name = 
REMARK  5 active torsions:
REMARK  status: ('A' for Active; 'I' for Inactive)
REMARK    1  A    between atoms: O_1  and  C_2
REMARK    2  A    between atoms: C_2  and  C_4
REMARK    3  A    between atoms: C_7  and  C_10
REMARK    4  A    between atoms: C_12  and  C_13
REMARK    5  A    between atoms: C_17  and  N_19
REMARK                            x       y       z     vdW  Elec       q    Type
REMARK                         _______ _______ _______ _____ _____    ______ ____
ROOT
ATOM      1  C   UNL     1       8.149   1.666  24.942  0.00  0.00    +0.072 A 
ATOM      2  C   UNL     1       7.103   2.129  25.736  0.00  0.00    +0.038 A 
ATOM      3  C   UNL     1       6.091   1.258  26.143  0.00  0.00    +0.005 A 
ATOM      4  C   UNL     1       6.136  -0.098  25.789  0.00  0.00    +0.097 A 
ATOM      5  N   UNL     1       5.108  -0.917  26.145  0.00  0.00    -0.253 NA
ATOM      6  C   UNL     1       4.071  -0.433  26.859  0.00  0.00    +0.111 A 
ATOM      7  C   UNL     1       3.977   0.878  27.259  0.00  0.00    +0.020 A 
ATOM      8  C   UNL     1       7.274  -0.513  25.056  0.00  0.00    +0.098 A 
ATOM      9  C   UNL     1       5.003   1.737  26.893  0.00  0.00    +0.011 A 
ATOM     10  N   UNL     1       8.257   0.353  24.625  0.00  0.00    -0.245 NA
ENDROOT
BRANCH   1  14
ATOM     11  C   UNL     1      11.195   4.421  23.564  0.00  0.00    +0.059 A 
ATOM     12  C   UNL     1      11.355   3.039  23.394  0.00  0.00    +0.015 A 
ATOM     13  C   UNL     1      10.355   2.144  23.807  0.00  0.00    +0.011 A 
ATOM     14  C   UNL     1       9.174   2.600  24.412  0.00  0.00    +0.000 A 
ATOM     15  C   UNL     1       9.021   3.999  24.536  0.00  0.00    +0.011 A 
ATOM     16  C   UNL     1      10.019   4.900  24.137  0.00  0.00    +0.015 A 
BRANCH  11  17
ATOM     17  C   UNL     1      12.327   5.314  23.192  0.00  0.00    +0.337 C 
ATOM     18  O   UNL     1      12.743   5.405  22.049  0.00  0.00    -0.245 OA
BRANCH  17  19
ATOM     19  O   UNL     1      12.852   6.021  24.214  0.00  0.00    -0.477 OA
ATOM     20  H   UNL     1      13.824   6.022  24.276  0.00  0.00    +0.295 HD
ENDBRANCH  17  19
ENDBRANCH  11  17
ENDBRANCH   1  14
BRANCH   8  21
ATOM     21  C   UNL     1       7.450  -1.939  24.633  0.00  0.00    +0.009 A 
ATOM     22  C   UNL     1       6.741  -2.488  23.541  0.00  0.00    +0.094 A 
ATOM     23  C   UNL     1       7.052  -3.756  23.027  0.00  0.00    +0.274 A 
ATOM     24  C   UNL     1       8.013  -4.554  23.647  0.00  0.00    +0.084 A 
ATOM     25  C   UNL     1       8.661  -4.071  24.783  0.00  0.00    +0.007 A 
ATOM     26  C   UNL     1       8.387  -2.781  25.262  0.00  0.00    +0.010 A 
BRANCH  23  27
ATOM     27  N   UNL     1       6.407  -4.213  21.788  0.00  0.00    +0.080 N 
ATOM     28  O   UNL     1       6.776  -5.292  21.301  0.00  0.00    +0.041 OA
ATOM     29  O   UNL     1       5.515  -3.498  21.306  0.00  0.00    -0.576 OA
ENDBRANCH  23  27
ENDBRANCH   8  21
TORSDOF 5
ENDMDL
MODEL 4
REMARK VINA RESULT:      -7.0      1.388      1.754
REMARK  Name = 
REMARK  5 active torsions:
REMARK  status: ('A' for Active; 'I' for Inactive)
REMARK    1  A    between atoms: O_1  and  C_2
REMARK    2  A    between atoms: C_2  and  C_4
REMARK    3  A    between atoms: C_7  and  C_10
REMARK    4  A    between atoms: C_12  and  C_13
REMARK    5  A    between atoms: C_17  and  N_19
REMARK                            x       y       z     vdW  Elec       q    Type
REMARK                         _______ _______ _______ _____ _____    ______ ____
ROOT
ATOM      1  C   UNL     1       7.894  -1.852  23.558  0.00  0.00    +0.072 A 
ATOM      2  C   UNL     1       7.579  -2.532  22.385  0.00  0.00    +0.038 A 
ATOM      3  C   UNL     1       6.953  -3.778  22.442  0.00  0.00    +0.005 A 
ATOM      4  C   UNL     1       6.601  -4.341  23.678  0.00  0.00    +0.097 A 
ATOM      5  N   UNL     1       6.046  -5.583  23.714  0.00  0.00    -0.253 NA
ATOM      6  C   UNL     1       5.808  -6.254  22.568  0.00  0.00    +0.111 A 
ATOM      7  C   UNL     1       6.106  -5.750  21.324  0.00  0.00    +0.020 A 
ATOM      8  C   UNL     1       6.874  -3.551  24.821  0.00  0.00    +0.098 A 
ATOM      9  C   UNL     1       6.689  -4.493  21.262  0.00  0.00    +0.011 A 
ATOM     10  N   UNL     1       7.523  -2.335  24.769  0.00  0.00    -0.245 NA
ENDROOT
BRANCH   1  14
ATOM     11  C   UNL     1       9.972   1.946  23.373  0.00  0.00    +0.059 A 
ATOM     12  C   UNL     1       9.520   1.440  24.600  0.00  0.00    +0.015 A 
ATOM     13  C   UNL     1       8.878   0.193  24.670  0.00  0.00    +0.011 A 
ATOM     14  C   UNL     1       8.657  -0.578  23.519  0.00  0.00    +0.000 A 
ATOM     15  C   UNL     1       9.156  -0.063  22.301  0.00  0.00    +0.011 A 
ATOM     16  C   UNL     1       9.789   1.186  22.220  0.00  0.00    +0.015 A 
BRANCH  11  17
ATOM     17  C   UNL     1      10.563   3.313  23.347  0.00  0.00    +0.337 C 
ATOM     18  O   UNL     1      11.761   3.511  23.456  0.00  0.00    -0.245 OA
BRANCH  17  19
ATOM     19  O   UNL     1       9.672   4.313  23.185  0.00  0.00    -0.477 OA
ATOM     20  H   UNL     1       9.139   4.538  23.969  0.00  0.00    +0.295 HD
ENDBRANCH  17  19
ENDBRANCH  11  17
ENDBRANCH   1  14
BRANCH   8  21
ATOM     21  C   UNL     1       6.529  -4.030  26.198  0.00  0.00    +0.009 A 
ATOM     22  C   UNL     1       5.462  -3.473  26.938  0.00  0.00    +0.094 A 
ATOM     23  C   UNL     1       5.018  -4.053  28.137  0.00  0.00    +0.274 A 
ATOM     24  C   UNL     1       5.687  -5.147  28.682  0.00  0.00    +0.084 A 
ATOM     25  C   UNL     1       6.801  -5.658  28.017  0.00  0.00    +0.007 A 
ATOM     26  C   UNL     1       7.209  -5.110  26.791  0.00  0.00    +0.010 A 
BRANCH  23  27
ATOM     27  N   UNL     1       3.800  -3.541  28.781  0.00  0.00    +0.080 N 
ATOM     28  O   UNL     1       2.782  -4.249  28.749  0.00  0.00    +0.041 OA
ATOM     29  O   UNL     1       3.864  -2.434  29.336  0.00  0.00    -0.576 OA
ENDBRANCH  23  27
ENDBRANCH   8  21
TORSDOF 5
ENDMDL
MODEL 5
REMARK VINA RESULT:      -6.8      4.408      8.440
REMARK  Name = 
REMARK  5 active torsions:
REMARK  status: ('A' for Active; 'I' for Inactive)
REMARK    1  A    between atoms: O_1  and  C_2
REMARK    2  A    between atoms: C_2  and  C_4
REMARK    3  A    between atoms: C_7  and  C_10
REMARK    4  A    between atoms: C_12  and  C_13
REMARK    5  A    between atoms: C_17  and  N_19
REMARK                            x       y       z     vdW  Elec       q    Type
REMARK                         _______ _______ _______ _____ _____    ______ ____
ROOT
ATOM      1  C   UNL     1       9.250   1.080  24.462  0.00  0.00    +0.072 A 
ATOM      2  C   UNL     1      10.436   1.735  24.142  0.00  0.00    +0.038 A 
ATOM      3  C   UNL     1      10.441   3.112  23.919  0.00  0.00    +0.005 A 
ATOM      4  C   UNL     1       9.260   3.857  24.050  0.00  0.00    +0.097 A 
ATOM      5  N   UNL     1       9.274   5.189  23.768  0.00  0.00    -0.253 NA
ATOM      6  C   UNL     1      10.422   5.792  23.397  0.00  0.00    +0.111 A 
ATOM      7  C   UNL     1      11.617   5.126  23.273  0.00  0.00    +0.020 A 
ATOM      8  C   UNL     1       8.112   3.136  24.463  0.00  0.00    +0.098 A 
ATOM      9  C   UNL     1      11.625   3.764  23.537  0.00  0.00    +0.011 A 
ATOM     10  N   UNL     1       8.099   1.770  24.651  0.00  0.00    -0.245 NA
ENDROOT
BRANCH   1  14
ATOM     11  C   UNL     1       9.299  -3.229  24.911  0.00  0.00    +0.059 A 
ATOM     12  C   UNL     1       8.614  -2.425  25.833  0.00  0.00    +0.015 A 
ATOM     13  C   UNL     1       8.566  -1.030  25.672  0.00  0.00    +0.011 A 
ATOM     14  C   UNL     1       9.208  -0.399  24.596  0.00  0.00    +0.000 A 
ATOM     15  C   UNL     1       9.857  -1.236  23.661  0.00  0.00    +0.011 A 
ATOM     16  C   UNL     1       9.920  -2.628  23.819  0.00  0.00    +0.015 A 
BRANCH  11  17
ATOM     17  C   UNL     1       9.394  -4.690  25.183  0.00  0.00    +0.337 C 
ATOM     18  O   UNL     1       9.198  -5.531  24.323  0.00  0.00    -0.245 OA
BRANCH  17  19
ATOM     19  O   UNL     1       9.721  -5.011  26.452  0.00  0.00    -0.477 OA
ATOM     20  H   UNL     1       9.776  -5.963  26.649  0.00  0.00    +0.295 HD
ENDBRANCH  17  19
ENDBRANCH  11  17
ENDBRANCH   1  14
BRANCH   8  21
ATOM     21  C   UNL     1       6.793   3.820  24.658  0.00  0.00    +0.009 A 
ATOM     22  C   UNL     1       5.735   3.680  23.732  0.00  0.00    +0.094 A 
ATOM     23  C   UNL     1       4.445   4.155  24.014  0.00  0.00    +0.274 A 
ATOM     24  C   UNL     1       4.196   4.869  25.185  0.00  0.00    +0.084 A 
ATOM     25  C   UNL     1       5.247   5.101  26.071  0.00  0.00    +0.007 A 
ATOM     26  C   UNL     1       6.522   4.577  25.813  0.00  0.00    +0.010 A 
BRANCH  23  27
ATOM     27  N   UNL     1       3.340   3.837  23.098  0.00  0.00    +0.080 N 
ATOM     28  O   UNL     1       3.190   4.550  22.095  0.00  0.00    +0.041 OA
ATOM     29  O   UNL     1       2.628   2.860  23.374  0.00  0.00    -0.576 OA
ENDBRANCH  23  27
ENDBRANCH   8  21
TORSDOF 5
ENDMDL
MODEL 6
REMARK VINA RESULT:      -6.6      2.750      7.835
REMARK  Name = 
REMARK  5 active torsions:
REMARK  status: ('A' for Active; 'I' for Inactive)
REMARK    1  A    between atoms: O_1  and  C_2
REMARK    2  A    between atoms: C_2  and  C_4
REMARK    3  A    between atoms: C_7  and  C_10
REMARK    4  A    between atoms: C_12  and  C_13
REMARK    5  A    between atoms: C_17  and  N_19
REMARK                            x       y       z     vdW  Elec       q    Type
REMARK                         _______ _______ _______ _____ _____    ______ ____
ROOT
ATOM      1  C   UNL     1       7.428  -2.092  25.237  0.00  0.00    +0.072 A 
ATOM      2  C   UNL     1       8.239  -2.288  24.123  0.00  0.00    +0.038 A 
ATOM      3  C   UNL     1       8.517  -1.226  23.260  0.00  0.00    +0.005 A 
ATOM      4  C   UNL     1       8.014   0.056  23.527  0.00  0.00    +0.097 A 
ATOM      5  N   UNL     1       8.247   1.063  22.641  0.00  0.00    -0.253 NA
ATOM      6  C   UNL     1       8.981   0.836  21.533  0.00  0.00    +0.111 A 
ATOM      7  C   UNL     1       9.523  -0.389  21.225  0.00  0.00    +0.020 A 
ATOM      8  C   UNL     1       7.271   0.196  24.725  0.00  0.00    +0.098 A 
ATOM      9  C   UNL     1       9.285  -1.436  22.103  0.00  0.00    +0.011 A 
ATOM     10  N   UNL     1       6.968  -0.859  25.559  0.00  0.00    -0.245 NA
ENDROOT
BRANCH   1  14
ATOM     11  C   UNL     1       6.406  -5.367  27.883  0.00  0.00    +0.059 A 
ATOM     12  C   UNL     1       5.567  -4.250  27.776  0.00  0.00    +0.015 A 
ATOM     13  C   UNL     1       5.876  -3.202  26.894  0.00  0.00    +0.011 A 
ATOM     14  C   UNL     1       7.034  -3.233  26.103  0.00  0.00    +0.000 A 
ATOM     15  C   UNL     1       7.842  -4.388  26.202  0.00  0.00    +0.011 A 
ATOM     16  C   UNL     1       7.548  -5.435  27.087  0.00  0.00    +0.015 A 
BRANCH  11  17
ATOM     17  C   UNL     1       6.077  -6.404  28.901  0.00  0.00    +0.337 C 
ATOM     18  O   UNL     1       6.322  -6.259  30.087  0.00  0.00    -0.245 OA
BRANCH  17  19
ATOM     19  O   UNL     1       5.481  -7.510  28.411  0.00  0.00    -0.477 OA
ATOM     20  H   UNL     1       4.521  -7.444  28.260  0.00  0.00    +0.295 HD
ENDBRANCH  17  19
ENDBRANCH  11  17
ENDBRANCH   1  14
BRANCH   8  21
ATOM     21  C   UNL     1       6.696   1.518  25.132  0.00  0.00    +0.009 A 
ATOM     22  C   UNL     1       7.495   2.539  25.694  0.00  0.00    +0.094 A 
ATOM     23  C   UNL     1       6.997   3.837  25.890  0.00  0.00    +0.274 A 
ATOM     24  C   UNL     1       5.661   4.128  25.622  0.00  0.00    +0.084 A 
ATOM     25  C   UNL     1       4.828   3.112  25.154  0.00  0.00    +0.007 A 
ATOM     26  C   UNL     1       5.342   1.830  24.907  0.00  0.00    +0.010 A 
BRANCH  23  27
ATOM     27  N   UNL     1       7.911   4.906  26.315  0.00  0.00    +0.080 N 
ATOM     28  O   UNL     1       8.812   5.249  25.535  0.00  0.00    +0.041 OA
ATOM     29  O   UNL     1       7.719   5.418  27.429  0.00  0.00    -0.576 OA
ENDBRANCH  23  27
ENDBRANCH   8  21
TORSDOF 5
ENDMDL
MODEL 7
REMARK VINA RESULT:      -6.5      4.638      9.120
REMARK  Name = 
REMARK  5 active torsions:
REMARK  status: ('A' for Active; 'I' for Inactive)
REMARK    1  A    between atoms: O_1  and  C_2
REMARK    2  A    between atoms: C_2  and  C_4
REMARK    3  A    between atoms: C_7  and  C_10
REMARK    4  A    between atoms: C_12  and  C_13
REMARK    5  A    between atoms: C_17  and  N_19
REMARK                            x       y       z     vdW  Elec       q    Type
REMARK                         _______ _______ _______ _____ _____    ______ ____
ROOT
ATOM      1  C   UNL     1       8.471   1.520  23.392  0.00  0.00    +0.072 A 
ATOM      2  C   UNL     1       9.804   1.917  23.346  0.00  0.00    +0.038 A 
ATOM      3  C   UNL     1      10.142   3.264  23.487  0.00  0.00    +0.005 A 
ATOM      4  C   UNL     1       9.146   4.225  23.714  0.00  0.00    +0.097 A 
ATOM      5  N   UNL     1       9.491   5.540  23.788  0.00  0.00    -0.253 NA
ATOM      6  C   UNL     1      10.783   5.911  23.675  0.00  0.00    +0.111 A 
ATOM      7  C   UNL     1      11.809   5.018  23.476  0.00  0.00    +0.020 A 
ATOM      8  C   UNL     1       7.824   3.735  23.836  0.00  0.00    +0.098 A 
ATOM      9  C   UNL     1      11.481   3.673  23.379  0.00  0.00    +0.011 A 
ATOM     10  N   UNL     1       7.485   2.409  23.664  0.00  0.00    -0.245 NA
ENDROOT
BRANCH   1  14
ATOM     11  C   UNL     1       7.244  -2.541  22.511  0.00  0.00    +0.059 A 
ATOM     12  C   UNL     1       8.516  -2.086  22.140  0.00  0.00    +0.015 A 
ATOM     13  C   UNL     1       8.932  -0.781  22.455  0.00  0.00    +0.011 A 
ATOM     14  C   UNL     1       8.087   0.108  23.136  0.00  0.00    +0.000 A 
ATOM     15  C   UNL     1       6.825  -0.389  23.532  0.00  0.00    +0.011 A 
ATOM     16  C   UNL     1       6.397  -1.686  23.213  0.00  0.00    +0.015 A 
BRANCH  11  17
ATOM     17  C   UNL     1       6.824  -3.901  22.070  0.00  0.00    +0.337 C 
ATOM     18  O   UNL     1       7.405  -4.913  22.422  0.00  0.00    -0.245 OA
BRANCH  17  19
ATOM     19  O   UNL     1       5.747  -3.926  21.257  0.00  0.00    -0.477 OA
ATOM     20  H   UNL     1       4.884  -4.012  21.699  0.00  0.00    +0.295 HD
ENDBRANCH  17  19
ENDBRANCH  11  17
ENDBRANCH   1  14
BRANCH   8  21
ATOM     21  C   UNL     1       6.673   4.658  24.098  0.00  0.00    +0.009 A 
ATOM     22  C   UNL     1       5.755   5.013  23.085  0.00  0.00    +0.094 A 
ATOM     23  C   UNL     1       4.573   5.713  23.377  0.00  0.00    +0.274 A 
ATOM     24  C   UNL     1       4.321   6.163  24.672  0.00  0.00    +0.084 A 
ATOM     25  C   UNL     1       5.259   5.905  25.672  0.00  0.00    +0.007 A 
ATOM     26  C   UNL     1       6.412   5.157  25.388  0.00  0.00    +0.010 A 
BRANCH  23  27
ATOM     27  N   UNL     1       3.569   5.911  22.323  0.00  0.00    +0.080 N 
ATOM     28  O   UNL     1       3.081   4.905  21.786  0.00  0.00    +0.041 OA
ATOM     29  O   UNL     1       3.254   7.076  22.039  0.00  0.00    -0.576 OA
ENDBRANCH  23  27
ENDBRANCH   8  21
TORSDOF 5
ENDMDL
MODEL 8
REMARK VINA RESULT:      -6.5      3.199      3.780
REMARK  Name = 
REMARK  5 active torsions:
REMARK  status: ('A' for Active; 'I' for Inactive)
REMARK    1  A    between atoms: O_1  and  C_2
REMARK    2  A    between atoms: C_2  and  C_4
REMARK    3  A    between atoms: C_7  and  C_10
REMARK    4  A    between atoms: C_12  and  C_13
REMARK    5  A    between atoms: C_17  and  N_19
REMARK                            x       y       z     vdW  Elec       q    Type
REMARK                         _______ _______ _______ _____ _____    ______ ____
ROOT
ATOM      1  C   UNL     1       7.556  -0.472  23.859  0.00  0.00    +0.072 A 
ATOM      2  C   UNL     1       8.702  -1.256  23.962  0.00  0.00    +0.038 A 
ATOM      3  C   UNL     1       8.611  -2.581  24.391  0.00  0.00    +0.005 A 
ATOM      4  C   UNL     1       7.362  -3.148  24.685  0.00  0.00    +0.097 A 
ATOM      5  N   UNL     1       7.301  -4.423  25.159  0.00  0.00    -0.253 NA
ATOM      6  C   UNL     1       8.430  -5.144  25.314  0.00  0.00    +0.111 A 
ATOM      7  C   UNL     1       9.682  -4.657  25.021  0.00  0.00    +0.020 A 
ATOM      8  C   UNL     1       6.235  -2.316  24.472  0.00  0.00    +0.098 A 
ATOM      9  C   UNL     1       9.772  -3.354  24.554  0.00  0.00    +0.011 A 
ATOM     10  N   UNL     1       6.327  -0.997  24.081  0.00  0.00    -0.245 NA
ENDROOT
BRANCH   1  14
ATOM     11  C   UNL     1       7.673   3.760  22.937  0.00  0.00    +0.059 A 
ATOM     12  C   UNL     1       8.567   3.208  23.864  0.00  0.00    +0.015 A 
ATOM     13  C   UNL     1       8.557   1.831  24.140  0.00  0.00    +0.011 A 
ATOM     14  C   UNL     1       7.648   0.969  23.509  0.00  0.00    +0.000 A 
ATOM     15  C   UNL     1       6.784   1.544  22.551  0.00  0.00    +0.011 A 
ATOM     16  C   UNL     1       6.779   2.920  22.276  0.00  0.00    +0.015 A 
BRANCH  11  17
ATOM     17  C   UNL     1       7.668   5.238  22.753  0.00  0.00    +0.337 C 
ATOM     18  O   UNL     1       7.865   6.014  23.672  0.00  0.00    -0.245 OA
BRANCH  17  19
ATOM     19  O   UNL     1       7.437   5.652  21.489  0.00  0.00    -0.477 OA
ATOM     20  H   UNL     1       6.659   6.224  21.366  0.00  0.00    +0.295 HD
ENDBRANCH  17  19
ENDBRANCH  11  17
ENDBRANCH   1  14
BRANCH   8  21
ATOM     21  C   UNL     1       4.845  -2.809  24.732  0.00  0.00    +0.009 A 
ATOM     22  C   UNL     1       4.223  -3.765  23.897  0.00  0.00    +0.094 A 
ATOM     23  C   UNL     1       3.007  -4.369  24.252  0.00  0.00    +0.274 A 
ATOM     24  C   UNL     1       2.327  -3.966  25.401  0.00  0.00    +0.084 A 
ATOM     25  C   UNL     1       2.876  -2.958  26.192  0.00  0.00    +0.007 A 
ATOM     26  C   UNL     1       4.119  -2.395  25.864  0.00  0.00    +0.010 A 
BRANCH  23  27
ATOM     27  N   UNL     1       2.485  -5.478  23.440  0.00  0.00    +0.080 N 
ATOM     28  O   UNL     1       3.244  -6.002  22.612  0.00  0.00    +0.041 OA
ATOM     29  O   UNL     1       1.315  -5.838  23.642  0.00  0.00    -0.576 OA
ENDBRANCH  23  27
ENDBRANCH   8  21
TORSDOF 5
ENDMDL
MODEL 9
REMARK VINA RESULT:      -6.5      4.464      8.555
REMARK  Name = 
REMARK  5 active torsions:
REMARK  status: ('A' for Active; 'I' for Inactive)
REMARK    1  A    between atoms: O_1  and  C_2
REMARK    2  A    between atoms: C_2  and  C_4
REMARK    3  A    between atoms: C_7  and  C_10
REMARK    4  A    between atoms: C_12  and  C_13
REMARK    5  A    between atoms: C_17  and  N_19
REMARK                            x       y       z     vdW  Elec       q    Type
REMARK                         _______ _______ _______ _____ _____    ______ ____
ROOT
ATOM      1  C   UNL     1       9.323   1.261  24.279  0.00  0.00    +0.072 A 
ATOM      2  C   UNL     1      10.480   2.010  24.082  0.00  0.00    +0.038 A 
ATOM      3  C   UNL     1      10.398   3.385  23.856  0.00  0.00    +0.005 A 
ATOM      4  C   UNL     1       9.154   4.032  23.862  0.00  0.00    +0.097 A 
ATOM      5  N   UNL     1       9.091   5.363  23.580  0.00  0.00    -0.253 NA
ATOM      6  C   UNL     1      10.219   6.057  23.327  0.00  0.00    +0.111 A 
ATOM      7  C   UNL     1      11.471   5.489  23.330  0.00  0.00    +0.020 A 
ATOM      8  C   UNL     1       8.031   3.220  24.156  0.00  0.00    +0.098 A 
ATOM      9  C   UNL     1      11.560   4.131  23.597  0.00  0.00    +0.011 A 
ATOM     10  N   UNL     1       8.108   1.857  24.347  0.00  0.00    -0.245 NA
ENDROOT
BRANCH   1  14
ATOM     11  C   UNL     1       9.330  -3.058  24.619  0.00  0.00    +0.059 A 
ATOM     12  C   UNL     1       9.955  -2.428  23.534  0.00  0.00    +0.015 A 
ATOM     13  C   UNL     1       9.986  -1.028  23.438  0.00  0.00    +0.011 A 
ATOM     14  C   UNL     1       9.385  -0.217  24.413  0.00  0.00    +0.000 A 
ATOM     15  C   UNL     1       8.797  -0.876  25.515  0.00  0.00    +0.011 A 
ATOM     16  C   UNL     1       8.752  -2.274  25.615  0.00  0.00    +0.015 A 
BRANCH  11  17
ATOM     17  C   UNL     1       9.248  -4.545  24.622  0.00  0.00    +0.337 C 
ATOM     18  O   UNL     1       8.271  -5.149  24.213  0.00  0.00    -0.245 OA
BRANCH  17  19
ATOM     19  O   UNL     1      10.341  -5.173  25.104  0.00  0.00    -0.477 OA
ATOM     20  H   UNL     1      11.023  -5.402  24.447  0.00  0.00    +0.295 HD
ENDBRANCH  17  19
ENDBRANCH  11  17
ENDBRANCH   1  14
BRANCH   8  21
ATOM     21  C   UNL     1       6.649   3.795  24.212  0.00  0.00    +0.009 A 
ATOM     22  C   UNL     1       6.070   4.233  25.424  0.00  0.00    +0.094 A 
ATOM     23  C   UNL     1       4.862   4.948  25.444  0.00  0.00    +0.274 A 
ATOM     24  C   UNL     1       4.149   5.164  24.266  0.00  0.00    +0.084 A 
ATOM     25  C   UNL     1       4.655   4.660  23.068  0.00  0.00    +0.007 A 
ATOM     26  C   UNL     1       5.889   3.993  23.044  0.00  0.00    +0.010 A 
BRANCH  23  27
ATOM     27  N   UNL     1       4.387   5.530  26.707  0.00  0.00    +0.080 N 
ATOM     28  O   UNL     1       5.174   5.569  27.665  0.00  0.00    +0.041 OA
ATOM     29  O   UNL     1       3.225   5.964  26.739  0.00  0.00    -0.576 OA
ENDBRANCH  23  27
ENDBRANCH   8  21
TORSDOF 5
ENDMDL
