MODEL 1
REMARK VINA RESULT:      -6.0      0.000      0.000
REMARK  Name = 
REMARK  3 active torsions:
REMARK  status: ('A' for Active; 'I' for Inactive)
REMARK    1  A    between atoms: C_1  and  O_2
REMARK    2  A    between atoms: O_2  and  C_3
REMARK    3  A    between atoms: C_14  and  C_15
REMARK                            x       y       z     vdW  Elec       q    Type
REMARK                         _______ _______ _______ _____ _____    ______ ____
ROOT
ATOM      1  C   UNL     1      10.123   1.029  22.868  0.00  0.00    +0.122 A 
ATOM      2  C   UNL     1       9.512   0.037  22.096  0.00  0.00    +0.071 A 
ATOM      3  C   UNL     1       9.123  -1.145  22.744  0.00  0.00    +0.051 A 
ATOM      4  N   UNL     1       8.512  -2.268  22.240  0.00  0.00    -0.353 N 
ATOM      5  H   UNL     1       8.253  -2.389  21.272  0.00  0.00    +0.166 HD
ATOM      6  C   UNL     1       8.294  -3.200  23.227  0.00  0.00    +0.069 A 
ATOM      7  C   UNL     1       7.698  -4.464  23.162  0.00  0.00    +0.062 A 
ATOM      8  C   UNL     1       7.154  -5.072  21.909  0.00  0.00    +0.068 C 
ATOM      9  N   UNL     1       7.610  -5.182  24.314  0.00  0.00    -0.258 NA
ATOM     10  C   UNL     1       8.093  -4.666  25.465  0.00  0.00    +0.112 A 
ATOM     11  C   UNL     1       8.693  -3.423  25.583  0.00  0.00    +0.030 A 
ATOM     12  C   UNL     1       8.794  -2.661  24.411  0.00  0.00    +0.011 A 
ATOM     13  C   UNL     1       9.325  -1.367  24.105  0.00  0.00    +0.008 A 
ATOM     14  C   UNL     1       9.962  -0.362  24.860  0.00  0.00    +0.014 A 
ATOM     15  C   UNL     1      10.362   0.823  24.226  0.00  0.00    +0.046 A 
ENDROOT
BRANCH   1  17
ATOM     16  C   UNL     1      10.935   3.192  23.360  0.00  0.00    +0.277 C 
ATOM     17  O   UNL     1      10.568   2.229  22.376  0.00  0.00    -0.495 OA
ENDBRANCH   1  17
TORSDOF 1
ENDMDL
MODEL 2
REMARK VINA RESULT:      -5.9      1.159      2.414
REMARK  Name = 
REMARK  3 active torsions:
REMARK  status: ('A' for Active; 'I' for Inactive)
REMARK    1  A    between atoms: C_1  and  O_2
REMARK    2  A    between atoms: O_2  and  C_3
REMARK    3  A    between atoms: C_14  and  C_15
REMARK                            x       y       z     vdW  Elec       q    Type
REMARK                         _______ _______ _______ _____ _____    ______ ____
ROOT
ATOM      1  C   UNL     1      10.291   1.831  23.158  0.00  0.00    +0.122 A 
ATOM      2  C   UNL     1      10.240   0.983  24.268  0.00  0.00    +0.071 A 
ATOM      3  C   UNL     1       9.626  -0.268  24.104  0.00  0.00    +0.051 A 
ATOM      4  N   UNL     1       9.438  -1.284  25.010  0.00  0.00    -0.353 N 
ATOM      5  H   UNL     1       9.737  -1.251  25.973  0.00  0.00    +0.166 HD
ATOM      6  C   UNL     1       8.796  -2.353  24.431  0.00  0.00    +0.069 A 
ATOM      7  C   UNL     1       8.419  -3.585  24.976  0.00  0.00    +0.062 A 
ATOM      8  C   UNL     1       8.664  -3.986  26.394  0.00  0.00    +0.068 C 
ATOM      9  N   UNL     1       7.789  -4.472  24.159  0.00  0.00    -0.258 NA
ATOM     10  C   UNL     1       7.548  -4.143  22.870  0.00  0.00    +0.112 A 
ATOM     11  C   UNL     1       7.899  -2.939  22.283  0.00  0.00    +0.030 A 
ATOM     12  C   UNL     1       8.551  -2.007  23.103  0.00  0.00    +0.011 A 
ATOM     13  C   UNL     1       9.068  -0.688  22.898  0.00  0.00    +0.008 A 
ATOM     14  C   UNL     1       9.112   0.191  21.798  0.00  0.00    +0.014 A 
ATOM     15  C   UNL     1       9.716   1.447  21.947  0.00  0.00    +0.046 A 
ENDROOT
BRANCH   1  17
ATOM     16  C   UNL     1      10.043   4.101  23.762  0.00  0.00    +0.277 C 
ATOM     17  O   UNL     1      10.845   3.084  23.166  0.00  0.00    -0.495 OA
ENDBRANCH   1  17
TORSDOF 1
ENDMDL
MODEL 3
REMARK VINA RESULT:      -5.8      1.980      2.870
REMARK  Name = 
REMARK  3 active torsions:
REMARK  status: ('A' for Active; 'I' for Inactive)
REMARK    1  A    between atoms: C_1  and  O_2
REMARK    2  A    between atoms: O_2  and  C_3
REMARK    3  A    between atoms: C_14  and  C_15
REMARK                            x       y       z     vdW  Elec       q    Type
REMARK                         _______ _______ _______ _____ _____    ______ ____
ROOT
ATOM      1  C   UNL     1       9.103  -1.740  22.279  0.00  0.00    +0.122 A 
ATOM      2  C   UNL     1       7.982  -2.573  22.205  0.00  0.00    +0.071 A 
ATOM      3  C   UNL     1       7.684  -3.364  23.324  0.00  0.00    +0.051 A 
ATOM      4  N   UNL     1       6.661  -4.259  23.525  0.00  0.00    -0.353 N 
ATOM      5  H   UNL     1       5.950  -4.474  22.841  0.00  0.00    +0.166 HD
ATOM      6  C   UNL     1       6.729  -4.818  24.779  0.00  0.00    +0.069 A 
ATOM      7  C   UNL     1       5.895  -5.755  25.398  0.00  0.00    +0.062 A 
ATOM      8  C   UNL     1       4.692  -6.364  24.753  0.00  0.00    +0.068 C 
ATOM      9  N   UNL     1       6.202  -6.134  26.668  0.00  0.00    -0.258 NA
ATOM     10  C   UNL     1       7.284  -5.606  27.282  0.00  0.00    +0.112 A 
ATOM     11  C   UNL     1       8.141  -4.679  26.714  0.00  0.00    +0.030 A 
ATOM     12  C   UNL     1       7.846  -4.269  25.407  0.00  0.00    +0.011 A 
ATOM     13  C   UNL     1       8.454  -3.357  24.486  0.00  0.00    +0.008 A 
ATOM     14  C   UNL     1       9.591  -2.526  24.530  0.00  0.00    +0.014 A 
ATOM     15  C   UNL     1       9.906  -1.734  23.418  0.00  0.00    +0.046 A 
ENDROOT
BRANCH   1  17
ATOM     16  C   UNL     1       9.296   0.470  21.470  0.00  0.00    +0.277 C 
ATOM     17  O   UNL     1       9.527  -0.921  21.265  0.00  0.00    -0.495 OA
ENDBRANCH   1  17
TORSDOF 1
ENDMDL
MODEL 4
REMARK VINA RESULT:      -5.8      2.983      6.024
REMARK  Name = 
REMARK  3 active torsions:
REMARK  status: ('A' for Active; 'I' for Inactive)
REMARK    1  A    between atoms: C_1  and  O_2
REMARK    2  A    between atoms: O_2  and  C_3
REMARK    3  A    between atoms: C_14  and  C_15
REMARK                            x       y       z     vdW  Elec       q    Type
REMARK                         _______ _______ _______ _____ _____    ______ ____
ROOT
ATOM      1  C   UNL     1       7.258  -5.027  25.717  0.00  0.00    +0.122 A 
ATOM      2  C   UNL     1       8.035  -3.945  26.142  0.00  0.00    +0.071 A 
ATOM      3  C   UNL     1       8.479  -3.041  25.166  0.00  0.00    +0.051 A 
ATOM      4  N   UNL     1       9.245  -1.907  25.297  0.00  0.00    -0.353 N 
ATOM      5  H   UNL     1       9.610  -1.565  26.174  0.00  0.00    +0.166 HD
ATOM      6  C   UNL     1       9.444  -1.298  24.081  0.00  0.00    +0.069 A 
ATOM      7  C   UNL     1      10.144  -0.131  23.757  0.00  0.00    +0.062 A 
ATOM      8  C   UNL     1      10.858   0.724  24.753  0.00  0.00    +0.068 C 
ATOM      9  N   UNL     1      10.174   0.246  22.450  0.00  0.00    -0.258 NA
ATOM     10  C   UNL     1       9.542  -0.503  21.520  0.00  0.00    +0.112 A 
ATOM     11  C   UNL     1       8.838  -1.665  21.788  0.00  0.00    +0.030 A 
ATOM     12  C   UNL     1       8.788  -2.076  23.127  0.00  0.00    +0.011 A 
ATOM     13  C   UNL     1       8.187  -3.180  23.811  0.00  0.00    +0.008 A 
ATOM     14  C   UNL     1       7.420  -4.289  23.402  0.00  0.00    +0.014 A 
ATOM     15  C   UNL     1       6.973  -5.206  24.364  0.00  0.00    +0.046 A 
ENDROOT
BRANCH   1  17
ATOM     16  C   UNL     1       6.489  -5.577  27.881  0.00  0.00    +0.277 C 
ATOM     17  O   UNL     1       6.763  -5.998  26.548  0.00  0.00    -0.495 OA
ENDBRANCH   1  17
TORSDOF 1
ENDMDL
MODEL 5
REMARK VINA RESULT:      -5.7      1.443      2.677
REMARK  Name = 
REMARK  3 active torsions:
REMARK  status: ('A' for Active; 'I' for Inactive)
REMARK    1  A    between atoms: C_1  and  O_2
REMARK    2  A    between atoms: O_2  and  C_3
REMARK    3  A    between atoms: C_14  and  C_15
REMARK                            x       y       z     vdW  Elec       q    Type
REMARK                         _______ _______ _______ _____ _____    ______ ____
ROOT
ATOM      1  C   UNL     1      10.157  -0.379  23.630  0.00  0.00    +0.122 A 
ATOM      2  C   UNL     1       9.561  -1.135  24.645  0.00  0.00    +0.071 A 
ATOM      3  C   UNL     1       8.725  -2.194  24.262  0.00  0.00    +0.051 A 
ATOM      4  N   UNL     1       8.021  -3.086  25.035  0.00  0.00    -0.353 N 
ATOM      5  H   UNL     1       8.017  -3.086  26.044  0.00  0.00    +0.166 HD
ATOM      6  C   UNL     1       7.330  -3.982  24.254  0.00  0.00    +0.069 A 
ATOM      7  C   UNL     1       6.505  -5.051  24.618  0.00  0.00    +0.062 A 
ATOM      8  C   UNL     1       6.204  -5.436  26.031  0.00  0.00    +0.068 C 
ATOM      9  N   UNL     1       5.942  -5.785  23.621  0.00  0.00    -0.258 NA
ATOM     10  C   UNL     1       6.190  -5.466  22.331  0.00  0.00    +0.112 A 
ATOM     11  C   UNL     1       6.996  -4.418  21.918  0.00  0.00    +0.030 A 
ATOM     12  C   UNL     1       7.590  -3.647  22.926  0.00  0.00    +0.011 A 
ATOM     13  C   UNL     1       8.464  -2.513  22.931  0.00  0.00    +0.008 A 
ATOM     14  C   UNL     1       9.059  -1.725  21.925  0.00  0.00    +0.014 A 
ATOM     15  C   UNL     1       9.892  -0.659  22.291  0.00  0.00    +0.046 A 
ENDROOT
BRANCH   1  17
ATOM     16  C   UNL     1      10.337   1.958  23.921  0.00  0.00    +0.277 C 
ATOM     17  O   UNL     1      10.985   0.691  23.847  0.00  0.00    -0.495 OA
ENDBRANCH   1  17
TORSDOF 1
ENDMDL
MODEL 6
REMARK VINA RESULT:      -5.6      2.874      5.869
REMARK  Name = 
REMARK  3 active torsions:
REMARK  status: ('A' for Active; 'I' for Inactive)
REMARK    1  A    between atoms: C_1  and  O_2
REMARK    2  A    between atoms: O_2  and  C_3
REMARK    3  A    between atoms: C_14  and  C_15
REMARK                            x       y       z     vdW  Elec       q    Type
REMARK                         _______ _______ _______ _____ _____    ______ ____
ROOT
ATOM      1  C   UNL     1       8.724  -3.561  23.905  0.00  0.00    +0.122 A 
ATOM      2  C   UNL     1       9.654  -2.521  24.002  0.00  0.00    +0.071 A 
ATOM      3  C   UNL     1       9.230  -1.234  23.641  0.00  0.00    +0.051 A 
ATOM      4  N   UNL     1       9.921  -0.046  23.638  0.00  0.00    -0.353 N 
ATOM      5  H   UNL     1      10.887   0.052  23.912  0.00  0.00    +0.166 HD
ATOM      6  C   UNL     1       9.122   0.993  23.220  0.00  0.00    +0.069 A 
ATOM      7  C   UNL     1       9.409   2.354  23.078  0.00  0.00    +0.062 A 
ATOM      8  C   UNL     1      10.739   2.968  23.376  0.00  0.00    +0.068 C 
ATOM      9  N   UNL     1       8.411   3.169  22.641  0.00  0.00    -0.258 NA
ATOM     10  C   UNL     1       7.196   2.650  22.360  0.00  0.00    +0.112 A 
ATOM     11  C   UNL     1       6.861   1.311  22.481  0.00  0.00    +0.030 A 
ATOM     12  C   UNL     1       7.870   0.450  22.932  0.00  0.00    +0.011 A 
ATOM     13  C   UNL     1       7.941  -0.957  23.190  0.00  0.00    +0.008 A 
ATOM     14  C   UNL     1       7.026  -2.023  23.080  0.00  0.00    +0.014 A 
ATOM     15  C   UNL     1       7.436  -3.317  23.431  0.00  0.00    +0.046 A 
ENDROOT
BRANCH   1  17
ATOM     16  C   UNL     1       9.658  -5.083  25.451  0.00  0.00    +0.277 C 
ATOM     17  O   UNL     1       8.992  -4.870  24.209  0.00  0.00    -0.495 OA
ENDBRANCH   1  17
TORSDOF 1
ENDMDL
MODEL 7
REMARK VINA RESULT:      -5.5      2.805      5.690
REMARK  Name = 
REMARK  3 active torsions:
REMARK  status: ('A' for Active; 'I' for Inactive)
REMARK    1  A    between atoms: C_1  and  O_2
REMARK    2  A    between atoms: O_2  and  C_3
REMARK    3  A    between atoms: C_14  and  C_15
REMARK                            x       y       z     vdW  Elec       q    Type
REMARK                         _______ _______ _______ _____ _____    ______ ____
ROOT
ATOM      1  C   UNL     1       7.131  -3.908  23.054  0.00  0.00    +0.122 A 
ATOM      2  C   UNL     1       6.726  -2.640  22.625  0.00  0.00    +0.071 A 
ATOM      3  C   UNL     1       7.571  -1.557  22.908  0.00  0.00    +0.051 A 
ATOM      4  N   UNL     1       7.426  -0.224  22.610  0.00  0.00    -0.353 N 
ATOM      5  H   UNL     1       6.635   0.168  22.120  0.00  0.00    +0.166 HD
ATOM      6  C   UNL     1       8.501   0.506  23.061  0.00  0.00    +0.069 A 
ATOM      7  C   UNL     1       8.769   1.876  22.965  0.00  0.00    +0.062 A 
ATOM      8  C   UNL     1       7.861   2.865  22.307  0.00  0.00    +0.068 C 
ATOM      9  N   UNL     1       9.930   2.332  23.506  0.00  0.00    -0.258 NA
ATOM     10  C   UNL     1      10.774   1.468  24.111  0.00  0.00    +0.112 A 
ATOM     11  C   UNL     1      10.556   0.106  24.234  0.00  0.00    +0.030 A 
ATOM     12  C   UNL     1       9.367  -0.392  23.683  0.00  0.00    +0.011 A 
ATOM     13  C   UNL     1       8.777  -1.693  23.594  0.00  0.00    +0.008 A 
ATOM     14  C   UNL     1       9.155  -2.977  24.035  0.00  0.00    +0.014 A 
ATOM     15  C   UNL     1       8.318  -4.069  23.766  0.00  0.00    +0.046 A 
ENDROOT
BRANCH   1  17
ATOM     16  C   UNL     1       6.919  -5.941  21.871  0.00  0.00    +0.277 C 
ATOM     17  O   UNL     1       6.408  -5.057  22.864  0.00  0.00    -0.495 OA
ENDBRANCH   1  17
TORSDOF 1
ENDMDL
MODEL 8
REMARK VINA RESULT:      -5.5      1.261      1.598
REMARK  Name = 
REMARK  3 active torsions:
REMARK  status: ('A' for Active; 'I' for Inactive)
REMARK    1  A    between atoms: C_1  and  O_2
REMARK    2  A    between atoms: O_2  and  C_3
REMARK    3  A    between atoms: C_14  and  C_15
REMARK                            x       y       z     vdW  Elec       q    Type
REMARK                         _______ _______ _______ _____ _____    ______ ____
ROOT
ATOM      1  C   UNL     1       9.732  -0.111  23.630  0.00  0.00    +0.122 A 
ATOM      2  C   UNL     1       9.249  -0.964  22.633  0.00  0.00    +0.071 A 
ATOM      3  C   UNL     1       8.489  -2.072  23.036  0.00  0.00    +0.051 A 
ATOM      4  N   UNL     1       7.900  -3.059  22.283  0.00  0.00    -0.353 N 
ATOM      5  H   UNL     1       7.949  -3.113  21.276  0.00  0.00    +0.166 HD
ATOM      6  C   UNL     1       7.231  -3.959  23.079  0.00  0.00    +0.069 A 
ATOM      7  C   UNL     1       6.493  -5.096  22.736  0.00  0.00    +0.062 A 
ATOM      8  C   UNL     1       6.288  -5.573  21.334  0.00  0.00    +0.068 C 
ATOM      9  N   UNL     1       5.927  -5.812  23.745  0.00  0.00    -0.258 NA
ATOM     10  C   UNL     1       6.092  -5.412  25.026  0.00  0.00    +0.112 A 
ATOM     11  C   UNL     1       6.814  -4.297  25.418  0.00  0.00    +0.030 A 
ATOM     12  C   UNL     1       7.406  -3.540  24.398  0.00  0.00    +0.011 A 
ATOM     13  C   UNL     1       8.207  -2.354  24.372  0.00  0.00    +0.008 A 
ATOM     14  C   UNL     1       8.721  -1.493  25.361  0.00  0.00    +0.014 A 
ATOM     15  C   UNL     1       9.487  -0.385  24.975  0.00  0.00    +0.046 A 
ENDROOT
BRANCH   1  17
ATOM     16  C   UNL     1      10.151   1.741  22.226  0.00  0.00    +0.277 C 
ATOM     17  O   UNL     1      10.497   1.001  23.393  0.00  0.00    -0.495 OA
ENDBRANCH   1  17
TORSDOF 1
ENDMDL
MODEL 9
REMARK VINA RESULT:      -5.4      3.391      7.061
REMARK  Name = 
REMARK  3 active torsions:
REMARK  status: ('A' for Active; 'I' for Inactive)
REMARK    1  A    between atoms: C_1  and  O_2
REMARK    2  A    between atoms: O_2  and  C_3
REMARK    3  A    between atoms: C_14  and  C_15
REMARK                            x       y       z     vdW  Elec       q    Type
REMARK                         _______ _______ _______ _____ _____    ______ ____
ROOT
ATOM      1  C   UNL     1       9.000  -0.514  24.440  0.00  0.00    +0.122 A 
ATOM      2  C   UNL     1      10.192   0.126  24.088  0.00  0.00    +0.071 A 
ATOM      3  C   UNL     1      10.177   1.526  24.002  0.00  0.00    +0.051 A 
ATOM      4  N   UNL     1      11.187   2.401  23.683  0.00  0.00    -0.353 N 
ATOM      5  H   UNL     1      12.130   2.123  23.451  0.00  0.00    +0.166 HD
ATOM      6  C   UNL     1      10.748   3.704  23.726  0.00  0.00    +0.069 A 
ATOM      7  C   UNL     1      11.435   4.898  23.485  0.00  0.00    +0.062 A 
ATOM      8  C   UNL     1      12.879   4.975  23.106  0.00  0.00    +0.068 C 
ATOM      9  N   UNL     1      10.742   6.062  23.604  0.00  0.00    -0.258 NA
ATOM     10  C   UNL     1       9.434   6.032  23.944  0.00  0.00    +0.112 A 
ATOM     11  C   UNL     1       8.708   4.879  24.190  0.00  0.00    +0.030 A 
ATOM     12  C   UNL     1       9.399   3.665  24.076  0.00  0.00    +0.011 A 
ATOM     13  C   UNL     1       9.036   2.290  24.243  0.00  0.00    +0.008 A 
ATOM     14  C   UNL     1       7.841   1.622  24.575  0.00  0.00    +0.014 A 
ATOM     15  C   UNL     1       7.838   0.223  24.659  0.00  0.00    +0.046 A 
ENDROOT
BRANCH   1  17
ATOM     16  C   UNL     1       9.861  -2.648  23.905  0.00  0.00    +0.277 C 
ATOM     17  O   UNL     1       8.855  -1.873  24.552  0.00  0.00    -0.495 OA
ENDBRANCH   1  17
TORSDOF 1
ENDMDL
