MODEL 1
REMARK VINA RESULT:      -4.8      0.000      0.000
REMARK  Name = 
REMARK  1 active torsions:
REMARK  status: ('A' for Active; 'I' for Inactive)
REMARK    1  A    between atoms: C_1  and  C_2
REMARK                            x       y       z     vdW  Elec       q    Type
REMARK                         _______ _______ _______ _____ _____    ______ ____
ROOT
ATOM      1  C   UNL     1      10.788   3.374  23.516  0.00  0.00    +0.044 C 
ATOM      2  C   UNL     1      10.351   1.976  23.183  0.00  0.00    -0.048 A 
ATOM      3  C   UNL     1       9.894   1.689  21.888  0.00  0.00    +0.005 A 
ATOM      4  C   UNL     1       9.478   0.398  21.531  0.00  0.00    +0.030 A 
ATOM      5  C   UNL     1       9.523  -0.613  22.499  0.00  0.00    +0.089 A 
ATOM      6  N   UNL     1       9.176  -1.940  22.403  0.00  0.00    -0.236 NA
ATOM      7  C   UNL     1       9.411  -2.443  23.594  0.00  0.00    +0.197 A 
ATOM      8  N   UNL     1       9.895  -1.499  24.454  0.00  0.00    -0.344 N 
ATOM      9  H   UNL     1      10.147  -1.651  25.420  0.00  0.00    +0.167 HD
ATOM     10  C   UNL     1       9.978  -0.310  23.777  0.00  0.00    +0.066 A 
ATOM     11  C   UNL     1      10.400   0.966  24.160  0.00  0.00    +0.031 A 
ENDROOT
TORSDOF 0
ENDMDL
MODEL 2
REMARK VINA RESULT:      -4.8      0.939      2.041
REMARK  Name = 
REMARK  1 active torsions:
REMARK  status: ('A' for Active; 'I' for Inactive)
REMARK    1  A    between atoms: C_1  and  C_2
REMARK                            x       y       z     vdW  Elec       q    Type
REMARK                         _______ _______ _______ _____ _____    ______ ____
ROOT
ATOM      1  C   UNL     1      10.934   3.632  23.363  0.00  0.00    +0.044 C 
ATOM      2  C   UNL     1      10.560   2.177  23.315  0.00  0.00    -0.048 A 
ATOM      3  C   UNL     1      10.645   1.407  24.484  0.00  0.00    +0.005 A 
ATOM      4  C   UNL     1      10.305   0.046  24.487  0.00  0.00    +0.030 A 
ATOM      5  C   UNL     1       9.875  -0.541  23.291  0.00  0.00    +0.089 A 
ATOM      6  N   UNL     1       9.490  -1.835  23.034  0.00  0.00    -0.236 NA
ATOM      7  C   UNL     1       9.181  -1.854  21.757  0.00  0.00    +0.197 A 
ATOM      8  N   UNL     1       9.351  -0.629  21.178  0.00  0.00    -0.344 N 
ATOM      9  H   UNL     1       9.177  -0.402  20.210  0.00  0.00    +0.167 HD
ATOM     10  C   UNL     1       9.797   0.238  22.142  0.00  0.00    +0.066 A 
ATOM     11  C   UNL     1      10.128   1.596  22.110  0.00  0.00    +0.031 A 
ENDROOT
TORSDOF 0
ENDMDL
MODEL 3
REMARK VINA RESULT:      -4.6      1.806      3.644
REMARK  Name = 
REMARK  1 active torsions:
REMARK  status: ('A' for Active; 'I' for Inactive)
REMARK    1  A    between atoms: C_1  and  C_2
REMARK                            x       y       z     vdW  Elec       q    Type
REMARK                         _______ _______ _______ _____ _____    ______ ____
ROOT
ATOM      1  C   UNL     1       9.285  -3.197  24.161  0.00  0.00    +0.044 C 
ATOM      2  C   UNL     1       9.506  -1.843  23.549  0.00  0.00    -0.048 A 
ATOM      3  C   UNL     1       9.285  -1.666  22.174  0.00  0.00    +0.005 A 
ATOM      4  C   UNL     1       9.476  -0.420  21.560  0.00  0.00    +0.030 A 
ATOM      5  C   UNL     1       9.898   0.659  22.346  0.00  0.00    +0.089 A 
ATOM      6  N   UNL     1      10.153   1.962  21.990  0.00  0.00    -0.236 NA
ATOM      7  C   UNL     1      10.516   2.557  23.103  0.00  0.00    +0.197 A 
ATOM      8  N   UNL     1      10.507   1.696  24.163  0.00  0.00    -0.344 N 
ATOM      9  H   UNL     1      10.748   1.926  25.116  0.00  0.00    +0.167 HD
ATOM     10  C   UNL     1      10.112   0.465  23.706  0.00  0.00    +0.066 A 
ATOM     11  C   UNL     1       9.928  -0.764  24.345  0.00  0.00    +0.031 A 
ENDROOT
TORSDOF 0
ENDMDL
MODEL 4
REMARK VINA RESULT:      -4.3      1.814      2.052
REMARK  Name = 
REMARK  1 active torsions:
REMARK  status: ('A' for Active; 'I' for Inactive)
REMARK    1  A    between atoms: C_1  and  C_2
REMARK                            x       y       z     vdW  Elec       q    Type
REMARK                         _______ _______ _______ _____ _____    ______ ____
ROOT
ATOM      1  C   UNL     1       6.723   2.407  22.470  0.00  0.00    +0.044 C 
ATOM      2  C   UNL     1       7.713   1.277  22.491  0.00  0.00    -0.048 A 
ATOM      3  C   UNL     1       8.704   1.213  21.499  0.00  0.00    +0.005 A 
ATOM      4  C   UNL     1       9.649   0.177  21.479  0.00  0.00    +0.030 A 
ATOM      5  C   UNL     1       9.590  -0.805  22.475  0.00  0.00    +0.089 A 
ATOM      6  N   UNL     1      10.389  -1.906  22.675  0.00  0.00    -0.236 NA
ATOM      7  C   UNL     1       9.905  -2.491  23.747  0.00  0.00    +0.197 A 
ATOM      8  N   UNL     1       8.829  -1.817  24.248  0.00  0.00    -0.344 N 
ATOM      9  H   UNL     1       8.293  -2.076  25.064  0.00  0.00    +0.167 HD
ATOM     10  C   UNL     1       8.602  -0.725  23.450  0.00  0.00    +0.066 A 
ATOM     11  C   UNL     1       7.648   0.296  23.495  0.00  0.00    +0.031 A 
ENDROOT
TORSDOF 0
ENDMDL
MODEL 5
REMARK VINA RESULT:      -4.2      5.859      6.883
REMARK  Name = 
REMARK  1 active torsions:
REMARK  status: ('A' for Active; 'I' for Inactive)
REMARK    1  A    between atoms: C_1  and  C_2
REMARK                            x       y       z     vdW  Elec       q    Type
REMARK                         _______ _______ _______ _____ _____    ______ ____
ROOT
ATOM      1  C   UNL     1       4.061  -5.663  24.473  0.00  0.00    +0.044 C 
ATOM      2  C   UNL     1       5.548  -5.451  24.494  0.00  0.00    -0.048 A 
ATOM      3  C   UNL     1       6.225  -5.208  23.289  0.00  0.00    +0.005 A 
ATOM      4  C   UNL     1       7.612  -5.003  23.260  0.00  0.00    +0.030 A 
ATOM      5  C   UNL     1       8.322  -5.046  24.466  0.00  0.00    +0.089 A 
ATOM      6  N   UNL     1       9.666  -4.880  24.704  0.00  0.00    -0.236 NA
ATOM      7  C   UNL     1       9.804  -5.016  26.003  0.00  0.00    +0.197 A 
ATOM      8  N   UNL     1       8.609  -5.264  26.615  0.00  0.00    -0.344 N 
ATOM      9  H   UNL     1       8.468  -5.404  27.605  0.00  0.00    +0.167 HD
ATOM     10  C   UNL     1       7.635  -5.289  25.651  0.00  0.00    +0.066 A 
ATOM     11  C   UNL     1       6.254  -5.496  25.709  0.00  0.00    +0.031 A 
ENDROOT
TORSDOF 0
ENDMDL
MODEL 6
REMARK VINA RESULT:      -4.2      1.729      2.321
REMARK  Name = 
REMARK  1 active torsions:
REMARK  status: ('A' for Active; 'I' for Inactive)
REMARK    1  A    between atoms: C_1  and  C_2
REMARK                            x       y       z     vdW  Elec       q    Type
REMARK                         _______ _______ _______ _____ _____    ______ ____
ROOT
ATOM      1  C   UNL     1      10.952   0.735  24.480  0.00  0.00    +0.044 C 
ATOM      2  C   UNL     1      10.106  -0.325  23.834  0.00  0.00    -0.048 A 
ATOM      3  C   UNL     1       9.945  -0.322  22.440  0.00  0.00    +0.005 A 
ATOM      4  C   UNL     1       9.166  -1.291  21.793  0.00  0.00    +0.030 A 
ATOM      5  C   UNL     1       8.540  -2.276  22.568  0.00  0.00    +0.089 A 
ATOM      6  N   UNL     1       7.736  -3.322  22.182  0.00  0.00    -0.236 NA
ATOM      7  C   UNL     1       7.418  -3.940  23.297  0.00  0.00    +0.197 A 
ATOM      8  N   UNL     1       7.981  -3.339  24.386  0.00  0.00    -0.344 N 
ATOM      9  H   UNL     1       7.878  -3.635  25.346  0.00  0.00    +0.167 HD
ATOM     10  C   UNL     1       8.710  -2.264  23.948  0.00  0.00    +0.066 A 
ATOM     11  C   UNL     1       9.482  -1.310  24.619  0.00  0.00    +0.031 A 
ENDROOT
TORSDOF 0
ENDMDL
MODEL 7
REMARK VINA RESULT:      -4.1      1.734      4.171
REMARK  Name = 
REMARK  1 active torsions:
REMARK  status: ('A' for Active; 'I' for Inactive)
REMARK    1  A    between atoms: C_1  and  C_2
REMARK                            x       y       z     vdW  Elec       q    Type
REMARK                         _______ _______ _______ _____ _____    ______ ____
ROOT
ATOM      1  C   UNL     1       8.105  -3.550  23.308  0.00  0.00    +0.044 C 
ATOM      2  C   UNL     1       8.709  -2.175  23.356  0.00  0.00    -0.048 A 
ATOM      3  C   UNL     1       9.267  -1.711  24.558  0.00  0.00    +0.005 A 
ATOM      4  C   UNL     1       9.842  -0.436  24.649  0.00  0.00    +0.030 A 
ATOM      5  C   UNL     1       9.853   0.379  23.510  0.00  0.00    +0.089 A 
ATOM      6  N   UNL     1      10.350   1.650  23.341  0.00  0.00    -0.236 NA
ATOM      7  C   UNL     1      10.106   1.949  22.086  0.00  0.00    +0.197 A 
ATOM      8  N   UNL     1       9.473   0.928  21.437  0.00  0.00    -0.344 N 
ATOM      9  H   UNL     1       9.185   0.929  20.469  0.00  0.00    +0.167 HD
ATOM     10  C   UNL     1       9.297  -0.098  22.329  0.00  0.00    +0.066 A 
ATOM     11  C   UNL     1       8.717  -1.364  22.209  0.00  0.00    +0.031 A 
ENDROOT
TORSDOF 0
ENDMDL
MODEL 8
REMARK VINA RESULT:      -4.1      2.287      2.814
REMARK  Name = 
REMARK  1 active torsions:
REMARK  status: ('A' for Active; 'I' for Inactive)
REMARK    1  A    between atoms: C_1  and  C_2
REMARK                            x       y       z     vdW  Elec       q    Type
REMARK                         _______ _______ _______ _____ _____    ______ ____
ROOT
ATOM      1  C   UNL     1       6.131   3.244  22.282  0.00  0.00    +0.044 C 
ATOM      2  C   UNL     1       7.359   2.429  22.576  0.00  0.00    -0.048 A 
ATOM      3  C   UNL     1       8.071   1.852  21.513  0.00  0.00    +0.005 A 
ATOM      4  C   UNL     1       9.223   1.085  21.739  0.00  0.00    +0.030 A 
ATOM      5  C   UNL     1       9.659   0.901  23.057  0.00  0.00    +0.089 A 
ATOM      6  N   UNL     1      10.742   0.204  23.537  0.00  0.00    -0.236 NA
ATOM      7  C   UNL     1      10.694   0.350  24.841  0.00  0.00    +0.197 A 
ATOM      8  N   UNL     1       9.627   1.111  25.225  0.00  0.00    -0.344 N 
ATOM      9  H   UNL     1       9.386   1.358  26.174  0.00  0.00    +0.167 HD
ATOM     10  C   UNL     1       8.942   1.481  24.097  0.00  0.00    +0.066 A 
ATOM     11  C   UNL     1       7.791   2.250  23.901  0.00  0.00    +0.031 A 
ENDROOT
TORSDOF 0
ENDMDL
MODEL 9
REMARK VINA RESULT:      -4.1      1.854      3.229
REMARK  Name = 
REMARK  1 active torsions:
REMARK  status: ('A' for Active; 'I' for Inactive)
REMARK    1  A    between atoms: C_1  and  C_2
REMARK                            x       y       z     vdW  Elec       q    Type
REMARK                         _______ _______ _______ _____ _____    ______ ____
ROOT
ATOM      1  C   UNL     1       9.820   0.812  21.840  0.00  0.00    +0.044 C 
ATOM      2  C   UNL     1       9.466  -0.493  22.495  0.00  0.00    -0.048 A 
ATOM      3  C   UNL     1      10.047  -0.822  23.729  0.00  0.00    +0.005 A 
ATOM      4  C   UNL     1       9.745  -2.028  24.378  0.00  0.00    +0.030 A 
ATOM      5  C   UNL     1       8.845  -2.911  23.769  0.00  0.00    +0.089 A 
ATOM      6  N   UNL     1       8.391  -4.138  24.193  0.00  0.00    -0.236 NA
ATOM      7  C   UNL     1       7.565  -4.541  23.254  0.00  0.00    +0.197 A 
ATOM      8  N   UNL     1       7.466  -3.630  22.242  0.00  0.00    -0.344 N 
ATOM      9  H   UNL     1       6.894  -3.721  21.415  0.00  0.00    +0.167 HD
ATOM     10  C   UNL     1       8.280  -2.568  22.546  0.00  0.00    +0.066 A 
ATOM     11  C   UNL     1       8.561  -1.374  21.877  0.00  0.00    +0.031 A 
ENDROOT
TORSDOF 0
ENDMDL
