MODEL 1
REMARK VINA RESULT:      -6.7      0.000      0.000
REMARK  Name = 
REMARK  7 active torsions:
REMARK  status: ('A' for Active; 'I' for Inactive)
REMARK    1  A    between atoms: C_1  and  C_2
REMARK    2  A    between atoms: C_2  and  O_3
REMARK    3  A    between atoms: O_3  and  C_4
REMARK    4  A    between atoms: N_6  and  C_7
REMARK    5  A    between atoms: C_19  and  C_21
REMARK    6  A    between atoms: C_21  and  C_22
REMARK    7  A    between atoms: C_22  and  N_23
REMARK                            x       y       z     vdW  Elec       q    Type
REMARK                         _______ _______ _______ _____ _____    ______ ____
ROOT
ATOM      1  C   UNL     1       8.107  -1.742  22.645  0.00  0.00    +0.038 A 
ATOM      2  C   UNL     1       9.086  -1.481  21.718  0.00  0.00    +0.024 A 
ATOM      3  C   UNL     1       9.678  -0.225  21.723  0.00  0.00    +0.019 A 
ATOM      4  C   UNL     1       9.225   0.802  22.583  0.00  0.00    +0.035 A 
ATOM      5  S   UNL     1      10.098   2.313  22.385  0.00  0.00    -0.086 S 
ATOM      6  C   UNL     1       9.388   3.286  23.668  0.00  0.00    +0.035 A 
ATOM      7  C   UNL     1       8.232   2.951  24.399  0.00  0.00    +0.055 A 
ATOM      8  N   UNL     1       7.498   1.674  24.245  0.00  0.00    -0.238 N 
ATOM      9  C   UNL     1       6.167   1.423  24.749  0.00  0.00    +0.225 C 
ATOM     10  O   UNL     1       5.649   0.327  24.976  0.00  0.00    -0.275 OA
ATOM     11  C   UNL     1       7.864   3.929  25.352  0.00  0.00    +0.025 A 
ATOM     12  C   UNL     1       8.501   5.173  25.505  0.00  0.00    +0.002 A 
ATOM     13  C   UNL     1       9.629   5.459  24.770  0.00  0.00    +0.001 A 
ATOM     14  C   UNL     1      10.081   4.507  23.874  0.00  0.00    +0.017 A 
ATOM     15  C   UNL     1       8.150   0.603  23.463  0.00  0.00    +0.057 A 
ATOM     16  C   UNL     1       7.671  -0.721  23.500  0.00  0.00    +0.048 A 
ENDROOT
BRANCH   1  18
ATOM     17  C   UNL     1       7.959  -4.065  23.441  0.00  0.00    +0.405 C 
ATOM     18  N   UNL     1       7.520  -3.015  22.683  0.00  0.00    -0.251 N 
ATOM     19  H   UNL     1       6.820  -3.259  21.997  0.00  0.00    +0.158 HD
ATOM     20  O   UNL     1       9.015  -4.135  24.055  0.00  0.00    -0.226 OA
BRANCH  17  21
ATOM     21  O   UNL     1       7.088  -5.095  23.301  0.00  0.00    -0.450 OA
BRANCH  21  23
ATOM     22  C   UNL     1       6.044  -5.891  21.340  0.00  0.00    +0.048 C 
ATOM     23  C   UNL     1       7.325  -5.910  22.147  0.00  0.00    +0.230 C 
ENDBRANCH  21  23
ENDBRANCH  17  21
ENDBRANCH   1  18
BRANCH   9  24
ATOM     24  C   UNL     1       5.294   2.618  25.064  0.00  0.00    +0.112 C 
BRANCH  24  25
ATOM     25  C   UNL     1       4.047   2.832  24.193  0.00  0.00    +0.094 C 
BRANCH  25  26
ATOM     26  N   UNL     1       4.481   3.280  22.849  0.00  0.00    -0.298 NA
ATOM     27  C   UNL     1       5.237   4.551  22.851  0.00  0.00    +0.112 C 
ATOM     28  C   UNL     1       4.357   5.752  23.213  0.00  0.00    +0.175 C 
ATOM     29  O   UNL     1       3.366   5.928  22.193  0.00  0.00    -0.377 OA
ATOM     30  C   UNL     1       2.550   4.759  22.057  0.00  0.00    +0.175 C 
ATOM     31  C   UNL     1       3.357   3.448  21.903  0.00  0.00    +0.112 C 
ENDBRANCH  25  26
ENDBRANCH  24  25
ENDBRANCH   9  24
TORSDOF 6
ENDMDL
MODEL 2
REMARK VINA RESULT:      -6.5      3.936      8.309
REMARK  Name = 
REMARK  7 active torsions:
REMARK  status: ('A' for Active; 'I' for Inactive)
REMARK    1  A    between atoms: C_1  and  C_2
REMARK    2  A    between atoms: C_2  and  O_3
REMARK    3  A    between atoms: O_3  and  C_4
REMARK    4  A    between atoms: N_6  and  C_7
REMARK    5  A    between atoms: C_19  and  C_21
REMARK    6  A    between atoms: C_21  and  C_22
REMARK    7  A    between atoms: C_22  and  N_23
REMARK                            x       y       z     vdW  Elec       q    Type
REMARK                         _______ _______ _______ _____ _____    ______ ____
ROOT
ATOM      1  C   UNL     1       8.360   0.512  25.756  0.00  0.00    +0.038 A 
ATOM      2  C   UNL     1       7.193   1.180  26.033  0.00  0.00    +0.024 A 
ATOM      3  C   UNL     1       6.138   0.462  26.580  0.00  0.00    +0.019 A 
ATOM      4  C   UNL     1       6.212  -0.939  26.756  0.00  0.00    +0.035 A 
ATOM      5  S   UNL     1       4.746  -1.634  27.429  0.00  0.00    -0.086 S 
ATOM      6  C   UNL     1       5.231  -3.314  27.636  0.00  0.00    +0.035 A 
ATOM      7  C   UNL     1       6.393  -3.898  27.098  0.00  0.00    +0.055 A 
ATOM      8  N   UNL     1       7.425  -3.145  26.347  0.00  0.00    -0.238 N 
ATOM      9  C   UNL     1       8.461  -3.748  25.540  0.00  0.00    +0.225 C 
ATOM     10  O   UNL     1       9.530  -3.240  25.194  0.00  0.00    -0.275 OA
ATOM     11  C   UNL     1       6.523  -5.275  27.395  0.00  0.00    +0.025 A 
ATOM     12  C   UNL     1       5.552  -6.041  28.063  0.00  0.00    +0.002 A 
ATOM     13  C   UNL     1       4.430  -5.428  28.574  0.00  0.00    +0.001 A 
ATOM     14  C   UNL     1       4.286  -4.067  28.380  0.00  0.00    +0.017 A 
ATOM     15  C   UNL     1       7.348  -1.669  26.377  0.00  0.00    +0.057 A 
ATOM     16  C   UNL     1       8.427  -0.875  25.943  0.00  0.00    +0.048 A 
ENDROOT
BRANCH   1  18
ATOM     17  C   UNL     1       9.820   1.255  23.919  0.00  0.00    +0.405 C 
ATOM     18  N   UNL     1       9.452   1.224  25.236  0.00  0.00    -0.251 N 
ATOM     19  H   UNL     1      10.130   1.622  25.869  0.00  0.00    +0.158 HD
ATOM     20  O   UNL     1       9.391   0.542  23.021  0.00  0.00    -0.226 OA
BRANCH  17  21
ATOM     21  O   UNL     1      10.852   2.123  23.778  0.00  0.00    -0.450 OA
BRANCH  21  23
ATOM     22  C   UNL     1      11.723   4.278  23.372  0.00  0.00    +0.048 C 
ATOM     23  C   UNL     1      10.457   3.448  23.406  0.00  0.00    +0.230 C 
ENDBRANCH  21  23
ENDBRANCH  17  21
ENDBRANCH   1  18
BRANCH   9  24
ATOM     24  C   UNL     1       8.250  -5.170  25.068  0.00  0.00    +0.112 C 
BRANCH  24  25
ATOM     25  C   UNL     1       7.916  -5.380  23.583  0.00  0.00    +0.094 C 
BRANCH  25  26
ATOM     26  N   UNL     1       6.443  -5.351  23.422  0.00  0.00    -0.298 NA
ATOM     27  C   UNL     1       5.942  -6.180  22.304  0.00  0.00    +0.112 C 
ATOM     28  C   UNL     1       6.327  -5.607  20.936  0.00  0.00    +0.175 C 
ATOM     29  O   UNL     1       5.678  -4.341  20.761  0.00  0.00    -0.377 OA
ATOM     30  C   UNL     1       6.055  -3.420  21.790  0.00  0.00    +0.175 C 
ATOM     31  C   UNL     1       5.909  -3.987  23.222  0.00  0.00    +0.112 C 
ENDBRANCH  25  26
ENDBRANCH  24  25
ENDBRANCH   9  24
TORSDOF 6
ENDMDL
MODEL 3
REMARK VINA RESULT:      -6.3      2.459      3.239
REMARK  Name = 
REMARK  7 active torsions:
REMARK  status: ('A' for Active; 'I' for Inactive)
REMARK    1  A    between atoms: C_1  and  C_2
REMARK    2  A    between atoms: C_2  and  O_3
REMARK    3  A    between atoms: O_3  and  C_4
REMARK    4  A    between atoms: N_6  and  C_7
REMARK    5  A    between atoms: C_19  and  C_21
REMARK    6  A    between atoms: C_21  and  C_22
REMARK    7  A    between atoms: C_22  and  N_23
REMARK                            x       y       z     vdW  Elec       q    Type
REMARK                         _______ _______ _______ _____ _____    ______ ____
ROOT
ATOM      1  C   UNL     1       6.898  -4.039  24.569  0.00  0.00    +0.038 A 
ATOM      2  C   UNL     1       7.263  -4.372  23.288  0.00  0.00    +0.024 A 
ATOM      3  C   UNL     1       7.958  -3.435  22.537  0.00  0.00    +0.019 A 
ATOM      4  C   UNL     1       8.201  -2.131  23.026  0.00  0.00    +0.035 A 
ATOM      5  S   UNL     1       9.064  -1.109  21.887  0.00  0.00    -0.086 S 
ATOM      6  C   UNL     1       9.310   0.343  22.852  0.00  0.00    +0.035 A 
ATOM      7  C   UNL     1       8.683   0.619  24.082  0.00  0.00    +0.055 A 
ATOM      8  N   UNL     1       7.786  -0.329  24.783  0.00  0.00    -0.238 N 
ATOM      9  C   UNL     1       6.906   0.024  25.875  0.00  0.00    +0.225 C 
ATOM     10  O   UNL     1       6.420  -0.735  26.717  0.00  0.00    -0.275 OA
ATOM     11  C   UNL     1       9.039   1.874  24.628  0.00  0.00    +0.025 A 
ATOM     12  C   UNL     1       9.849   2.824  23.981  0.00  0.00    +0.002 A 
ATOM     13  C   UNL     1      10.442   2.512  22.780  0.00  0.00    +0.001 A 
ATOM     14  C   UNL     1      10.191   1.267  22.233  0.00  0.00    +0.017 A 
ATOM     15  C   UNL     1       7.743  -1.720  24.287  0.00  0.00    +0.057 A 
ATOM     16  C   UNL     1       7.152  -2.747  25.049  0.00  0.00    +0.048 A 
ENDROOT
BRANCH   1  18
ATOM     17  C   UNL     1       6.763  -5.641  26.432  0.00  0.00    +0.405 C 
ATOM     18  N   UNL     1       6.226  -4.984  25.360  0.00  0.00    -0.251 N 
ATOM     19  H   UNL     1       5.337  -5.347  25.050  0.00  0.00    +0.158 HD
ATOM     20  O   UNL     1       7.941  -5.662  26.764  0.00  0.00    -0.226 OA
BRANCH  17  21
ATOM     21  O   UNL     1       5.793  -6.393  27.009  0.00  0.00    -0.450 OA
BRANCH  21  23
ATOM     22  C   UNL     1       3.456  -6.710  26.932  0.00  0.00    +0.048 C 
ATOM     23  C   UNL     1       4.734  -6.767  26.121  0.00  0.00    +0.230 C 
ENDBRANCH  21  23
ENDBRANCH  17  21
ENDBRANCH   1  18
BRANCH   9  24
ATOM     24  C   UNL     1       6.538   1.482  26.042  0.00  0.00    +0.112 C 
BRANCH  24  25
ATOM     25  C   UNL     1       5.160   1.926  25.528  0.00  0.00    +0.094 C 
BRANCH  25  26
ATOM     26  N   UNL     1       5.262   3.328  25.056  0.00  0.00    -0.298 NA
ATOM     27  C   UNL     1       3.961   3.949  24.726  0.00  0.00    +0.112 C 
ATOM     28  C   UNL     1       3.324   3.337  23.474  0.00  0.00    +0.175 C 
ATOM     29  O   UNL     1       4.154   3.624  22.341  0.00  0.00    -0.377 OA
ATOM     30  C   UNL     1       5.471   3.091  22.518  0.00  0.00    +0.175 C 
ATOM     31  C   UNL     1       6.126   3.476  23.865  0.00  0.00    +0.112 C 
ENDBRANCH  25  26
ENDBRANCH  24  25
ENDBRANCH   9  24
TORSDOF 6
ENDMDL
MODEL 4
REMARK VINA RESULT:      -6.3      3.283      8.340
REMARK  Name = 
REMARK  7 active torsions:
REMARK  status: ('A' for Active; 'I' for Inactive)
REMARK    1  A    between atoms: C_1  and  C_2
REMARK    2  A    between atoms: C_2  and  O_3
REMARK    3  A    between atoms: O_3  and  C_4
REMARK    4  A    between atoms: N_6  and  C_7
REMARK    5  A    between atoms: C_19  and  C_21
REMARK    6  A    between atoms: C_21  and  C_22
REMARK    7  A    between atoms: C_22  and  N_23
REMARK                            x       y       z     vdW  Elec       q    Type
REMARK                         _______ _______ _______ _____ _____    ______ ____
ROOT
ATOM      1  C   UNL     1       8.710   1.584  24.627  0.00  0.00    +0.038 A 
ATOM      2  C   UNL     1       9.863   1.133  24.035  0.00  0.00    +0.024 A 
ATOM      3  C   UNL     1       9.834  -0.095  23.388  0.00  0.00    +0.019 A 
ATOM      4  C   UNL     1       8.685  -0.918  23.417  0.00  0.00    +0.035 A 
ATOM      5  S   UNL     1       8.894  -2.438  22.562  0.00  0.00    -0.086 S 
ATOM      6  C   UNL     1       7.275  -3.120  22.682  0.00  0.00    +0.035 A 
ATOM      7  C   UNL     1       6.248  -2.638  23.515  0.00  0.00    +0.055 A 
ATOM      8  N   UNL     1       6.365  -1.420  24.350  0.00  0.00    -0.238 N 
ATOM      9  C   UNL     1       5.461  -1.067  25.423  0.00  0.00    +0.225 C 
ATOM     10  O   UNL     1       5.277   0.052  25.905  0.00  0.00    -0.275 OA
ATOM     11  C   UNL     1       5.055  -3.394  23.435  0.00  0.00    +0.025 A 
ATOM     12  C   UNL     1       4.910  -4.578  22.693  0.00  0.00    +0.002 A 
ATOM     13  C   UNL     1       5.941  -5.013  21.891  0.00  0.00    +0.001 A 
ATOM     14  C   UNL     1       7.107  -4.271  21.870  0.00  0.00    +0.017 A 
ATOM     15  C   UNL     1       7.526  -0.538  24.111  0.00  0.00    +0.057 A 
ATOM     16  C   UNL     1       7.572   0.765  24.644  0.00  0.00    +0.048 A 
ENDROOT
BRANCH   1  18
ATOM     17  C   UNL     1       8.399   4.025  24.651  0.00  0.00    +0.405 C 
ATOM     18  N   UNL     1       8.706   2.838  25.257  0.00  0.00    -0.251 N 
ATOM     19  H   UNL     1       9.106   2.931  26.179  0.00  0.00    +0.158 HD
ATOM     20  O   UNL     1       8.262   4.220  23.450  0.00  0.00    -0.226 OA
BRANCH  17  21
ATOM     21  O   UNL     1       8.399   5.003  25.589  0.00  0.00    -0.450 OA
BRANCH  21  23
ATOM     22  C   UNL     1      10.038   6.701  25.583  0.00  0.00    +0.048 C 
ATOM     23  C   UNL     1       8.666   6.312  25.072  0.00  0.00    +0.230 C 
ENDBRANCH  21  23
ENDBRANCH  17  21
ENDBRANCH   1  18
BRANCH   9  24
ATOM     24  C   UNL     1       4.618  -2.168  26.027  0.00  0.00    +0.112 C 
BRANCH  24  25
ATOM     25  C   UNL     1       5.249  -3.006  27.150  0.00  0.00    +0.094 C 
BRANCH  25  26
ATOM     26  N   UNL     1       5.116  -4.440  26.801  0.00  0.00    -0.298 NA
ATOM     27  C   UNL     1       4.732  -5.305  27.937  0.00  0.00    +0.112 C 
ATOM     28  C   UNL     1       5.851  -5.431  28.977  0.00  0.00    +0.175 C 
ATOM     29  O   UNL     1       6.968  -6.101  28.380  0.00  0.00    -0.377 OA
ATOM     30  C   UNL     1       7.452  -5.384  27.240  0.00  0.00    +0.175 C 
ATOM     31  C   UNL     1       6.350  -5.011  26.221  0.00  0.00    +0.112 C 
ENDBRANCH  25  26
ENDBRANCH  24  25
ENDBRANCH   9  24
TORSDOF 6
ENDMDL
MODEL 5
REMARK VINA RESULT:      -6.1      3.069      7.072
REMARK  Name = 
REMARK  7 active torsions:
REMARK  status: ('A' for Active; 'I' for Inactive)
REMARK    1  A    between atoms: C_1  and  C_2
REMARK    2  A    between atoms: C_2  and  O_3
REMARK    3  A    between atoms: O_3  and  C_4
REMARK    4  A    between atoms: N_6  and  C_7
REMARK    5  A    between atoms: C_19  and  C_21
REMARK    6  A    between atoms: C_21  and  C_22
REMARK    7  A    between atoms: C_22  and  N_23
REMARK                            x       y       z     vdW  Elec       q    Type
REMARK                         _______ _______ _______ _____ _____    ______ ____
ROOT
ATOM      1  C   UNL     1       8.444   2.397  22.378  0.00  0.00    +0.038 A 
ATOM      2  C   UNL     1       9.586   1.837  21.861  0.00  0.00    +0.024 A 
ATOM      3  C   UNL     1       9.695   0.453  21.855  0.00  0.00    +0.019 A 
ATOM      4  C   UNL     1       8.712  -0.368  22.453  0.00  0.00    +0.035 A 
ATOM      5  S   UNL     1       9.082  -2.082  22.354  0.00  0.00    -0.086 S 
ATOM      6  C   UNL     1       7.625  -2.784  23.050  0.00  0.00    +0.035 A 
ATOM      7  C   UNL     1       6.628  -2.071  23.741  0.00  0.00    +0.055 A 
ATOM      8  N   UNL     1       6.626  -0.598  23.902  0.00  0.00    -0.238 N 
ATOM      9  C   UNL     1       5.798   0.128  24.839  0.00  0.00    +0.225 C 
ATOM     10  O   UNL     1       5.480   1.318  24.788  0.00  0.00    -0.275 OA
ATOM     11  C   UNL     1       5.579  -2.889  24.222  0.00  0.00    +0.025 A 
ATOM     12  C   UNL     1       5.557  -4.291  24.133  0.00  0.00    +0.002 A 
ATOM     13  C   UNL     1       6.553  -4.949  23.447  0.00  0.00    +0.001 A 
ATOM     14  C   UNL     1       7.567  -4.192  22.889  0.00  0.00    +0.017 A 
ATOM     15  C   UNL     1       7.588   0.177  23.091  0.00  0.00    +0.057 A 
ATOM     16  C   UNL     1       7.471   1.575  22.961  0.00  0.00    +0.048 A 
ENDROOT
BRANCH   1  18
ATOM     17  C   UNL     1       8.681   4.638  23.367  0.00  0.00    +0.405 C 
ATOM     18  N   UNL     1       8.296   3.792  22.363  0.00  0.00    -0.251 N 
ATOM     19  H   UNL     1       7.724   4.222  21.651  0.00  0.00    +0.158 HD
ATOM     20  O   UNL     1       9.039   4.323  24.494  0.00  0.00    -0.226 OA
BRANCH  17  21
ATOM     21  O   UNL     1       8.477   5.915  22.959  0.00  0.00    -0.450 OA
BRANCH  21  23
ATOM     22  C   UNL     1       6.562   7.108  22.267  0.00  0.00    +0.048 C 
ATOM     23  C   UNL     1       7.560   6.042  21.866  0.00  0.00    +0.230 C 
ENDBRANCH  21  23
ENDBRANCH  17  21
ENDBRANCH   1  18
BRANCH   9  24
ATOM     24  C   UNL     1       5.224  -0.636  26.013  0.00  0.00    +0.112 C 
BRANCH  24  25
ATOM     25  C   UNL     1       4.617   0.185  27.161  0.00  0.00    +0.094 C 
BRANCH  25  26
ATOM     26  N   UNL     1       5.499   0.063  28.346  0.00  0.00    -0.298 NA
ATOM     27  C   UNL     1       4.907   0.587  29.595  0.00  0.00    +0.112 C 
ATOM     28  C   UNL     1       4.766   2.114  29.577  0.00  0.00    +0.175 C 
ATOM     29  O   UNL     1       6.073   2.701  29.527  0.00  0.00    -0.377 OA
ATOM     30  C   UNL     1       6.788   2.271  28.364  0.00  0.00    +0.175 C 
ATOM     31  C   UNL     1       6.803   0.737  28.169  0.00  0.00    +0.112 C 
ENDBRANCH  25  26
ENDBRANCH  24  25
ENDBRANCH   9  24
TORSDOF 6
ENDMDL
MODEL 6
REMARK VINA RESULT:      -6.1      4.018      8.461
REMARK  Name = 
REMARK  7 active torsions:
REMARK  status: ('A' for Active; 'I' for Inactive)
REMARK    1  A    between atoms: C_1  and  C_2
REMARK    2  A    between atoms: C_2  and  O_3
REMARK    3  A    between atoms: O_3  and  C_4
REMARK    4  A    between atoms: N_6  and  C_7
REMARK    5  A    between atoms: C_19  and  C_21
REMARK    6  A    between atoms: C_21  and  C_22
REMARK    7  A    between atoms: C_22  and  N_23
REMARK                            x       y       z     vdW  Elec       q    Type
REMARK                         _______ _______ _______ _____ _____    ______ ____
ROOT
ATOM      1  C   UNL     1       8.077  -0.379  23.198  0.00  0.00    +0.038 A 
ATOM      2  C   UNL     1       8.853  -1.261  22.487  0.00  0.00    +0.024 A 
ATOM      3  C   UNL     1       8.348  -2.530  22.240  0.00  0.00    +0.019 A 
ATOM      4  C   UNL     1       7.115  -2.953  22.788  0.00  0.00    +0.035 A 
ATOM      5  S   UNL     1       6.699  -4.608  22.371  0.00  0.00    -0.086 S 
ATOM      6  C   UNL     1       5.093  -4.743  23.080  0.00  0.00    +0.035 A 
ATOM      7  C   UNL     1       4.517  -3.820  23.973  0.00  0.00    +0.055 A 
ATOM      8  N   UNL     1       5.160  -2.548  24.376  0.00  0.00    -0.238 N 
ATOM      9  C   UNL     1       4.746  -1.733  25.496  0.00  0.00    +0.225 C 
ATOM     10  O   UNL     1       4.978  -0.536  25.674  0.00  0.00    -0.275 OA
ATOM     11  C   UNL     1       3.224  -4.190  24.412  0.00  0.00    +0.025 A 
ATOM     12  C   UNL     1       2.592  -5.405  24.094  0.00  0.00    +0.002 A 
ATOM     13  C   UNL     1       3.191  -6.278  23.215  0.00  0.00    +0.001 A 
ATOM     14  C   UNL     1       4.425  -5.933  22.694  0.00  0.00    +0.017 A 
ATOM     15  C   UNL     1       6.350  -2.115  23.614  0.00  0.00    +0.057 A 
ATOM     16  C   UNL     1       6.852  -0.804  23.729  0.00  0.00    +0.048 A 
ENDROOT
BRANCH   1  18
ATOM     17  C   UNL     1       8.350   1.994  22.605  0.00  0.00    +0.405 C 
ATOM     18  N   UNL     1       8.552   0.921  23.429  0.00  0.00    -0.251 N 
ATOM     19  H   UNL     1       9.227   1.079  24.163  0.00  0.00    +0.158 HD
ATOM     20  O   UNL     1       7.899   1.969  21.467  0.00  0.00    -0.226 OA
BRANCH  17  21
ATOM     21  O   UNL     1       8.862   3.100  23.199  0.00  0.00    -0.450 OA
BRANCH  21  23
ATOM     22  C   UNL     1      11.180   3.528  23.310  0.00  0.00    +0.048 C 
ATOM     23  C   UNL     1      10.018   2.850  24.007  0.00  0.00    +0.230 C 
ENDBRANCH  21  23
ENDBRANCH  17  21
ENDBRANCH   1  18
BRANCH   9  24
ATOM     24  C   UNL     1       3.916  -2.390  26.577  0.00  0.00    +0.112 C 
BRANCH  24  25
ATOM     25  C   UNL     1       4.668  -3.069  27.731  0.00  0.00    +0.094 C 
BRANCH  25  26
ATOM     26  N   UNL     1       4.383  -4.524  27.689  0.00  0.00    -0.298 NA
ATOM     27  C   UNL     1       4.101  -5.122  29.012  0.00  0.00    +0.112 C 
ATOM     28  C   UNL     1       5.344  -5.164  29.908  0.00  0.00    +0.175 C 
ATOM     29  O   UNL     1       6.314  -6.039  29.319  0.00  0.00    -0.377 OA
ATOM     30  C   UNL     1       6.683  -5.595  28.009  0.00  0.00    +0.175 C 
ATOM     31  C   UNL     1       5.478  -5.311  27.083  0.00  0.00    +0.112 C 
ENDBRANCH  25  26
ENDBRANCH  24  25
ENDBRANCH   9  24
TORSDOF 6
ENDMDL
MODEL 7
REMARK VINA RESULT:      -6.0      4.554      8.710
REMARK  Name = 
REMARK  7 active torsions:
REMARK  status: ('A' for Active; 'I' for Inactive)
REMARK    1  A    between atoms: C_1  and  C_2
REMARK    2  A    between atoms: C_2  and  O_3
REMARK    3  A    between atoms: O_3  and  C_4
REMARK    4  A    between atoms: N_6  and  C_7
REMARK    5  A    between atoms: C_19  and  C_21
REMARK    6  A    between atoms: C_21  and  C_22
REMARK    7  A    between atoms: C_22  and  N_23
REMARK                            x       y       z     vdW  Elec       q    Type
REMARK                         _______ _______ _______ _____ _____    ______ ____
ROOT
ATOM      1  C   UNL     1       7.486  -1.625  23.080  0.00  0.00    +0.038 A 
ATOM      2  C   UNL     1       7.987  -2.647  22.313  0.00  0.00    +0.024 A 
ATOM      3  C   UNL     1       7.215  -3.789  22.152  0.00  0.00    +0.019 A 
ATOM      4  C   UNL     1       5.988  -3.952  22.837  0.00  0.00    +0.035 A 
ATOM      5  S   UNL     1       5.207  -5.490  22.508  0.00  0.00    -0.086 S 
ATOM      6  C   UNL     1       3.692  -5.296  23.385  0.00  0.00    +0.035 A 
ATOM      7  C   UNL     1       3.414  -4.273  24.311  0.00  0.00    +0.055 A 
ATOM      8  N   UNL     1       4.338  -3.156  24.612  0.00  0.00    -0.238 N 
ATOM      9  C   UNL     1       4.220  -2.271  25.749  0.00  0.00    +0.225 C 
ATOM     10  O   UNL     1       4.705  -1.145  25.872  0.00  0.00    -0.275 OA
ATOM     11  C   UNL     1       2.128  -4.373  24.893  0.00  0.00    +0.025 A 
ATOM     12  C   UNL     1       1.235  -5.436  24.673  0.00  0.00    +0.002 A 
ATOM     13  C   UNL     1       1.548  -6.415  23.758  0.00  0.00    +0.001 A 
ATOM     14  C   UNL     1       2.761  -6.328  23.101  0.00  0.00    +0.017 A 
ATOM     15  C   UNL     1       5.502  -2.975  23.718  0.00  0.00    +0.057 A 
ATOM     16  C   UNL     1       6.265  -1.792  23.747  0.00  0.00    +0.048 A 
ENDROOT
BRANCH   1  18
ATOM     17  C   UNL     1       9.346  -0.309  24.012  0.00  0.00    +0.405 C 
ATOM     18  N   UNL     1       8.234  -0.446  23.227  0.00  0.00    -0.251 N 
ATOM     19  H   UNL     1       7.864   0.423  22.872  0.00  0.00    +0.158 HD
ATOM     20  O   UNL     1       9.760  -1.109  24.841  0.00  0.00    -0.226 OA
BRANCH  17  21
ATOM     21  O   UNL     1       9.857   0.932  23.825  0.00  0.00    -0.450 OA
BRANCH  21  23
ATOM     22  C   UNL     1       9.557   3.272  23.894  0.00  0.00    +0.048 C 
ATOM     23  C   UNL     1       9.179   1.962  24.554  0.00  0.00    +0.230 C 
ENDBRANCH  21  23
ENDBRANCH  17  21
ENDBRANCH   1  18
BRANCH   9  24
ATOM     24  C   UNL     1       3.397  -2.743  26.928  0.00  0.00    +0.112 C 
BRANCH  24  25
ATOM     25  C   UNL     1       4.155  -3.325  28.131  0.00  0.00    +0.094 C 
BRANCH  25  26
ATOM     26  N   UNL     1       4.025  -4.801  28.102  0.00  0.00    -0.298 NA
ATOM     27  C   UNL     1       4.002  -5.431  29.439  0.00  0.00    +0.112 C 
ATOM     28  C   UNL     1       5.357  -5.340  30.150  0.00  0.00    +0.175 C 
ATOM     29  O   UNL     1       6.322  -6.102  29.412  0.00  0.00    -0.377 OA
ATOM     30  C   UNL     1       6.450  -5.616  28.072  0.00  0.00    +0.175 C 
ATOM     31  C   UNL     1       5.101  -5.461  27.331  0.00  0.00    +0.112 C 
ENDBRANCH  25  26
ENDBRANCH  24  25
ENDBRANCH   9  24
TORSDOF 6
ENDMDL
MODEL 8
REMARK VINA RESULT:      -6.0      3.433      7.239
REMARK  Name = 
REMARK  7 active torsions:
REMARK  status: ('A' for Active; 'I' for Inactive)
REMARK    1  A    between atoms: C_1  and  C_2
REMARK    2  A    between atoms: C_2  and  O_3
REMARK    3  A    between atoms: O_3  and  C_4
REMARK    4  A    between atoms: N_6  and  C_7
REMARK    5  A    between atoms: C_19  and  C_21
REMARK    6  A    between atoms: C_21  and  C_22
REMARK    7  A    between atoms: C_22  and  N_23
REMARK                            x       y       z     vdW  Elec       q    Type
REMARK                         _______ _______ _______ _____ _____    ______ ____
ROOT
ATOM      1  C   UNL     1       8.388   2.393  22.385  0.00  0.00    +0.038 A 
ATOM      2  C   UNL     1       9.530   1.848  21.854  0.00  0.00    +0.024 A 
ATOM      3  C   UNL     1       9.653   0.465  21.838  0.00  0.00    +0.019 A 
ATOM      4  C   UNL     1       8.684  -0.369  22.442  0.00  0.00    +0.035 A 
ATOM      5  S   UNL     1       9.071  -2.079  22.330  0.00  0.00    -0.086 S 
ATOM      6  C   UNL     1       7.628  -2.800  23.037  0.00  0.00    +0.035 A 
ATOM      7  C   UNL     1       6.630  -2.100  23.742  0.00  0.00    +0.055 A 
ATOM      8  N   UNL     1       6.615  -0.629  23.911  0.00  0.00    -0.238 N 
ATOM      9  C   UNL     1       5.789   0.084  24.860  0.00  0.00    +0.225 C 
ATOM     10  O   UNL     1       5.459   1.271  24.819  0.00  0.00    -0.275 OA
ATOM     11  C   UNL     1       5.595  -2.931  24.228  0.00  0.00    +0.025 A 
ATOM     12  C   UNL     1       5.586  -4.334  24.131  0.00  0.00    +0.002 A 
ATOM     13  C   UNL     1       6.582  -4.977  23.432  0.00  0.00    +0.001 A 
ATOM     14  C   UNL     1       7.583  -4.207  22.868  0.00  0.00    +0.017 A 
ATOM     15  C   UNL     1       7.561   0.161  23.095  0.00  0.00    +0.057 A 
ATOM     16  C   UNL     1       7.428   1.558  22.973  0.00  0.00    +0.048 A 
ENDROOT
BRANCH   1  18
ATOM     17  C   UNL     1       8.608   4.631  23.386  0.00  0.00    +0.405 C 
ATOM     18  N   UNL     1       8.225   3.787  22.380  0.00  0.00    -0.251 N 
ATOM     19  H   UNL     1       7.644   4.215  21.674  0.00  0.00    +0.158 HD
ATOM     20  O   UNL     1       8.977   4.313  24.509  0.00  0.00    -0.226 OA
BRANCH  17  21
ATOM     21  O   UNL     1       8.388   5.908  22.987  0.00  0.00    -0.450 OA
BRANCH  21  23
ATOM     22  C   UNL     1       6.109   6.432  22.670  0.00  0.00    +0.048 C 
ATOM     23  C   UNL     1       7.392   6.040  21.967  0.00  0.00    +0.230 C 
ENDBRANCH  21  23
ENDBRANCH  17  21
ENDBRANCH   1  18
BRANCH   9  24
ATOM     24  C   UNL     1       5.235  -0.692  26.035  0.00  0.00    +0.112 C 
BRANCH  24  25
ATOM     25  C   UNL     1       4.177   0.002  26.905  0.00  0.00    +0.094 C 
BRANCH  25  26
ATOM     26  N   UNL     1       2.888  -0.711  26.740  0.00  0.00    -0.298 NA
ATOM     27  C   UNL     1       1.813  -0.229  27.633  0.00  0.00    +0.112 C 
ATOM     28  C   UNL     1       2.075  -0.581  29.102  0.00  0.00    +0.175 C 
ATOM     29  O   UNL     1       2.053  -2.006  29.251  0.00  0.00    -0.377 OA
ATOM     30  C   UNL     1       3.042  -2.628  28.425  0.00  0.00    +0.175 C 
ATOM     31  C   UNL     1       3.003  -2.170  26.948  0.00  0.00    +0.112 C 
ENDBRANCH  25  26
ENDBRANCH  24  25
ENDBRANCH   9  24
TORSDOF 6
ENDMDL
MODEL 9
REMARK VINA RESULT:      -5.9      1.812      2.196
REMARK  Name = 
REMARK  7 active torsions:
REMARK  status: ('A' for Active; 'I' for Inactive)
REMARK    1  A    between atoms: C_1  and  C_2
REMARK    2  A    between atoms: C_2  and  O_3
REMARK    3  A    between atoms: O_3  and  C_4
REMARK    4  A    between atoms: N_6  and  C_7
REMARK    5  A    between atoms: C_19  and  C_21
REMARK    6  A    between atoms: C_21  and  C_22
REMARK    7  A    between atoms: C_22  and  N_23
REMARK                            x       y       z     vdW  Elec       q    Type
REMARK                         _______ _______ _______ _____ _____    ______ ____
ROOT
ATOM      1  C   UNL     1       8.720  -0.927  24.460  0.00  0.00    +0.038 A 
ATOM      2  C   UNL     1      10.043  -0.834  24.105  0.00  0.00    +0.024 A 
ATOM      3  C   UNL     1      10.572   0.426  23.861  0.00  0.00    +0.019 A 
ATOM      4  C   UNL     1       9.759   1.583  23.873  0.00  0.00    +0.035 A 
ATOM      5  S   UNL     1      10.639   3.056  23.500  0.00  0.00    -0.086 S 
ATOM      6  C   UNL     1       9.385   4.269  23.737  0.00  0.00    +0.035 A 
ATOM      7  C   UNL     1       8.011   4.001  23.888  0.00  0.00    +0.055 A 
ATOM      8  N   UNL     1       7.438   2.637  23.957  0.00  0.00    -0.238 N 
ATOM      9  C   UNL     1       6.034   2.325  23.815  0.00  0.00    +0.225 C 
ATOM     10  O   UNL     1       5.451   1.311  24.204  0.00  0.00    -0.275 OA
ATOM     11  C   UNL     1       7.221   5.166  24.032  0.00  0.00    +0.025 A 
ATOM     12  C   UNL     1       7.712   6.479  23.930  0.00  0.00    +0.002 A 
ATOM     13  C   UNL     1       9.063   6.695  23.783  0.00  0.00    +0.001 A 
ATOM     14  C   UNL     1       9.895   5.593  23.712  0.00  0.00    +0.017 A 
ATOM     15  C   UNL     1       8.379   1.510  24.120  0.00  0.00    +0.057 A 
ATOM     16  C   UNL     1       7.924   0.226  24.478  0.00  0.00    +0.048 A 
ENDROOT
BRANCH   1  18
ATOM     17  C   UNL     1       7.923  -3.167  23.825  0.00  0.00    +0.405 C 
ATOM     18  N   UNL     1       8.172  -2.187  24.746  0.00  0.00    -0.251 N 
ATOM     19  H   UNL     1       7.773  -2.358  25.657  0.00  0.00    +0.158 HD
ATOM     20  O   UNL     1       7.958  -3.054  22.607  0.00  0.00    -0.226 OA
BRANCH  17  21
ATOM     21  O   UNL     1       7.493  -4.275  24.478  0.00  0.00    -0.450 OA
BRANCH  21  23
ATOM     22  C   UNL     1       7.945  -5.265  26.572  0.00  0.00    +0.048 C 
ATOM     23  C   UNL     1       8.518  -4.964  25.202  0.00  0.00    +0.230 C 
ENDBRANCH  21  23
ENDBRANCH  17  21
ENDBRANCH   1  18
BRANCH   9  24
ATOM     24  C   UNL     1       5.149   3.347  23.134  0.00  0.00    +0.112 C 
BRANCH  24  25
ATOM     25  C   UNL     1       3.789   3.648  23.782  0.00  0.00    +0.094 C 
BRANCH  25  26
ATOM     26  N   UNL     1       2.729   2.983  22.987  0.00  0.00    -0.298 NA
ATOM     27  C   UNL     1       2.724   3.357  21.556  0.00  0.00    +0.112 C 
ATOM     28  C   UNL     1       2.290   4.810  21.336  0.00  0.00    +0.175 C 
ATOM     29  O   UNL     1       0.926   4.957  21.748  0.00  0.00    -0.377 OA
ATOM     30  C   UNL     1       0.762   4.612  23.128  0.00  0.00    +0.175 C 
ATOM     31  C   UNL     1       1.369   3.241  23.506  0.00  0.00    +0.112 C 
ENDBRANCH  25  26
ENDBRANCH  24  25
ENDBRANCH   9  24
TORSDOF 6
ENDMDL
