MODEL 1
REMARK VINA RESULT:      -7.2      0.000      0.000
REMARK  Name = 
REMARK  12 active torsions:
REMARK  status: ('A' for Active; 'I' for Inactive)
REMARK    1  A    between atoms: C_2  and  N_3
REMARK    2  A    between atoms: C_2  and  C_21
REMARK    3  A    between atoms: C_2  and  P_24
REMARK    4  A    between atoms: N_3  and  S_4
REMARK    5  A    between atoms: S_4  and  C_7
REMARK    6  A    between atoms: C_10  and  C_13
REMARK    7  A    between atoms: C_16  and  O_17
REMARK    8  A    between atoms: O_17  and  C_18
REMARK    9  A    between atoms: C_21  and  C_22
REMARK   10  A    between atoms: C_21  and  C_23
REMARK   11  A    between atoms: P_24  and  O_25
REMARK   12  A    between atoms: P_24  and  O_26
REMARK                            x       y       z     vdW  Elec       q    Type
REMARK                         _______ _______ _______ _____ _____    ______ ____
ROOT
ATOM      1  S   UNL     1       8.231  -5.101  25.093  0.00  0.00    +0.059 S 
ATOM      2  O   UNL     1       9.021  -5.760  24.082  0.00  0.00    -0.153 OA
ATOM      3  O   UNL     1       8.095  -5.643  26.418  0.00  0.00    -0.153 OA
ENDROOT
BRANCH   1   4
ATOM      4  C   UNL     1       8.806  -3.423  25.166  0.00  0.00    +0.105 A 
ATOM      5  C   UNL     1       9.630  -2.969  24.136  0.00  0.00    +0.029 A 
ATOM      6  C   UNL     1       9.898  -1.603  24.015  0.00  0.00    +0.010 A 
ATOM      7  C   UNL     1       9.355  -0.667  24.915  0.00  0.00    -0.018 A 
ATOM      8  C   UNL     1       8.624  -1.177  26.010  0.00  0.00    +0.010 A 
ATOM      9  C   UNL     1       8.358  -2.547  26.150  0.00  0.00    +0.029 A 
BRANCH   7  10
ATOM     10  C   UNL     1       9.469   0.795  24.670  0.00  0.00    -0.018 A 
ATOM     11  C   UNL     1      10.570   1.334  23.974  0.00  0.00    +0.012 A 
ATOM     12  C   UNL     1      10.661   2.699  23.661  0.00  0.00    +0.046 A 
ATOM     13  C   UNL     1       9.637   3.565  24.024  0.00  0.00    +0.120 A 
ATOM     14  C   UNL     1       8.536   3.057  24.712  0.00  0.00    +0.046 A 
ATOM     15  C   UNL     1       8.461   1.698  25.044  0.00  0.00    +0.012 A 
BRANCH  13  16
ATOM     16  O   UNL     1       9.570   4.892  23.706  0.00  0.00    -0.495 OA
ATOM     17  C   UNL     1      10.808   5.591  23.656  0.00  0.00    +0.277 C 
ENDBRANCH  13  16
ENDBRANCH   7  10
ENDBRANCH   1   4
BRANCH   1  18
ATOM     18  N   UNL     1       6.686  -4.922  24.450  0.00  0.00    -0.175 NA
ATOM     19  H   UNL     1       6.023  -5.629  24.755  0.00  0.00    +0.149 HD
BRANCH  18  20
ATOM     20  C   UNL     1       6.450  -4.286  23.112  0.00  0.00    +0.192 C 
BRANCH  20  21
ATOM     21  C   UNL     1       5.604  -3.008  23.207  0.00  0.00    +0.013 C 
ATOM     22  C   UNL     1       6.389  -1.731  22.902  0.00  0.00    +0.009 C 
ATOM     23  C   UNL     1       4.980  -2.855  24.600  0.00  0.00    +0.009 C 
ENDBRANCH  20  21
BRANCH  20  24
ATOM     24  P   UNL     1       5.904  -5.527  21.892  0.00  0.00    +0.346 P 
ATOM     25  O   UNL     1       5.950  -5.185  20.440  0.00  0.00    -0.257 OA
BRANCH  24  26
ATOM     26  O   UNL     1       4.442  -5.995  22.367  0.00  0.00    -0.323 OA
ATOM     27  H   UNL     1       3.900  -6.225  21.581  0.00  0.00    +0.220 HD
ENDBRANCH  24  26
BRANCH  24  28
ATOM     28  O   UNL     1       6.727  -6.866  22.239  0.00  0.00    -0.323 OA
ATOM     29  H   UNL     1       6.205  -7.688  22.192  0.00  0.00    +0.220 HD
ENDBRANCH  24  28
ENDBRANCH  20  24
ENDBRANCH  18  20
ENDBRANCH   1  18
TORSDOF 9
ENDMDL
MODEL 2
REMARK VINA RESULT:      -6.7      1.643      2.008
REMARK  Name = 
REMARK  12 active torsions:
REMARK  status: ('A' for Active; 'I' for Inactive)
REMARK    1  A    between atoms: C_2  and  N_3
REMARK    2  A    between atoms: C_2  and  C_21
REMARK    3  A    between atoms: C_2  and  P_24
REMARK    4  A    between atoms: N_3  and  S_4
REMARK    5  A    between atoms: S_4  and  C_7
REMARK    6  A    between atoms: C_10  and  C_13
REMARK    7  A    between atoms: C_16  and  O_17
REMARK    8  A    between atoms: O_17  and  C_18
REMARK    9  A    between atoms: C_21  and  C_22
REMARK   10  A    between atoms: C_21  and  C_23
REMARK   11  A    between atoms: P_24  and  O_25
REMARK   12  A    between atoms: P_24  and  O_26
REMARK                            x       y       z     vdW  Elec       q    Type
REMARK                         _______ _______ _______ _____ _____    ______ ____
ROOT
ATOM      1  S   UNL     1       8.252  -4.546  25.194  0.00  0.00    +0.059 S 
ATOM      2  O   UNL     1       9.022  -5.279  24.221  0.00  0.00    -0.153 OA
ATOM      3  O   UNL     1       8.099  -5.014  26.545  0.00  0.00    -0.153 OA
ENDROOT
BRANCH   1   4
ATOM      4  C   UNL     1       8.875  -2.884  25.182  0.00  0.00    +0.105 A 
ATOM      5  C   UNL     1       9.584  -2.461  24.057  0.00  0.00    +0.029 A 
ATOM      6  C   UNL     1       9.873  -1.103  23.891  0.00  0.00    +0.010 A 
ATOM      7  C   UNL     1       9.464  -0.146  24.838  0.00  0.00    -0.018 A 
ATOM      8  C   UNL     1       8.853  -0.627  26.016  0.00  0.00    +0.010 A 
ATOM      9  C   UNL     1       8.569  -1.988  26.201  0.00  0.00    +0.029 A 
BRANCH   7  10
ATOM     10  C   UNL     1       9.587   1.311  24.566  0.00  0.00    -0.018 A 
ATOM     11  C   UNL     1      10.672   1.825  23.826  0.00  0.00    +0.012 A 
ATOM     12  C   UNL     1      10.768   3.184  23.488  0.00  0.00    +0.046 A 
ATOM     13  C   UNL     1       9.767   4.068  23.869  0.00  0.00    +0.120 A 
ATOM     14  C   UNL     1       8.683   3.584  24.600  0.00  0.00    +0.046 A 
ATOM     15  C   UNL     1       8.602   2.232  24.957  0.00  0.00    +0.012 A 
BRANCH  13  16
ATOM     16  O   UNL     1       9.705   5.390  23.531  0.00  0.00    -0.495 OA
ATOM     17  C   UNL     1      10.343   6.298  24.421  0.00  0.00    +0.277 C 
ENDBRANCH  13  16
ENDBRANCH   7  10
ENDBRANCH   1   4
BRANCH   1  18
ATOM     18  N   UNL     1       6.713  -4.355  24.539  0.00  0.00    -0.175 NA
ATOM     19  H   UNL     1       6.133  -3.680  25.028  0.00  0.00    +0.149 HD
BRANCH  18  20
ATOM     20  C   UNL     1       6.016  -5.466  23.810  0.00  0.00    +0.192 C 
BRANCH  20  21
ATOM     21  C   UNL     1       5.598  -5.067  22.388  0.00  0.00    +0.013 C 
ATOM     22  C   UNL     1       6.366  -5.813  21.294  0.00  0.00    +0.009 C 
ATOM     23  C   UNL     1       5.786  -3.564  22.151  0.00  0.00    +0.009 C 
ENDBRANCH  20  21
BRANCH  20  24
ATOM     24  P   UNL     1       4.717  -6.210  24.854  0.00  0.00    +0.346 P 
ATOM     25  O   UNL     1       3.489  -5.420  25.156  0.00  0.00    -0.257 OA
BRANCH  24  26
ATOM     26  O   UNL     1       5.463  -6.720  26.184  0.00  0.00    -0.323 OA
ATOM     27  H   UNL     1       5.805  -7.628  26.040  0.00  0.00    +0.220 HD
ENDBRANCH  24  26
BRANCH  24  28
ATOM     28  O   UNL     1       4.387  -7.635  24.183  0.00  0.00    -0.323 OA
ATOM     29  H   UNL     1       5.000  -7.903  23.474  0.00  0.00    +0.220 HD
ENDBRANCH  24  28
ENDBRANCH  20  24
ENDBRANCH  18  20
ENDBRANCH   1  18
TORSDOF 9
ENDMDL
MODEL 3
REMARK VINA RESULT:      -6.5      1.970      3.744
REMARK  Name = 
REMARK  12 active torsions:
REMARK  status: ('A' for Active; 'I' for Inactive)
REMARK    1  A    between atoms: C_2  and  N_3
REMARK    2  A    between atoms: C_2  and  C_21
REMARK    3  A    between atoms: C_2  and  P_24
REMARK    4  A    between atoms: N_3  and  S_4
REMARK    5  A    between atoms: S_4  and  C_7
REMARK    6  A    between atoms: C_10  and  C_13
REMARK    7  A    between atoms: C_16  and  O_17
REMARK    8  A    between atoms: O_17  and  C_18
REMARK    9  A    between atoms: C_21  and  C_22
REMARK   10  A    between atoms: C_21  and  C_23
REMARK   11  A    between atoms: P_24  and  O_25
REMARK   12  A    between atoms: P_24  and  O_26
REMARK                            x       y       z     vdW  Elec       q    Type
REMARK                         _______ _______ _______ _____ _____    ______ ____
ROOT
ATOM      1  S   UNL     1       6.298  -4.862  23.275  0.00  0.00    +0.059 S 
ATOM      2  O   UNL     1       4.941  -4.680  23.726  0.00  0.00    -0.153 OA
ATOM      3  O   UNL     1       6.625  -5.776  22.214  0.00  0.00    -0.153 OA
ENDROOT
BRANCH   1   4
ATOM      4  C   UNL     1       6.929  -3.243  22.913  0.00  0.00    +0.105 A 
ATOM      5  C   UNL     1       6.181  -2.142  23.330  0.00  0.00    +0.029 A 
ATOM      6  C   UNL     1       6.750  -0.865  23.297  0.00  0.00    +0.010 A 
ATOM      7  C   UNL     1       8.068  -0.662  22.848  0.00  0.00    -0.018 A 
ATOM      8  C   UNL     1       8.749  -1.782  22.326  0.00  0.00    +0.010 A 
ATOM      9  C   UNL     1       8.186  -3.066  22.342  0.00  0.00    +0.029 A 
BRANCH   7  10
ATOM     10  C   UNL     1       8.742   0.655  23.003  0.00  0.00    -0.018 A 
ATOM     11  C   UNL     1       8.497   1.471  24.126  0.00  0.00    +0.012 A 
ATOM     12  C   UNL     1       9.181   2.679  24.335  0.00  0.00    +0.046 A 
ATOM     13  C   UNL     1      10.146   3.097  23.427  0.00  0.00    +0.120 A 
ATOM     14  C   UNL     1      10.408   2.307  22.309  0.00  0.00    +0.046 A 
ATOM     15  C   UNL     1       9.706   1.114  22.092  0.00  0.00    +0.012 A 
BRANCH  13  16
ATOM     16  O   UNL     1      10.934   4.205  23.561  0.00  0.00    -0.495 OA
ATOM     17  C   UNL     1      10.264   5.421  23.875  0.00  0.00    +0.277 C 
ENDBRANCH  13  16
ENDBRANCH   7  10
ENDBRANCH   1   4
BRANCH   1  18
ATOM     18  N   UNL     1       7.196  -5.302  24.628  0.00  0.00    -0.175 NA
ATOM     19  H   UNL     1       7.354  -6.302  24.716  0.00  0.00    +0.149 HD
BRANCH  18  20
ATOM     20  C   UNL     1       7.182  -4.492  25.890  0.00  0.00    +0.192 C 
BRANCH  20  21
ATOM     21  C   UNL     1       8.560  -3.904  26.229  0.00  0.00    +0.013 C 
ATOM     22  C   UNL     1       8.606  -2.376  26.155  0.00  0.00    +0.009 C 
ATOM     23  C   UNL     1       9.646  -4.452  25.295  0.00  0.00    +0.009 C 
ENDBRANCH  20  21
BRANCH  20  24
ATOM     24  P   UNL     1       6.339  -5.396  27.232  0.00  0.00    +0.346 P 
ATOM     25  O   UNL     1       5.444  -4.645  28.160  0.00  0.00    -0.257 OA
BRANCH  24  26
ATOM     26  O   UNL     1       7.491  -6.204  28.008  0.00  0.00    -0.323 OA
ATOM     27  H   UNL     1       7.285  -6.227  28.967  0.00  0.00    +0.220 HD
ENDBRANCH  24  26
BRANCH  24  28
ATOM     28  O   UNL     1       5.594  -6.632  26.519  0.00  0.00    -0.323 OA
ATOM     29  H   UNL     1       5.306  -6.460  25.604  0.00  0.00    +0.220 HD
ENDBRANCH  24  28
ENDBRANCH  20  24
ENDBRANCH  18  20
ENDBRANCH   1  18
TORSDOF 9
ENDMDL
MODEL 4
REMARK VINA RESULT:      -6.4      1.422      2.118
REMARK  Name = 
REMARK  12 active torsions:
REMARK  status: ('A' for Active; 'I' for Inactive)
REMARK    1  A    between atoms: C_2  and  N_3
REMARK    2  A    between atoms: C_2  and  C_21
REMARK    3  A    between atoms: C_2  and  P_24
REMARK    4  A    between atoms: N_3  and  S_4
REMARK    5  A    between atoms: S_4  and  C_7
REMARK    6  A    between atoms: C_10  and  C_13
REMARK    7  A    between atoms: C_16  and  O_17
REMARK    8  A    between atoms: O_17  and  C_18
REMARK    9  A    between atoms: C_21  and  C_22
REMARK   10  A    between atoms: C_21  and  C_23
REMARK   11  A    between atoms: P_24  and  O_25
REMARK   12  A    between atoms: P_24  and  O_26
REMARK                            x       y       z     vdW  Elec       q    Type
REMARK                         _______ _______ _______ _____ _____    ______ ____
ROOT
ATOM      1  S   UNL     1       8.990  -4.505  25.599  0.00  0.00    +0.059 S 
ATOM      2  O   UNL     1      10.209  -4.993  25.003  0.00  0.00    -0.153 OA
ATOM      3  O   UNL     1       8.738  -4.625  27.010  0.00  0.00    -0.153 OA
ENDROOT
BRANCH   1   4
ATOM      4  C   UNL     1       8.817  -2.817  25.081  0.00  0.00    +0.105 A 
ATOM      5  C   UNL     1       8.460  -1.872  26.043  0.00  0.00    +0.029 A 
ATOM      6  C   UNL     1       8.558  -0.510  25.745  0.00  0.00    +0.010 A 
ATOM      7  C   UNL     1       9.009  -0.065  24.489  0.00  0.00    -0.018 A 
ATOM      8  C   UNL     1       9.248  -1.049  23.506  0.00  0.00    +0.010 A 
ATOM      9  C   UNL     1       9.142  -2.419  23.788  0.00  0.00    +0.029 A 
BRANCH   7  10
ATOM     10  C   UNL     1       9.308   1.371  24.240  0.00  0.00    -0.018 A 
ATOM     11  C   UNL     1       8.507   2.389  24.796  0.00  0.00    +0.012 A 
ATOM     12  C   UNL     1       8.815   3.750  24.642  0.00  0.00    +0.046 A 
ATOM     13  C   UNL     1       9.951   4.130  23.937  0.00  0.00    +0.120 A 
ATOM     14  C   UNL     1      10.760   3.142  23.379  0.00  0.00    +0.046 A 
ATOM     15  C   UNL     1      10.436   1.786  23.514  0.00  0.00    +0.012 A 
BRANCH  13  16
ATOM     16  O   UNL     1      10.401   5.411  23.789  0.00  0.00    -0.495 OA
ATOM     17  C   UNL     1      11.802   5.569  23.601  0.00  0.00    +0.277 C 
ENDBRANCH  13  16
ENDBRANCH   7  10
ENDBRANCH   1   4
BRANCH   1  18
ATOM     18  N   UNL     1       7.725  -5.261  24.786  0.00  0.00    -0.175 NA
ATOM     19  H   UNL     1       8.020  -5.989  24.142  0.00  0.00    +0.149 HD
BRANCH  18  20
ATOM     20  C   UNL     1       6.438  -4.552  24.484  0.00  0.00    +0.192 C 
BRANCH  20  21
ATOM     21  C   UNL     1       5.361  -4.806  25.549  0.00  0.00    +0.013 C 
ATOM     22  C   UNL     1       5.305  -3.725  26.631  0.00  0.00    +0.009 C 
ATOM     23  C   UNL     1       5.572  -6.156  26.245  0.00  0.00    +0.009 C 
ENDBRANCH  20  21
BRANCH  20  24
ATOM     24  P   UNL     1       5.939  -4.824  22.750  0.00  0.00    +0.346 P 
ATOM     25  O   UNL     1       4.957  -3.892  22.125  0.00  0.00    -0.257 OA
BRANCH  24  26
ATOM     26  O   UNL     1       5.469  -6.359  22.666  0.00  0.00    -0.323 OA
ATOM     27  H   UNL     1       4.512  -6.421  22.874  0.00  0.00    +0.220 HD
ENDBRANCH  24  26
BRANCH  24  28
ATOM     28  O   UNL     1       7.311  -4.929  21.917  0.00  0.00    -0.323 OA
ATOM     29  H   UNL     1       7.638  -4.082  21.563  0.00  0.00    +0.220 HD
ENDBRANCH  24  28
ENDBRANCH  20  24
ENDBRANCH  18  20
ENDBRANCH   1  18
TORSDOF 9
ENDMDL
MODEL 5
REMARK VINA RESULT:      -6.2      2.091      3.395
REMARK  Name = 
REMARK  12 active torsions:
REMARK  status: ('A' for Active; 'I' for Inactive)
REMARK    1  A    between atoms: C_2  and  N_3
REMARK    2  A    between atoms: C_2  and  C_21
REMARK    3  A    between atoms: C_2  and  P_24
REMARK    4  A    between atoms: N_3  and  S_4
REMARK    5  A    between atoms: S_4  and  C_7
REMARK    6  A    between atoms: C_10  and  C_13
REMARK    7  A    between atoms: C_16  and  O_17
REMARK    8  A    between atoms: O_17  and  C_18
REMARK    9  A    between atoms: C_21  and  C_22
REMARK   10  A    between atoms: C_21  and  C_23
REMARK   11  A    between atoms: P_24  and  O_25
REMARK   12  A    between atoms: P_24  and  O_26
REMARK                            x       y       z     vdW  Elec       q    Type
REMARK                         _______ _______ _______ _____ _____    ______ ____
ROOT
ATOM      1  S   UNL     1       8.006  -4.674  23.814  0.00  0.00    +0.059 S 
ATOM      2  O   UNL     1       7.463  -5.245  22.606  0.00  0.00    -0.153 OA
ATOM      3  O   UNL     1       9.040  -5.335  24.564  0.00  0.00    -0.153 OA
ENDROOT
BRANCH   1   4
ATOM      4  C   UNL     1       8.497  -3.017  23.412  0.00  0.00    +0.105 A 
ATOM      5  C   UNL     1       7.530  -2.158  22.889  0.00  0.00    +0.029 A 
ATOM      6  C   UNL     1       7.798  -0.789  22.795  0.00  0.00    +0.010 A 
ATOM      7  C   UNL     1       9.028  -0.252  23.217  0.00  0.00    -0.018 A 
ATOM      8  C   UNL     1      10.020  -1.167  23.630  0.00  0.00    +0.010 A 
ATOM      9  C   UNL     1       9.770  -2.544  23.717  0.00  0.00    +0.029 A 
BRANCH   7  10
ATOM     10  C   UNL     1       9.238   1.217  23.310  0.00  0.00    -0.018 A 
ATOM     11  C   UNL     1       8.148   2.104  23.416  0.00  0.00    +0.012 A 
ATOM     12  C   UNL     1       8.323   3.486  23.586  0.00  0.00    +0.046 A 
ATOM     13  C   UNL     1       9.603   4.019  23.671  0.00  0.00    +0.120 A 
ATOM     14  C   UNL     1      10.698   3.163  23.571  0.00  0.00    +0.046 A 
ATOM     15  C   UNL     1      10.520   1.787  23.377  0.00  0.00    +0.012 A 
BRANCH  13  16
ATOM     16  O   UNL     1       9.902   5.329  23.919  0.00  0.00    -0.495 OA
ATOM     17  C   UNL     1       9.002   6.292  23.383  0.00  0.00    +0.277 C 
ENDBRANCH  13  16
ENDBRANCH   7  10
ENDBRANCH   1   4
BRANCH   1  18
ATOM     18  N   UNL     1       6.703  -4.420  24.849  0.00  0.00    -0.175 NA
ATOM     19  H   UNL     1       6.729  -3.531  25.340  0.00  0.00    +0.149 HD
BRANCH  18  20
ATOM     20  C   UNL     1       5.982  -5.556  25.513  0.00  0.00    +0.192 C 
BRANCH  20  21
ATOM     21  C   UNL     1       4.512  -5.654  25.081  0.00  0.00    +0.013 C 
ATOM     22  C   UNL     1       4.084  -7.069  24.686  0.00  0.00    +0.009 C 
ATOM     23  C   UNL     1       4.215  -4.726  23.896  0.00  0.00    +0.009 C 
ENDBRANCH  20  21
BRANCH  20  24
ATOM     24  P   UNL     1       6.297  -5.562  27.310  0.00  0.00    +0.346 P 
ATOM     25  O   UNL     1       5.819  -4.413  28.133  0.00  0.00    -0.257 OA
BRANCH  24  26
ATOM     26  O   UNL     1       7.874  -5.822  27.477  0.00  0.00    -0.323 OA
ATOM     27  H   UNL     1       8.371  -5.034  27.170  0.00  0.00    +0.220 HD
ENDBRANCH  24  26
BRANCH  24  28
ATOM     28  O   UNL     1       5.745  -6.977  27.842  0.00  0.00    -0.323 OA
ATOM     29  H   UNL     1       6.242  -7.351  28.592  0.00  0.00    +0.220 HD
ENDBRANCH  24  28
ENDBRANCH  20  24
ENDBRANCH  18  20
ENDBRANCH   1  18
TORSDOF 9
ENDMDL
MODEL 6
REMARK VINA RESULT:      -6.0      2.014      2.997
REMARK  Name = 
REMARK  12 active torsions:
REMARK  status: ('A' for Active; 'I' for Inactive)
REMARK    1  A    between atoms: C_2  and  N_3
REMARK    2  A    between atoms: C_2  and  C_21
REMARK    3  A    between atoms: C_2  and  P_24
REMARK    4  A    between atoms: N_3  and  S_4
REMARK    5  A    between atoms: S_4  and  C_7
REMARK    6  A    between atoms: C_10  and  C_13
REMARK    7  A    between atoms: C_16  and  O_17
REMARK    8  A    between atoms: O_17  and  C_18
REMARK    9  A    between atoms: C_21  and  C_22
REMARK   10  A    between atoms: C_21  and  C_23
REMARK   11  A    between atoms: P_24  and  O_25
REMARK   12  A    between atoms: P_24  and  O_26
REMARK                            x       y       z     vdW  Elec       q    Type
REMARK                         _______ _______ _______ _____ _____    ______ ____
ROOT
ATOM      1  S   UNL     1       6.342  -4.436  22.431  0.00  0.00    +0.059 S 
ATOM      2  O   UNL     1       4.946  -4.123  22.248  0.00  0.00    -0.153 OA
ATOM      3  O   UNL     1       7.138  -4.984  21.367  0.00  0.00    -0.153 OA
ENDROOT
BRANCH   1   4
ATOM      4  C   UNL     1       7.105  -2.972  23.084  0.00  0.00    +0.105 A 
ATOM      5  C   UNL     1       8.484  -2.832  22.933  0.00  0.00    +0.029 A 
ATOM      6  C   UNL     1       9.088  -1.600  23.199  0.00  0.00    +0.010 A 
ATOM      7  C   UNL     1       8.333  -0.489  23.619  0.00  0.00    -0.018 A 
ATOM      8  C   UNL     1       6.961  -0.703  23.871  0.00  0.00    +0.010 A 
ATOM      9  C   UNL     1       6.345  -1.937  23.621  0.00  0.00    +0.029 A 
BRANCH   7  10
ATOM     10  C   UNL     1       8.937   0.867  23.703  0.00  0.00    -0.018 A 
ATOM     11  C   UNL     1      10.033   1.229  22.894  0.00  0.00    +0.012 A 
ATOM     12  C   UNL     1      10.569   2.527  22.898  0.00  0.00    +0.046 A 
ATOM     13  C   UNL     1      10.006   3.508  23.705  0.00  0.00    +0.120 A 
ATOM     14  C   UNL     1       8.921   3.176  24.513  0.00  0.00    +0.046 A 
ATOM     15  C   UNL     1       8.405   1.874  24.525  0.00  0.00    +0.012 A 
BRANCH  13  16
ATOM     16  O   UNL     1      10.382   4.821  23.735  0.00  0.00    -0.495 OA
ATOM     17  C   UNL     1       9.336   5.778  23.614  0.00  0.00    +0.277 C 
ENDBRANCH  13  16
ENDBRANCH   7  10
ENDBRANCH   1   4
BRANCH   1  18
ATOM     18  N   UNL     1       6.427  -5.496  23.735  0.00  0.00    -0.175 NA
ATOM     19  H   UNL     1       6.579  -6.466  23.474  0.00  0.00    +0.149 HD
BRANCH  18  20
ATOM     20  C   UNL     1       5.704  -5.231  25.023  0.00  0.00    +0.192 C 
BRANCH  20  21
ATOM     21  C   UNL     1       6.656  -5.123  26.223  0.00  0.00    +0.013 C 
ATOM     22  C   UNL     1       6.524  -3.805  26.990  0.00  0.00    +0.009 C 
ATOM     23  C   UNL     1       8.120  -5.268  25.788  0.00  0.00    +0.009 C 
ENDBRANCH  20  21
BRANCH  20  24
ATOM     24  P   UNL     1       4.289  -6.367  25.216  0.00  0.00    +0.346 P 
ATOM     25  O   UNL     1       2.905  -5.809  25.204  0.00  0.00    -0.257 OA
BRANCH  24  26
ATOM     26  O   UNL     1       4.593  -7.225  26.541  0.00  0.00    -0.323 OA
ATOM     27  H   UNL     1       3.747  -7.489  26.962  0.00  0.00    +0.220 HD
ENDBRANCH  24  26
BRANCH  24  28
ATOM     28  O   UNL     1       4.503  -7.517  24.111  0.00  0.00    -0.323 OA
ATOM     29  H   UNL     1       5.402  -7.892  24.083  0.00  0.00    +0.220 HD
ENDBRANCH  24  28
ENDBRANCH  20  24
ENDBRANCH  18  20
ENDBRANCH   1  18
TORSDOF 9
ENDMDL
MODEL 7
REMARK VINA RESULT:      -5.9      4.093      8.432
REMARK  Name = 
REMARK  12 active torsions:
REMARK  status: ('A' for Active; 'I' for Inactive)
REMARK    1  A    between atoms: C_2  and  N_3
REMARK    2  A    between atoms: C_2  and  C_21
REMARK    3  A    between atoms: C_2  and  P_24
REMARK    4  A    between atoms: N_3  and  S_4
REMARK    5  A    between atoms: S_4  and  C_7
REMARK    6  A    between atoms: C_10  and  C_13
REMARK    7  A    between atoms: C_16  and  O_17
REMARK    8  A    between atoms: O_17  and  C_18
REMARK    9  A    between atoms: C_21  and  C_22
REMARK   10  A    between atoms: C_21  and  C_23
REMARK   11  A    between atoms: P_24  and  O_25
REMARK   12  A    between atoms: P_24  and  O_26
REMARK                            x       y       z     vdW  Elec       q    Type
REMARK                         _______ _______ _______ _____ _____    ______ ____
ROOT
ATOM      1  S   UNL     1       9.732   2.267  22.812  0.00  0.00    +0.059 S 
ATOM      2  O   UNL     1      10.535   2.971  23.780  0.00  0.00    -0.153 OA
ATOM      3  O   UNL     1      10.292   1.769  21.585  0.00  0.00    -0.153 OA
ENDROOT
BRANCH   1   4
ATOM      4  C   UNL     1       8.912   0.962  23.692  0.00  0.00    +0.105 A 
ATOM      5  C   UNL     1       7.866   0.299  23.050  0.00  0.00    +0.029 A 
ATOM      6  C   UNL     1       7.362  -0.887  23.592  0.00  0.00    +0.010 A 
ATOM      7  C   UNL     1       7.886  -1.432  24.778  0.00  0.00    -0.018 A 
ATOM      8  C   UNL     1       8.861  -0.671  25.458  0.00  0.00    +0.010 A 
ATOM      9  C   UNL     1       9.367   0.527  24.932  0.00  0.00    +0.029 A 
BRANCH   7  10
ATOM     10  C   UNL     1       7.496  -2.789  25.243  0.00  0.00    -0.018 A 
ATOM     11  C   UNL     1       8.130  -3.391  26.350  0.00  0.00    +0.012 A 
ATOM     12  C   UNL     1       7.725  -4.635  26.857  0.00  0.00    +0.046 A 
ATOM     13  C   UNL     1       6.656  -5.308  26.277  0.00  0.00    +0.120 A 
ATOM     14  C   UNL     1       6.011  -4.733  25.184  0.00  0.00    +0.046 A 
ATOM     15  C   UNL     1       6.434  -3.503  24.665  0.00  0.00    +0.012 A 
BRANCH  13  16
ATOM     16  O   UNL     1       6.117  -6.479  26.729  0.00  0.00    -0.495 OA
ATOM     17  C   UNL     1       4.767  -6.734  26.360  0.00  0.00    +0.277 C 
ENDBRANCH  13  16
ENDBRANCH   7  10
ENDBRANCH   1   4
BRANCH   1  18
ATOM     18  N   UNL     1       8.456   3.290  22.416  0.00  0.00    -0.175 NA
ATOM     19  H   UNL     1       8.448   3.591  21.446  0.00  0.00    +0.149 HD
BRANCH  18  20
ATOM     20  C   UNL     1       7.824   4.201  23.427  0.00  0.00    +0.192 C 
BRANCH  20  21
ATOM     21  C   UNL     1       6.332   3.904  23.638  0.00  0.00    +0.013 C 
ATOM     22  C   UNL     1       6.052   3.009  24.847  0.00  0.00    +0.009 C 
ATOM     23  C   UNL     1       5.717   3.233  22.404  0.00  0.00    +0.009 C 
ENDBRANCH  20  21
BRANCH  20  24
ATOM     24  P   UNL     1       8.262   5.941  23.095  0.00  0.00    +0.346 P 
ATOM     25  O   UNL     1       7.768   7.001  24.020  0.00  0.00    -0.257 OA
BRANCH  24  26
ATOM     26  O   UNL     1       7.844   6.214  21.568  0.00  0.00    -0.323 OA
ATOM     27  H   UNL     1       7.079   6.828  21.542  0.00  0.00    +0.220 HD
ENDBRANCH  24  26
BRANCH  24  28
ATOM     28  O   UNL     1       9.863   5.960  22.930  0.00  0.00    -0.323 OA
ATOM     29  H   UNL     1      10.178   5.869  22.012  0.00  0.00    +0.220 HD
ENDBRANCH  24  28
ENDBRANCH  20  24
ENDBRANCH  18  20
ENDBRANCH   1  18
TORSDOF 9
ENDMDL
MODEL 8
REMARK VINA RESULT:      -5.9      3.964      8.488
REMARK  Name = 
REMARK  12 active torsions:
REMARK  status: ('A' for Active; 'I' for Inactive)
REMARK    1  A    between atoms: C_2  and  N_3
REMARK    2  A    between atoms: C_2  and  C_21
REMARK    3  A    between atoms: C_2  and  P_24
REMARK    4  A    between atoms: N_3  and  S_4
REMARK    5  A    between atoms: S_4  and  C_7
REMARK    6  A    between atoms: C_10  and  C_13
REMARK    7  A    between atoms: C_16  and  O_17
REMARK    8  A    between atoms: O_17  and  C_18
REMARK    9  A    between atoms: C_21  and  C_22
REMARK   10  A    between atoms: C_21  and  C_23
REMARK   11  A    between atoms: P_24  and  O_25
REMARK   12  A    between atoms: P_24  and  O_26
REMARK                            x       y       z     vdW  Elec       q    Type
REMARK                         _______ _______ _______ _____ _____    ______ ____
ROOT
ATOM      1  S   UNL     1       9.865   2.924  23.589  0.00  0.00    +0.059 S 
ATOM      2  O   UNL     1       9.378   3.290  24.896  0.00  0.00    -0.153 OA
ATOM      3  O   UNL     1      11.198   3.254  23.160  0.00  0.00    -0.153 OA
ENDROOT
BRANCH   1   4
ATOM      4  C   UNL     1       9.572   1.182  23.412  0.00  0.00    +0.105 A 
ATOM      5  C   UNL     1       9.270   0.450  24.561  0.00  0.00    +0.029 A 
ATOM      6  C   UNL     1       8.788  -0.856  24.442  0.00  0.00    +0.010 A 
ATOM      7  C   UNL     1       8.599  -1.456  23.184  0.00  0.00    -0.018 A 
ATOM      8  C   UNL     1       9.026  -0.727  22.054  0.00  0.00    +0.010 A 
ATOM      9  C   UNL     1       9.523   0.579  22.159  0.00  0.00    +0.029 A 
BRANCH   7  10
ATOM     10  C   UNL     1       7.898  -2.761  23.048  0.00  0.00    -0.018 A 
ATOM     11  C   UNL     1       8.324  -3.896  23.768  0.00  0.00    +0.012 A 
ATOM     12  C   UNL     1       7.631  -5.116  23.719  0.00  0.00    +0.046 A 
ATOM     13  C   UNL     1       6.475  -5.228  22.955  0.00  0.00    +0.120 A 
ATOM     14  C   UNL     1       6.033  -4.120  22.235  0.00  0.00    +0.046 A 
ATOM     15  C   UNL     1       6.740  -2.911  22.268  0.00  0.00    +0.012 A 
BRANCH  13  16
ATOM     16  O   UNL     1       5.670  -6.330  22.892  0.00  0.00    -0.495 OA
ATOM     17  C   UNL     1       4.281  -6.108  23.102  0.00  0.00    +0.277 C 
ENDBRANCH  13  16
ENDBRANCH   7  10
ENDBRANCH   1   4
BRANCH   1  18
ATOM     18  N   UNL     1       8.789   3.583  22.476  0.00  0.00    -0.175 NA
ATOM     19  H   UNL     1       9.224   3.906  21.617  0.00  0.00    +0.149 HD
BRANCH  18  20
ATOM     20  C   UNL     1       7.516   4.254  22.902  0.00  0.00    +0.192 C 
BRANCH  20  21
ATOM     21  C   UNL     1       6.271   3.603  22.284  0.00  0.00    +0.013 C 
ATOM     22  C   UNL     1       4.957   4.232  22.753  0.00  0.00    +0.009 C 
ATOM     23  C   UNL     1       6.211   2.103  22.596  0.00  0.00    +0.009 C 
ENDBRANCH  20  21
BRANCH  20  24
ATOM     24  P   UNL     1       7.651   6.065  22.729  0.00  0.00    +0.346 P 
ATOM     25  O   UNL     1       6.821   6.940  23.608  0.00  0.00    -0.257 OA
BRANCH  24  26
ATOM     26  O   UNL     1       7.428   6.375  21.168  0.00  0.00    -0.323 OA
ATOM     27  H   UNL     1       7.494   5.540  20.656  0.00  0.00    +0.220 HD
ENDBRANCH  24  26
BRANCH  24  28
ATOM     28  O   UNL     1       9.222   6.395  22.834  0.00  0.00    -0.323 OA
ATOM     29  H   UNL     1       9.443   7.138  23.424  0.00  0.00    +0.220 HD
ENDBRANCH  24  28
ENDBRANCH  20  24
ENDBRANCH  18  20
ENDBRANCH   1  18
TORSDOF 9
ENDMDL
MODEL 9
REMARK VINA RESULT:      -5.9      3.781      8.395
REMARK  Name = 
REMARK  12 active torsions:
REMARK  status: ('A' for Active; 'I' for Inactive)
REMARK    1  A    between atoms: C_2  and  N_3
REMARK    2  A    between atoms: C_2  and  C_21
REMARK    3  A    between atoms: C_2  and  P_24
REMARK    4  A    between atoms: N_3  and  S_4
REMARK    5  A    between atoms: S_4  and  C_7
REMARK    6  A    between atoms: C_10  and  C_13
REMARK    7  A    between atoms: C_16  and  O_17
REMARK    8  A    between atoms: O_17  and  C_18
REMARK    9  A    between atoms: C_21  and  C_22
REMARK   10  A    between atoms: C_21  and  C_23
REMARK   11  A    between atoms: P_24  and  O_25
REMARK   12  A    between atoms: P_24  and  O_26
REMARK                            x       y       z     vdW  Elec       q    Type
REMARK                         _______ _______ _______ _____ _____    ______ ____
ROOT
ATOM      1  S   UNL     1       9.666  -1.384  23.054  0.00  0.00    +0.059 S 
ATOM      2  O   UNL     1      10.119  -1.180  24.407  0.00  0.00    -0.153 OA
ATOM      3  O   UNL     1      10.591  -1.567  21.967  0.00  0.00    -0.153 OA
ENDROOT
BRANCH   1   4
ATOM      4  C   UNL     1       8.503  -2.724  23.109  0.00  0.00    +0.105 A 
ATOM      5  C   UNL     1       8.654  -3.679  24.114  0.00  0.00    +0.029 A 
ATOM      6  C   UNL     1       7.630  -4.600  24.353  0.00  0.00    +0.010 A 
ATOM      7  C   UNL     1       6.443  -4.588  23.598  0.00  0.00    -0.018 A 
ATOM      8  C   UNL     1       6.378  -3.684  22.516  0.00  0.00    +0.010 A 
ATOM      9  C   UNL     1       7.403  -2.763  22.257  0.00  0.00    +0.029 A 
BRANCH   7  10
ATOM     10  C   UNL     1       5.275  -5.426  23.982  0.00  0.00    -0.018 A 
ATOM     11  C   UNL     1       4.167  -5.569  23.122  0.00  0.00    +0.012 A 
ATOM     12  C   UNL     1       3.091  -6.417  23.425  0.00  0.00    +0.046 A 
ATOM     13  C   UNL     1       3.103  -7.163  24.598  0.00  0.00    +0.120 A 
ATOM     14  C   UNL     1       4.188  -7.041  25.463  0.00  0.00    +0.046 A 
ATOM     15  C   UNL     1       5.249  -6.175  25.169  0.00  0.00    +0.012 A 
BRANCH  13  16
ATOM     16  O   UNL     1       2.160  -8.081  24.963  0.00  0.00    -0.495 OA
ATOM     17  C   UNL     1       1.412  -8.671  23.906  0.00  0.00    +0.277 C 
ENDBRANCH  13  16
ENDBRANCH   7  10
ENDBRANCH   1   4
BRANCH   1  18
ATOM     18  N   UNL     1       8.683  -0.072  22.676  0.00  0.00    -0.175 NA
ATOM     19  H   UNL     1       8.594   0.110  21.680  0.00  0.00    +0.149 HD
BRANCH  18  20
ATOM     20  C   UNL     1       8.518   1.093  23.608  0.00  0.00    +0.192 C 
BRANCH  20  21
ATOM     21  C   UNL     1       7.061   1.568  23.707  0.00  0.00    +0.013 C 
ATOM     22  C   UNL     1       6.103   0.493  24.225  0.00  0.00    +0.009 C 
ATOM     23  C   UNL     1       6.537   2.049  22.348  0.00  0.00    +0.009 C 
ENDBRANCH  20  21
BRANCH  20  24
ATOM     24  P   UNL     1       9.765   2.380  23.263  0.00  0.00    +0.346 P 
ATOM     25  O   UNL     1       9.463   3.796  23.623  0.00  0.00    -0.257 OA
BRANCH  24  26
ATOM     26  O   UNL     1      10.153   2.209  21.712  0.00  0.00    -0.323 OA
ATOM     27  H   UNL     1       9.336   2.196  21.169  0.00  0.00    +0.220 HD
ENDBRANCH  24  26
BRANCH  24  28
ATOM     28  O   UNL     1      11.130   1.849  23.929  0.00  0.00    -0.323 OA
ATOM     29  H   UNL     1      11.916   2.391  23.732  0.00  0.00    +0.220 HD
ENDBRANCH  24  28
ENDBRANCH  20  24
ENDBRANCH  18  20
ENDBRANCH   1  18
TORSDOF 9
ENDMDL
