MODEL 1
REMARK VINA RESULT:      -2.8      0.000      0.000
REMARK  Name = 
REMARK  3 active torsions:
REMARK  status: ('A' for Active; 'I' for Inactive)
REMARK    1  A    between atoms: C_1  and  C_2
REMARK    2  A    between atoms: C_2  and  O_4
REMARK    3  A    between atoms: C_2  and  C_5
REMARK                            x       y       z     vdW  Elec       q    Type
REMARK                         _______ _______ _______ _____ _____    ______ ____
ROOT
ATOM      1  C   UNL     1       9.523   0.039  21.500  0.00  0.00    +0.038 C 
ATOM      2  C   UNL     1       9.209   1.444  21.994  0.00  0.00    +0.122 C 
ENDROOT
BRANCH   2   3
ATOM      3  C   UNL     1       9.070   1.464  23.512  0.00  0.00    +0.111 C 
ATOM      4 BR   UNL     1      10.722   0.808  24.331  0.00  0.00    -0.089 Br
ENDBRANCH   2   3
BRANCH   2   5
ATOM      5  O   UNL     1      10.281   2.293  21.581  0.00  0.00    -0.391 OA
ATOM      6  H   UNL     1      10.888   1.745  21.050  0.00  0.00    +0.210 HD
ENDBRANCH   2   5
TORSDOF 2
ENDMDL
MODEL 2
REMARK VINA RESULT:      -2.8      1.417      2.043
REMARK  Name = 
REMARK  3 active torsions:
REMARK  status: ('A' for Active; 'I' for Inactive)
REMARK    1  A    between atoms: C_1  and  C_2
REMARK    2  A    between atoms: C_2  and  O_4
REMARK    3  A    between atoms: C_2  and  C_5
REMARK                            x       y       z     vdW  Elec       q    Type
REMARK                         _______ _______ _______ _____ _____    ______ ____
ROOT
ATOM      1  C   UNL     1       7.899   1.880  21.613  0.00  0.00    +0.038 C 
ATOM      2  C   UNL     1       9.249   1.295  22.002  0.00  0.00    +0.122 C 
ENDROOT
BRANCH   2   3
ATOM      3  C   UNL     1       9.454  -0.069  21.353  0.00  0.00    +0.111 C 
ATOM      4 BR   UNL     1      10.153  -1.328  22.676  0.00  0.00    -0.089 Br
ENDBRANCH   2   3
BRANCH   2   5
ATOM      5  O   UNL     1      10.255   2.210  21.565  0.00  0.00    -0.391 OA
ATOM      6  H   UNL     1      11.090   1.938  21.987  0.00  0.00    +0.210 HD
ENDBRANCH   2   5
TORSDOF 2
ENDMDL
MODEL 3
REMARK VINA RESULT:      -2.7      2.795      2.959
REMARK  Name = 
REMARK  3 active torsions:
REMARK  status: ('A' for Active; 'I' for Inactive)
REMARK    1  A    between atoms: C_1  and  C_2
REMARK    2  A    between atoms: C_2  and  O_4
REMARK    3  A    between atoms: C_2  and  C_5
REMARK                            x       y       z     vdW  Elec       q    Type
REMARK                         _______ _______ _______ _____ _____    ______ ____
ROOT
ATOM      1  C   UNL     1       9.916  -2.372  23.727  0.00  0.00    +0.038 C 
ATOM      2  C   UNL     1       9.722  -1.214  22.758  0.00  0.00    +0.122 C 
ENDROOT
BRANCH   2   3
ATOM      3  C   UNL     1      10.398   0.048  23.283  0.00  0.00    +0.111 C 
ATOM      4 BR   UNL     1       9.901   1.573  22.163  0.00  0.00    -0.089 Br
ENDBRANCH   2   3
BRANCH   2   5
ATOM      5  O   UNL     1      10.294  -1.601  21.508  0.00  0.00    -0.391 OA
ATOM      6  H   UNL     1       9.555  -1.854  20.924  0.00  0.00    +0.210 HD
ENDBRANCH   2   5
TORSDOF 2
ENDMDL
MODEL 4
REMARK VINA RESULT:      -2.7      1.460      2.139
REMARK  Name = 
REMARK  3 active torsions:
REMARK  status: ('A' for Active; 'I' for Inactive)
REMARK    1  A    between atoms: C_1  and  C_2
REMARK    2  A    between atoms: C_2  and  O_4
REMARK    3  A    between atoms: C_2  and  C_5
REMARK                            x       y       z     vdW  Elec       q    Type
REMARK                         _______ _______ _______ _____ _____    ______ ____
ROOT
ATOM      1  C   UNL     1       9.649   1.347  23.540  0.00  0.00    +0.038 C 
ATOM      2  C   UNL     1       9.949   1.254  22.051  0.00  0.00    +0.122 C 
ENDROOT
BRANCH   2   3
ATOM      3  C   UNL     1       9.510  -0.096  21.495  0.00  0.00    +0.111 C 
ATOM      4 BR   UNL     1      10.169  -1.529  22.652  0.00  0.00    -0.089 Br
ENDBRANCH   2   3
BRANCH   2   5
ATOM      5  O   UNL     1       9.241   2.312  21.404  0.00  0.00    -0.391 OA
ATOM      6  H   UNL     1       9.603   2.386  20.502  0.00  0.00    +0.210 HD
ENDBRANCH   2   5
TORSDOF 2
ENDMDL
MODEL 5
REMARK VINA RESULT:      -2.6      2.165      2.380
REMARK  Name = 
REMARK  3 active torsions:
REMARK  status: ('A' for Active; 'I' for Inactive)
REMARK    1  A    between atoms: C_1  and  C_2
REMARK    2  A    between atoms: C_2  and  O_4
REMARK    3  A    between atoms: C_2  and  C_5
REMARK                            x       y       z     vdW  Elec       q    Type
REMARK                         _______ _______ _______ _____ _____    ______ ____
ROOT
ATOM      1  C   UNL     1       9.591   0.691  21.696  0.00  0.00    +0.038 C 
ATOM      2  C   UNL     1      10.237  -0.614  22.138  0.00  0.00    +0.122 C 
ENDROOT
BRANCH   2   3
ATOM      3  C   UNL     1       9.911  -0.911  23.598  0.00  0.00    +0.111 C 
ATOM      4 BR   UNL     1      10.585   0.535  24.729  0.00  0.00    -0.089 Br
ENDBRANCH   2   3
BRANCH   2   5
ATOM      5  O   UNL     1       9.732  -1.650  21.295  0.00  0.00    -0.391 OA
ATOM      6  H   UNL     1      10.233  -2.459  21.507  0.00  0.00    +0.210 HD
ENDBRANCH   2   5
TORSDOF 2
ENDMDL
MODEL 6
REMARK VINA RESULT:      -2.6      2.369      2.701
REMARK  Name = 
REMARK  3 active torsions:
REMARK  status: ('A' for Active; 'I' for Inactive)
REMARK    1  A    between atoms: C_1  and  C_2
REMARK    2  A    between atoms: C_2  and  O_4
REMARK    3  A    between atoms: C_2  and  C_5
REMARK                            x       y       z     vdW  Elec       q    Type
REMARK                         _______ _______ _______ _____ _____    ______ ____
ROOT
ATOM      1  C   UNL     1      10.262  -0.443  23.518  0.00  0.00    +0.038 C 
ATOM      2  C   UNL     1       9.486  -0.758  22.248  0.00  0.00    +0.122 C 
ENDROOT
BRANCH   2   3
ATOM      3  C   UNL     1       9.203   0.516  21.458  0.00  0.00    +0.111 C 
ATOM      4 BR   UNL     1      10.037   2.042  22.353  0.00  0.00    -0.089 Br
ENDBRANCH   2   3
BRANCH   2   5
ATOM      5  O   UNL     1      10.280  -1.657  21.472  0.00  0.00    -0.391 OA
ATOM      6  H   UNL     1       9.675  -2.114  20.859  0.00  0.00    +0.210 HD
ENDBRANCH   2   5
TORSDOF 2
ENDMDL
MODEL 7
REMARK VINA RESULT:      -2.6      6.533      6.872
REMARK  Name = 
REMARK  3 active torsions:
REMARK  status: ('A' for Active; 'I' for Inactive)
REMARK    1  A    between atoms: C_1  and  C_2
REMARK    2  A    between atoms: C_2  and  O_4
REMARK    3  A    between atoms: C_2  and  C_5
REMARK                            x       y       z     vdW  Elec       q    Type
REMARK                         _______ _______ _______ _____ _____    ______ ____
ROOT
ATOM      1  C   UNL     1       8.499  -4.803  26.666  0.00  0.00    +0.038 C 
ATOM      2  C   UNL     1       8.928  -5.407  25.336  0.00  0.00    +0.122 C 
ENDROOT
BRANCH   2   3
ATOM      3  C   UNL     1       8.450  -4.544  24.173  0.00  0.00    +0.111 C 
ATOM      4 BR   UNL     1       9.468  -2.874  24.133  0.00  0.00    -0.089 Br
ENDBRANCH   2   3
BRANCH   2   5
ATOM      5  O   UNL     1      10.354  -5.488  25.342  0.00  0.00    -0.391 OA
ATOM      6  H   UNL     1      10.588  -6.340  25.754  0.00  0.00    +0.210 HD
ENDBRANCH   2   5
TORSDOF 2
ENDMDL
MODEL 8
REMARK VINA RESULT:      -2.5      2.191      2.191
REMARK  Name = 
REMARK  3 active torsions:
REMARK  status: ('A' for Active; 'I' for Inactive)
REMARK    1  A    between atoms: C_1  and  C_2
REMARK    2  A    between atoms: C_2  and  O_4
REMARK    3  A    between atoms: C_2  and  C_5
REMARK                            x       y       z     vdW  Elec       q    Type
REMARK                         _______ _______ _______ _____ _____    ______ ____
ROOT
ATOM      1  C   UNL     1       9.493  -0.046  21.471  0.00  0.00    +0.038 C 
ATOM      2  C   UNL     1       9.036   1.397  21.632  0.00  0.00    +0.122 C 
ENDROOT
BRANCH   2   3
ATOM      3  C   UNL     1       8.302   1.586  22.955  0.00  0.00    +0.111 C 
ATOM      4 BR   UNL     1       6.485   2.225  22.613  0.00  0.00    -0.089 Br
ENDBRANCH   2   3
BRANCH   2   5
ATOM      5  O   UNL     1      10.201   2.222  21.587  0.00  0.00    -0.391 OA
ATOM      6  H   UNL     1      10.321   2.592  22.481  0.00  0.00    +0.210 HD
ENDBRANCH   2   5
TORSDOF 2
ENDMDL
MODEL 9
REMARK VINA RESULT:      -2.5      7.692      7.818
REMARK  Name = 
REMARK  3 active torsions:
REMARK  status: ('A' for Active; 'I' for Inactive)
REMARK    1  A    between atoms: C_1  and  C_2
REMARK    2  A    between atoms: C_2  and  O_4
REMARK    3  A    between atoms: C_2  and  C_5
REMARK                            x       y       z     vdW  Elec       q    Type
REMARK                         _______ _______ _______ _____ _____    ______ ____
ROOT
ATOM      1  C   UNL     1       9.442  -4.978  25.794  0.00  0.00    +0.038 C 
ATOM      2  C   UNL     1       8.070  -4.882  26.447  0.00  0.00    +0.122 C 
ENDROOT
BRANCH   2   3
ATOM      3  C   UNL     1       6.966  -5.103  25.420  0.00  0.00    +0.111 C 
ATOM      4 BR   UNL     1       7.713  -4.975  23.616  0.00  0.00    -0.089 Br
ENDBRANCH   2   3
BRANCH   2   5
ATOM      5  O   UNL     1       8.009  -5.882  27.465  0.00  0.00    -0.391 OA
ATOM      6  H   UNL     1       8.917  -6.001  27.802  0.00  0.00    +0.210 HD
ENDBRANCH   2   5
TORSDOF 2
ENDMDL
