MODEL 1
REMARK VINA RESULT:      -7.1      0.000      0.000
REMARK  Name = 
REMARK  9 active torsions:
REMARK  status: ('A' for Active; 'I' for Inactive)
REMARK    1  A    between atoms: C_1  and  N_2
REMARK    2  A    between atoms: N_4  and  C_5
REMARK    3  A    between atoms: C_8  and  C_10
REMARK    4  A    between atoms: C_10  and  O_11
REMARK    5  A    between atoms: O_11  and  P_12
REMARK    6  A    between atoms: P_12  and  O_13
REMARK    7  A    between atoms: P_12  and  O_14
REMARK    8  A    between atoms: C_16  and  O_18
REMARK    9  A    between atoms: C_19  and  O_21
REMARK                            x       y       z     vdW  Elec       q    Type
REMARK                         _______ _______ _______ _____ _____    ______ ____
ROOT
ATOM      1  C   UNL     1       8.933  -2.595  23.653  0.00  0.00    +0.240 C 
ATOM      2  C   UNL     1       8.567  -1.864  22.335  0.00  0.00    +0.193 C 
ATOM      3  C   UNL     1       8.140  -0.464  22.778  0.00  0.00    +0.178 C 
ATOM      4  C   UNL     1       8.364  -0.486  24.287  0.00  0.00    +0.178 C 
ATOM      5  O   UNL     1       9.323  -1.525  24.536  0.00  0.00    -0.348 OA
ENDROOT
BRANCH   1  19
ATOM      6  C   UNL     1       6.392  -5.020  27.166  0.00  0.00    +0.131 C 
ATOM      7  N   UNL     1       6.857  -4.575  25.884  0.00  0.00    -0.310 N 
ATOM      8  C   UNL     1       6.481  -5.020  24.625  0.00  0.00    +0.136 A 
ATOM      9  C   UNL     1       5.565  -6.104  24.234  0.00  0.00    +0.276 A 
ATOM     10  N   UNL     1       5.477  -6.278  22.874  0.00  0.00    -0.294 N 
ATOM     11  H   UNL     1       4.885  -7.028  22.561  0.00  0.00    +0.172 HD
ATOM     12  C   UNL     1       6.204  -5.544  21.979  0.00  0.00    +0.195 A 
ATOM     13  N   UNL     1       6.998  -4.586  22.329  0.00  0.00    -0.199 NA
ATOM     14  N   UNL     1       6.077  -5.849  20.664  0.00  0.00    -0.329 N 
ATOM     15  H   UNL     1       6.429  -5.111  20.062  0.00  0.00    +0.145 HD
ATOM     16  H   UNL     1       5.212  -6.265  20.345  0.00  0.00    +0.145 HD
ATOM     17  O   UNL     1       4.938  -6.791  25.032  0.00  0.00    -0.266 OA
ATOM     18  C   UNL     1       7.101  -4.323  23.661  0.00  0.00    +0.155 A 
ATOM     19  N   UNL     1       7.856  -3.326  24.275  0.00  0.00    -0.270 N 
ATOM     20  C   UNL     1       7.853  -3.520  25.733  0.00  0.00    +0.217 C 
ENDBRANCH   1  19
BRANCH   2  21
ATOM     21  O   UNL     1       9.733  -1.741  21.484  0.00  0.00    -0.385 OA
ATOM     22  H   UNL     1       9.500  -1.158  20.742  0.00  0.00    +0.210 HD
ENDBRANCH   2  21
BRANCH   3  23
ATOM     23  O   UNL     1       6.781  -0.185  22.447  0.00  0.00    -0.386 OA
ATOM     24  H   UNL     1       6.420  -0.970  21.998  0.00  0.00    +0.210 HD
ENDBRANCH   3  23
BRANCH   4  25
ATOM     25  C   UNL     1       8.884   0.823  24.843  0.00  0.00    +0.206 C 
BRANCH  25  26
ATOM     26  O   UNL     1       8.715   1.851  23.882  0.00  0.00    -0.284 OA
BRANCH  26  27
ATOM     27  P   UNL     1      10.037   2.617  23.407  0.00  0.00    +0.472 P 
ATOM     28  O   UNL     1      10.100   4.064  23.745  0.00  0.00    -0.228 OA
BRANCH  27  29
ATOM     29  O   UNL     1      10.114   2.307  21.845  0.00  0.00    -0.303 OA
ATOM     30  H   UNL     1       9.694   3.014  21.321  0.00  0.00    +0.222 HD
ENDBRANCH  27  29
BRANCH  27  31
ATOM     31  O   UNL     1      11.224   1.753  24.026  0.00  0.00    -0.303 OA
ATOM     32  H   UNL     1      11.765   2.283  24.641  0.00  0.00    +0.222 HD
ENDBRANCH  27  31
ENDBRANCH  26  27
ENDBRANCH  25  26
ENDBRANCH   4  25
TORSDOF 8
ENDMDL
MODEL 2
REMARK VINA RESULT:      -7.0      2.711      3.292
REMARK  Name = 
REMARK  9 active torsions:
REMARK  status: ('A' for Active; 'I' for Inactive)
REMARK    1  A    between atoms: C_1  and  N_2
REMARK    2  A    between atoms: N_4  and  C_5
REMARK    3  A    between atoms: C_8  and  C_10
REMARK    4  A    between atoms: C_10  and  O_11
REMARK    5  A    between atoms: O_11  and  P_12
REMARK    6  A    between atoms: P_12  and  O_13
REMARK    7  A    between atoms: P_12  and  O_14
REMARK    8  A    between atoms: C_16  and  O_18
REMARK    9  A    between atoms: C_19  and  O_21
REMARK                            x       y       z     vdW  Elec       q    Type
REMARK                         _______ _______ _______ _____ _____    ______ ____
ROOT
ATOM      1  C   UNL     1       7.732  -0.779  26.152  0.00  0.00    +0.240 C 
ATOM      2  C   UNL     1       9.125  -0.977  25.498  0.00  0.00    +0.193 C 
ATOM      3  C   UNL     1       8.867  -0.848  23.996  0.00  0.00    +0.178 C 
ATOM      4  C   UNL     1       7.378  -0.520  23.920  0.00  0.00    +0.178 C 
ATOM      5  O   UNL     1       7.023   0.033  25.196  0.00  0.00    -0.348 OA
ENDROOT
BRANCH   1  19
ATOM      6  C   UNL     1       4.271  -3.812  28.023  0.00  0.00    +0.131 C 
ATOM      7  N   UNL     1       5.481  -3.336  27.418  0.00  0.00    -0.310 N 
ATOM      8  C   UNL     1       6.598  -4.063  27.030  0.00  0.00    +0.136 A 
ATOM      9  C   UNL     1       6.899  -5.496  27.180  0.00  0.00    +0.276 A 
ATOM     10  N   UNL     1       8.141  -5.844  26.705  0.00  0.00    -0.294 N 
ATOM     11  H   UNL     1       8.402  -6.808  26.814  0.00  0.00    +0.172 HD
ATOM     12  C   UNL     1       9.022  -4.937  26.184  0.00  0.00    +0.195 A 
ATOM     13  N   UNL     1       8.745  -3.682  26.045  0.00  0.00    -0.199 NA
ATOM     14  N   UNL     1      10.241  -5.391  25.803  0.00  0.00    -0.329 N 
ATOM     15  H   UNL     1      10.725  -4.734  25.199  0.00  0.00    +0.145 HD
ATOM     16  H   UNL     1      10.330  -6.357  25.516  0.00  0.00    +0.145 HD
ATOM     17  O   UNL     1       6.129  -6.308  27.679  0.00  0.00    -0.266 OA
ATOM     18  C   UNL     1       7.513  -3.271  26.451  0.00  0.00    +0.155 A 
ATOM     19  N   UNL     1       6.974  -1.988  26.370  0.00  0.00    -0.270 N 
ATOM     20  C   UNL     1       5.705  -1.928  27.109  0.00  0.00    +0.217 C 
ENDBRANCH   1  19
BRANCH   2  21
ATOM     21  O   UNL     1      10.027   0.082  25.901  0.00  0.00    -0.385 OA
ATOM     22  H   UNL     1      10.129   0.035  26.866  0.00  0.00    +0.210 HD
ENDBRANCH   2  21
BRANCH   3  23
ATOM     23  O   UNL     1       9.182  -2.047  23.290  0.00  0.00    -0.386 OA
ATOM     24  H   UNL     1       8.483  -2.191  22.628  0.00  0.00    +0.210 HD
ENDBRANCH   3  23
BRANCH   4  25
ATOM     25  C   UNL     1       7.031   0.470  22.828  0.00  0.00    +0.206 C 
BRANCH  25  26
ATOM     26  O   UNL     1       8.203   0.832  22.119  0.00  0.00    -0.284 OA
BRANCH  26  27
ATOM     27  P   UNL     1       8.873   2.233  22.501  0.00  0.00    +0.472 P 
ATOM     28  O   UNL     1       9.149   2.444  23.947  0.00  0.00    -0.228 OA
BRANCH  27  29
ATOM     29  O   UNL     1       7.889   3.311  21.859  0.00  0.00    -0.303 OA
ATOM     30  H   UNL     1       8.125   3.499  20.932  0.00  0.00    +0.222 HD
ENDBRANCH  27  29
BRANCH  27  31
ATOM     31  O   UNL     1      10.170   2.303  21.576  0.00  0.00    -0.303 OA
ATOM     32  H   UNL     1      10.748   3.044  21.833  0.00  0.00    +0.222 HD
ENDBRANCH  27  31
ENDBRANCH  26  27
ENDBRANCH  25  26
ENDBRANCH   4  25
TORSDOF 8
ENDMDL
MODEL 3
REMARK VINA RESULT:      -6.9      2.066      2.954
REMARK  Name = 
REMARK  9 active torsions:
REMARK  status: ('A' for Active; 'I' for Inactive)
REMARK    1  A    between atoms: C_1  and  N_2
REMARK    2  A    between atoms: N_4  and  C_5
REMARK    3  A    between atoms: C_8  and  C_10
REMARK    4  A    between atoms: C_10  and  O_11
REMARK    5  A    between atoms: O_11  and  P_12
REMARK    6  A    between atoms: P_12  and  O_13
REMARK    7  A    between atoms: P_12  and  O_14
REMARK    8  A    between atoms: C_16  and  O_18
REMARK    9  A    between atoms: C_19  and  O_21
REMARK                            x       y       z     vdW  Elec       q    Type
REMARK                         _______ _______ _______ _____ _____    ______ ____
ROOT
ATOM      1  C   UNL     1       8.183  -5.044  26.129  0.00  0.00    +0.240 C 
ATOM      2  C   UNL     1       9.039  -4.776  24.864  0.00  0.00    +0.193 C 
ATOM      3  C   UNL     1       9.035  -3.254  24.711  0.00  0.00    +0.178 C 
ATOM      4  C   UNL     1       8.246  -2.779  25.928  0.00  0.00    +0.178 C 
ATOM      5  O   UNL     1       8.330  -3.834  26.898  0.00  0.00    -0.348 OA
ENDROOT
BRANCH   1  19
ATOM      6  C   UNL     1       3.531  -6.605  26.903  0.00  0.00    +0.131 C 
ATOM      7  N   UNL     1       4.731  -6.175  26.246  0.00  0.00    -0.310 N 
ATOM      8  C   UNL     1       4.985  -6.077  24.885  0.00  0.00    +0.136 A 
ATOM      9  C   UNL     1       4.146  -6.441  23.733  0.00  0.00    +0.276 A 
ATOM     10  N   UNL     1       4.764  -6.236  22.523  0.00  0.00    -0.294 N 
ATOM     11  H   UNL     1       4.239  -6.500  21.707  0.00  0.00    +0.172 HD
ATOM     12  C   UNL     1       6.048  -5.780  22.408  0.00  0.00    +0.195 A 
ATOM     13  N   UNL     1       6.775  -5.452  23.425  0.00  0.00    -0.199 NA
ATOM     14  N   UNL     1       6.570  -5.676  21.161  0.00  0.00    -0.329 N 
ATOM     15  H   UNL     1       7.403  -5.097  21.140  0.00  0.00    +0.145 HD
ATOM     16  H   UNL     1       5.941  -5.522  20.384  0.00  0.00    +0.145 HD
ATOM     17  O   UNL     1       3.007  -6.885  23.828  0.00  0.00    -0.266 OA
ATOM     18  C   UNL     1       6.212  -5.583  24.657  0.00  0.00    +0.155 A 
ATOM     19  N   UNL     1       6.777  -5.261  25.890  0.00  0.00    -0.270 N 
ATOM     20  C   UNL     1       5.920  -5.751  26.979  0.00  0.00    +0.217 C 
ENDBRANCH   1  19
BRANCH   2  21
ATOM     21  O   UNL     1      10.405  -5.212  25.076  0.00  0.00    -0.385 OA
ATOM     22  H   UNL     1      10.905  -4.460  25.435  0.00  0.00    +0.210 HD
ENDBRANCH   2  21
BRANCH   3  23
ATOM     23  O   UNL     1       8.428  -2.837  23.490  0.00  0.00    -0.386 OA
ATOM     24  H   UNL     1       9.132  -2.482  22.917  0.00  0.00    +0.210 HD
ENDBRANCH   3  23
BRANCH   4  25
ATOM     25  C   UNL     1       8.779  -1.497  26.532  0.00  0.00    +0.206 C 
BRANCH  25  26
ATOM     26  O   UNL     1       8.104  -0.386  25.967  0.00  0.00    -0.284 OA
BRANCH  26  27
ATOM     27  P   UNL     1       8.951   0.546  24.980  0.00  0.00    +0.472 P 
ATOM     28  O   UNL     1       8.788   0.265  23.529  0.00  0.00    -0.228 OA
BRANCH  27  29
ATOM     29  O   UNL     1      10.448   0.397  25.510  0.00  0.00    -0.303 OA
ATOM     30  H   UNL     1      11.074   0.888  24.947  0.00  0.00    +0.222 HD
ENDBRANCH  27  29
BRANCH  27  31
ATOM     31  O   UNL     1       8.542   2.027  25.405  0.00  0.00    -0.303 OA
ATOM     32  H   UNL     1       8.181   2.048  26.311  0.00  0.00    +0.222 HD
ENDBRANCH  27  31
ENDBRANCH  26  27
ENDBRANCH  25  26
ENDBRANCH   4  25
TORSDOF 8
ENDMDL
MODEL 4
REMARK VINA RESULT:      -6.8      3.308      7.402
REMARK  Name = 
REMARK  9 active torsions:
REMARK  status: ('A' for Active; 'I' for Inactive)
REMARK    1  A    between atoms: C_1  and  N_2
REMARK    2  A    between atoms: N_4  and  C_5
REMARK    3  A    between atoms: C_8  and  C_10
REMARK    4  A    between atoms: C_10  and  O_11
REMARK    5  A    between atoms: O_11  and  P_12
REMARK    6  A    between atoms: P_12  and  O_13
REMARK    7  A    between atoms: P_12  and  O_14
REMARK    8  A    between atoms: C_16  and  O_18
REMARK    9  A    between atoms: C_19  and  O_21
REMARK                            x       y       z     vdW  Elec       q    Type
REMARK                         _______ _______ _______ _____ _____    ______ ____
ROOT
ATOM      1  C   UNL     1       8.649  -4.093  24.156  0.00  0.00    +0.240 C 
ATOM      2  C   UNL     1       7.970  -4.407  25.514  0.00  0.00    +0.193 C 
ATOM      3  C   UNL     1       6.542  -4.812  25.147  0.00  0.00    +0.178 C 
ATOM      4  C   UNL     1       6.543  -4.767  23.622  0.00  0.00    +0.178 C 
ATOM      5  O   UNL     1       7.914  -4.902  23.217  0.00  0.00    -0.348 OA
ENDROOT
BRANCH   1  19
ATOM      6  C   UNL     1       9.213  -0.094  21.263  0.00  0.00    +0.131 C 
ATOM      7  N   UNL     1       9.040  -0.925  22.420  0.00  0.00    -0.310 N 
ATOM      8  C   UNL     1       8.998  -0.550  23.755  0.00  0.00    +0.136 A 
ATOM      9  C   UNL     1       9.181   0.771  24.378  0.00  0.00    +0.276 A 
ATOM     10  N   UNL     1       9.110   0.740  25.750  0.00  0.00    -0.294 N 
ATOM     11  H   UNL     1       9.260   1.616  26.221  0.00  0.00    +0.172 HD
ATOM     12  C   UNL     1       8.930  -0.412  26.463  0.00  0.00    +0.195 A 
ATOM     13  N   UNL     1       8.758  -1.567  25.908  0.00  0.00    -0.199 NA
ATOM     14  N   UNL     1       8.937  -0.324  27.816  0.00  0.00    -0.329 N 
ATOM     15  H   UNL     1       8.543  -1.149  28.257  0.00  0.00    +0.145 HD
ATOM     16  H   UNL     1       8.656   0.548  28.245  0.00  0.00    +0.145 HD
ATOM     17  O   UNL     1       9.380   1.803  23.748  0.00  0.00    -0.266 OA
ATOM     18  C   UNL     1       8.769  -1.608  24.547  0.00  0.00    +0.155 A 
ATOM     19  N   UNL     1       8.570  -2.718  23.727  0.00  0.00    -0.270 N 
ATOM     20  C   UNL     1       8.872  -2.371  22.331  0.00  0.00    +0.217 C 
ENDBRANCH   1  19
BRANCH   2  21
ATOM     21  O   UNL     1       8.617  -5.534  26.155  0.00  0.00    -0.385 OA
ATOM     22  H   UNL     1       8.903  -5.250  27.039  0.00  0.00    +0.210 HD
ENDBRANCH   2  21
BRANCH   3  23
ATOM     23  O   UNL     1       5.571  -3.927  25.703  0.00  0.00    -0.386 OA
ATOM     24  H   UNL     1       4.699  -4.351  25.609  0.00  0.00    +0.210 HD
ENDBRANCH   3  23
BRANCH   4  25
ATOM     25  C   UNL     1       5.719  -5.865  22.983  0.00  0.00    +0.206 C 
BRANCH  25  26
ATOM     26  O   UNL     1       4.449  -5.356  22.613  0.00  0.00    -0.284 OA
BRANCH  26  27
ATOM     27  P   UNL     1       3.176  -6.000  23.337  0.00  0.00    +0.472 P 
ATOM     28  O   UNL     1       1.910  -5.979  22.557  0.00  0.00    -0.228 OA
BRANCH  27  29
ATOM     29  O   UNL     1       3.098  -5.224  24.728  0.00  0.00    -0.303 OA
ATOM     30  H   UNL     1       3.541  -4.357  24.677  0.00  0.00    +0.222 HD
ENDBRANCH  27  29
BRANCH  27  31
ATOM     31  O   UNL     1       3.665  -7.462  23.743  0.00  0.00    -0.303 OA
ATOM     32  H   UNL     1       3.465  -8.109  23.042  0.00  0.00    +0.222 HD
ENDBRANCH  27  31
ENDBRANCH  26  27
ENDBRANCH  25  26
ENDBRANCH   4  25
TORSDOF 8
ENDMDL
MODEL 5
REMARK VINA RESULT:      -6.7      3.616      6.796
REMARK  Name = 
REMARK  9 active torsions:
REMARK  status: ('A' for Active; 'I' for Inactive)
REMARK    1  A    between atoms: C_1  and  N_2
REMARK    2  A    between atoms: N_4  and  C_5
REMARK    3  A    between atoms: C_8  and  C_10
REMARK    4  A    between atoms: C_10  and  O_11
REMARK    5  A    between atoms: O_11  and  P_12
REMARK    6  A    between atoms: P_12  and  O_13
REMARK    7  A    between atoms: P_12  and  O_14
REMARK    8  A    between atoms: C_16  and  O_18
REMARK    9  A    between atoms: C_19  and  O_21
REMARK                            x       y       z     vdW  Elec       q    Type
REMARK                         _______ _______ _______ _____ _____    ______ ____
ROOT
ATOM      1  C   UNL     1       9.444  -3.325  24.526  0.00  0.00    +0.240 C 
ATOM      2  C   UNL     1       9.201  -4.513  25.493  0.00  0.00    +0.193 C 
ATOM      3  C   UNL     1       7.767  -4.959  25.203  0.00  0.00    +0.178 C 
ATOM      4  C   UNL     1       7.338  -4.046  24.058  0.00  0.00    +0.178 C 
ATOM      5  O   UNL     1       8.546  -3.593  23.431  0.00  0.00    -0.348 OA
ENDROOT
BRANCH   1  19
ATOM      6  C   UNL     1       7.413   0.120  27.475  0.00  0.00    +0.131 C 
ATOM      7  N   UNL     1       8.012  -0.518  26.338  0.00  0.00    -0.310 N 
ATOM      8  C   UNL     1       8.272   0.015  25.084  0.00  0.00    +0.136 A 
ATOM      9  C   UNL     1       7.958   1.343  24.531  0.00  0.00    +0.276 A 
ATOM     10  N   UNL     1       8.339   1.491  23.220  0.00  0.00    -0.294 N 
ATOM     11  H   UNL     1       8.117   2.372  22.791  0.00  0.00    +0.172 HD
ATOM     12  C   UNL     1       8.914   0.487  22.491  0.00  0.00    +0.195 A 
ATOM     13  N   UNL     1       9.197  -0.674  22.987  0.00  0.00    -0.199 NA
ATOM     14  N   UNL     1       9.192   0.734  21.188  0.00  0.00    -0.329 N 
ATOM     15  H   UNL     1       9.840   0.057  20.797  0.00  0.00    +0.145 HD
ATOM     16  H   UNL     1       9.370   1.688  20.903  0.00  0.00    +0.145 HD
ATOM     17  O   UNL     1       7.409   2.236  25.167  0.00  0.00    -0.266 OA
ATOM     18  C   UNL     1       8.891  -0.878  24.297  0.00  0.00    +0.155 A 
ATOM     19  N   UNL     1       9.132  -2.021  25.059  0.00  0.00    -0.270 N 
ATOM     20  C   UNL     1       8.459  -1.907  26.361  0.00  0.00    +0.217 C 
ENDBRANCH   1  19
BRANCH   2  21
ATOM     21  O   UNL     1      10.094  -5.610  25.180  0.00  0.00    -0.385 OA
ATOM     22  H   UNL     1      10.865  -5.243  24.716  0.00  0.00    +0.210 HD
ENDBRANCH   2  21
BRANCH   3  23
ATOM     23  O   UNL     1       6.919  -4.817  26.341  0.00  0.00    -0.386 OA
ATOM     24  H   UNL     1       6.008  -5.016  26.057  0.00  0.00    +0.210 HD
ENDBRANCH   3  23
BRANCH   4  25
ATOM     25  C   UNL     1       6.464  -4.733  23.031  0.00  0.00    +0.206 C 
BRANCH  25  26
ATOM     26  O   UNL     1       5.938  -5.932  23.574  0.00  0.00    -0.284 OA
BRANCH  26  27
ATOM     27  P   UNL     1       4.355  -5.987  23.801  0.00  0.00    +0.472 P 
ATOM     28  O   UNL     1       3.534  -5.256  22.800  0.00  0.00    -0.228 OA
BRANCH  27  29
ATOM     29  O   UNL     1       4.169  -5.475  25.299  0.00  0.00    -0.303 OA
ATOM     30  H   UNL     1       4.846  -5.853  25.890  0.00  0.00    +0.222 HD
ENDBRANCH  27  29
BRANCH  27  31
ATOM     31  O   UNL     1       4.035  -7.546  23.888  0.00  0.00    -0.303 OA
ATOM     32  H   UNL     1       3.082  -7.719  23.780  0.00  0.00    +0.222 HD
ENDBRANCH  27  31
ENDBRANCH  26  27
ENDBRANCH  25  26
ENDBRANCH   4  25
TORSDOF 8
ENDMDL
MODEL 6
REMARK VINA RESULT:      -6.7      4.197      7.538
REMARK  Name = 
REMARK  9 active torsions:
REMARK  status: ('A' for Active; 'I' for Inactive)
REMARK    1  A    between atoms: C_1  and  N_2
REMARK    2  A    between atoms: N_4  and  C_5
REMARK    3  A    between atoms: C_8  and  C_10
REMARK    4  A    between atoms: C_10  and  O_11
REMARK    5  A    between atoms: O_11  and  P_12
REMARK    6  A    between atoms: P_12  and  O_13
REMARK    7  A    between atoms: P_12  and  O_14
REMARK    8  A    between atoms: C_16  and  O_18
REMARK    9  A    between atoms: C_19  and  O_21
REMARK                            x       y       z     vdW  Elec       q    Type
REMARK                         _______ _______ _______ _____ _____    ______ ____
ROOT
ATOM      1  C   UNL     1       8.420  -0.262  22.324  0.00  0.00    +0.240 C 
ATOM      2  C   UNL     1       9.865  -0.569  22.796  0.00  0.00    +0.193 C 
ATOM      3  C   UNL     1       9.686  -1.350  24.099  0.00  0.00    +0.178 C 
ATOM      4  C   UNL     1       8.171  -1.486  24.225  0.00  0.00    +0.178 C 
ATOM      5  O   UNL     1       7.643  -1.330  22.900  0.00  0.00    -0.348 OA
ENDROOT
BRANCH   1  19
ATOM      6  C   UNL     1       5.226   3.515  22.783  0.00  0.00    +0.131 C 
ATOM      7  N   UNL     1       6.440   2.752  22.778  0.00  0.00    -0.310 N 
ATOM      8  C   UNL     1       7.736   3.185  23.021  0.00  0.00    +0.136 A 
ATOM      9  C   UNL     1       8.252   4.539  23.282  0.00  0.00    +0.276 A 
ATOM     10  N   UNL     1       9.617   4.581  23.434  0.00  0.00    -0.294 N 
ATOM     11  H   UNL     1      10.018   5.490  23.584  0.00  0.00    +0.172 HD
ATOM     12  C   UNL     1      10.416   3.479  23.310  0.00  0.00    +0.195 A 
ATOM     13  N   UNL     1       9.954   2.291  23.091  0.00  0.00    -0.199 NA
ATOM     14  N   UNL     1      11.756   3.656  23.422  0.00  0.00    -0.329 N 
ATOM     15  H   UNL     1      12.248   2.782  23.581  0.00  0.00    +0.145 HD
ATOM     16  H   UNL     1      12.097   4.429  23.977  0.00  0.00    +0.145 HD
ATOM     17  O   UNL     1       7.546   5.538  23.358  0.00  0.00    -0.266 OA
ATOM     18  C   UNL     1       8.604   2.163  22.977  0.00  0.00    +0.155 A 
ATOM     19  N   UNL     1       7.873   0.993  22.780  0.00  0.00    -0.270 N 
ATOM     20  C   UNL     1       6.467   1.319  22.501  0.00  0.00    +0.217 C 
ENDBRANCH   1  19
BRANCH   2  21
ATOM     21  O   UNL     1      10.539  -1.422  21.839  0.00  0.00    -0.385 OA
ATOM     22  H   UNL     1      10.672  -2.290  22.256  0.00  0.00    +0.210 HD
ENDBRANCH   2  21
BRANCH   3  23
ATOM     23  O   UNL     1      10.253  -0.669  25.217  0.00  0.00    -0.386 OA
ATOM     24  H   UNL     1       9.861  -1.050  26.024  0.00  0.00    +0.210 HD
ENDBRANCH   3  23
BRANCH   4  25
ATOM     25  C   UNL     1       7.728  -2.818  24.791  0.00  0.00    +0.206 C 
BRANCH  25  26
ATOM     26  O   UNL     1       8.831  -3.475  25.389  0.00  0.00    -0.284 OA
BRANCH  26  27
ATOM     27  P   UNL     1       9.003  -5.033  25.068  0.00  0.00    +0.472 P 
ATOM     28  O   UNL     1       8.443  -5.489  23.769  0.00  0.00    -0.228 OA
BRANCH  27  29
ATOM     29  O   UNL     1       8.372  -5.754  26.342  0.00  0.00    -0.303 OA
ATOM     30  H   UNL     1       8.297  -5.142  27.097  0.00  0.00    +0.222 HD
ENDBRANCH  27  29
BRANCH  27  31
ATOM     31  O   UNL     1      10.569  -5.285  25.225  0.00  0.00    -0.303 OA
ATOM     32  H   UNL     1      11.071  -4.453  25.155  0.00  0.00    +0.222 HD
ENDBRANCH  27  31
ENDBRANCH  26  27
ENDBRANCH  25  26
ENDBRANCH   4  25
TORSDOF 8
ENDMDL
MODEL 7
REMARK VINA RESULT:      -6.6      1.877      2.055
REMARK  Name = 
REMARK  9 active torsions:
REMARK  status: ('A' for Active; 'I' for Inactive)
REMARK    1  A    between atoms: C_1  and  N_2
REMARK    2  A    between atoms: N_4  and  C_5
REMARK    3  A    between atoms: C_8  and  C_10
REMARK    4  A    between atoms: C_10  and  O_11
REMARK    5  A    between atoms: O_11  and  P_12
REMARK    6  A    between atoms: P_12  and  O_13
REMARK    7  A    between atoms: P_12  and  O_14
REMARK    8  A    between atoms: C_16  and  O_18
REMARK    9  A    between atoms: C_19  and  O_21
REMARK                            x       y       z     vdW  Elec       q    Type
REMARK                         _______ _______ _______ _____ _____    ______ ____
ROOT
ATOM      1  C   UNL     1       9.143  -1.820  23.594  0.00  0.00    +0.240 C 
ATOM      2  C   UNL     1       9.552  -1.333  22.180  0.00  0.00    +0.193 C 
ATOM      3  C   UNL     1       9.679   0.185  22.318  0.00  0.00    +0.178 C 
ATOM      4  C   UNL     1       9.405   0.429  23.799  0.00  0.00    +0.178 C 
ATOM      5  O   UNL     1       9.681  -0.810  24.468  0.00  0.00    -0.348 OA
ENDROOT
BRANCH   1  19
ATOM      6  C   UNL     1       4.815  -1.576  26.022  0.00  0.00    +0.131 C 
ATOM      7  N   UNL     1       5.826  -1.948  25.074  0.00  0.00    -0.310 N 
ATOM      8  C   UNL     1       5.757  -2.898  24.065  0.00  0.00    +0.136 A 
ATOM      9  C   UNL     1       4.680  -3.836  23.714  0.00  0.00    +0.276 A 
ATOM     10  N   UNL     1       4.999  -4.665  22.665  0.00  0.00    -0.294 N 
ATOM     11  H   UNL     1       4.304  -5.344  22.410  0.00  0.00    +0.172 HD
ATOM     12  C   UNL     1       6.216  -4.645  22.042  0.00  0.00    +0.195 A 
ATOM     13  N   UNL     1       7.154  -3.809  22.349  0.00  0.00    -0.199 NA
ATOM     14  N   UNL     1       6.434  -5.552  21.058  0.00  0.00    -0.329 N 
ATOM     15  H   UNL     1       7.233  -5.308  20.481  0.00  0.00    +0.145 HD
ATOM     16  H   UNL     1       5.641  -5.903  20.539  0.00  0.00    +0.145 HD
ATOM     17  O   UNL     1       3.600  -3.886  24.292  0.00  0.00    -0.266 OA
ATOM     18  C   UNL     1       6.892  -2.924  23.349  0.00  0.00    +0.155 A 
ATOM     19  N   UNL     1       7.722  -1.913  23.829  0.00  0.00    -0.270 N 
ATOM     20  C   UNL     1       7.146  -1.327  25.049  0.00  0.00    +0.217 C 
ENDBRANCH   1  19
BRANCH   2  21
ATOM     21  O   UNL     1      10.847  -1.870  21.815  0.00  0.00    -0.385 OA
ATOM     22  H   UNL     1      11.306  -1.202  21.278  0.00  0.00    +0.210 HD
ENDBRANCH   2  21
BRANCH   3  23
ATOM     23  O   UNL     1       8.752   0.880  21.485  0.00  0.00    -0.386 OA
ATOM     24  H   UNL     1       7.863   0.533  21.679  0.00  0.00    +0.210 HD
ENDBRANCH   3  23
BRANCH   4  25
ATOM     25  C   UNL     1      10.257   1.527  24.399  0.00  0.00    +0.206 C 
BRANCH  25  26
ATOM     26  O   UNL     1      10.395   2.588  23.470  0.00  0.00    -0.284 OA
BRANCH  26  27
ATOM     27  P   UNL     1       9.412   3.837  23.650  0.00  0.00    +0.472 P 
ATOM     28  O   UNL     1       8.737   3.942  24.971  0.00  0.00    -0.228 OA
BRANCH  27  29
ATOM     29  O   UNL     1       8.412   3.714  22.414  0.00  0.00    -0.303 OA
ATOM     30  H   UNL     1       8.890   3.503  21.590  0.00  0.00    +0.222 HD
ENDBRANCH  27  29
BRANCH  27  31
ATOM     31  O   UNL     1      10.319   5.095  23.282  0.00  0.00    -0.303 OA
ATOM     32  H   UNL     1       9.987   5.551  22.487  0.00  0.00    +0.222 HD
ENDBRANCH  27  31
ENDBRANCH  26  27
ENDBRANCH  25  26
ENDBRANCH   4  25
TORSDOF 8
ENDMDL
MODEL 8
REMARK VINA RESULT:      -6.6      3.509      6.600
REMARK  Name = 
REMARK  9 active torsions:
REMARK  status: ('A' for Active; 'I' for Inactive)
REMARK    1  A    between atoms: C_1  and  N_2
REMARK    2  A    between atoms: N_4  and  C_5
REMARK    3  A    between atoms: C_8  and  C_10
REMARK    4  A    between atoms: C_10  and  O_11
REMARK    5  A    between atoms: O_11  and  P_12
REMARK    6  A    between atoms: P_12  and  O_13
REMARK    7  A    between atoms: P_12  and  O_14
REMARK    8  A    between atoms: C_16  and  O_18
REMARK    9  A    between atoms: C_19  and  O_21
REMARK                            x       y       z     vdW  Elec       q    Type
REMARK                         _______ _______ _______ _____ _____    ______ ____
ROOT
ATOM      1  C   UNL     1       8.983  -3.123  24.258  0.00  0.00    +0.240 C 
ATOM      2  C   UNL     1       8.889  -4.379  25.163  0.00  0.00    +0.193 C 
ATOM      3  C   UNL     1       7.393  -4.686  25.241  0.00  0.00    +0.178 C 
ATOM      4  C   UNL     1       6.768  -3.636  24.327  0.00  0.00    +0.178 C 
ATOM      5  O   UNL     1       7.807  -3.214  23.431  0.00  0.00    -0.348 OA
ENDROOT
BRANCH   1  19
ATOM      6  C   UNL     1       7.780   0.259  27.693  0.00  0.00    +0.131 C 
ATOM      7  N   UNL     1       8.197  -0.338  26.457  0.00  0.00    -0.310 N 
ATOM      8  C   UNL     1       8.506   0.286  25.256  0.00  0.00    +0.136 A 
ATOM      9  C   UNL     1       8.434   1.705  24.876  0.00  0.00    +0.276 A 
ATOM     10  N   UNL     1       8.784   1.937  23.568  0.00  0.00    -0.294 N 
ATOM     11  H   UNL     1       8.721   2.890  23.254  0.00  0.00    +0.172 HD
ATOM     12  C   UNL     1       9.123   0.939  22.697  0.00  0.00    +0.195 A 
ATOM     13  N   UNL     1       9.195  -0.306  23.042  0.00  0.00    -0.199 NA
ATOM     14  N   UNL     1       9.392   1.285  21.414  0.00  0.00    -0.329 N 
ATOM     15  H   UNL     1       9.880   0.551  20.912  0.00  0.00    +0.145 HD
ATOM     16  H   UNL     1       9.740   2.216  21.227  0.00  0.00    +0.145 HD
ATOM     17  O   UNL     1       8.095   2.602  25.640  0.00  0.00    -0.266 OA
ATOM     18  C   UNL     1       8.908  -0.606  24.338  0.00  0.00    +0.155 A 
ATOM     19  N   UNL     1       8.952  -1.857  24.951  0.00  0.00    -0.270 N 
ATOM     20  C   UNL     1       8.366  -1.778  26.297  0.00  0.00    +0.217 C 
ENDBRANCH   1  19
BRANCH   2  21
ATOM     21  O   UNL     1       9.556  -5.503  24.539  0.00  0.00    -0.385 OA
ATOM     22  H   UNL     1      10.340  -5.717  25.072  0.00  0.00    +0.210 HD
ENDBRANCH   2  21
BRANCH   3  23
ATOM     23  O   UNL     1       6.893  -4.594  26.574  0.00  0.00    -0.386 OA
ATOM     24  H   UNL     1       6.311  -5.361  26.724  0.00  0.00    +0.210 HD
ENDBRANCH   3  23
BRANCH   4  25
ATOM     25  C   UNL     1       5.591  -4.152  23.527  0.00  0.00    +0.206 C 
BRANCH  25  26
ATOM     26  O   UNL     1       5.930  -4.198  22.152  0.00  0.00    -0.284 OA
BRANCH  26  27
ATOM     27  P   UNL     1       6.195  -5.645  21.523  0.00  0.00    +0.472 P 
ATOM     28  O   UNL     1       5.992  -5.757  20.054  0.00  0.00    -0.228 OA
BRANCH  27  29
ATOM     29  O   UNL     1       5.265  -6.610  22.387  0.00  0.00    -0.303 OA
ATOM     30  H   UNL     1       4.748  -6.110  23.045  0.00  0.00    +0.222 HD
ENDBRANCH  27  29
BRANCH  27  31
ATOM     31  O   UNL     1       7.671  -6.007  22.004  0.00  0.00    -0.303 OA
ATOM     32  H   UNL     1       7.689  -6.230  22.953  0.00  0.00    +0.222 HD
ENDBRANCH  27  31
ENDBRANCH  26  27
ENDBRANCH  25  26
ENDBRANCH   4  25
TORSDOF 8
ENDMDL
MODEL 9
REMARK VINA RESULT:      -6.4      2.867      4.617
REMARK  Name = 
REMARK  9 active torsions:
REMARK  status: ('A' for Active; 'I' for Inactive)
REMARK    1  A    between atoms: C_1  and  N_2
REMARK    2  A    between atoms: N_4  and  C_5
REMARK    3  A    between atoms: C_8  and  C_10
REMARK    4  A    between atoms: C_10  and  O_11
REMARK    5  A    between atoms: O_11  and  P_12
REMARK    6  A    between atoms: P_12  and  O_13
REMARK    7  A    between atoms: P_12  and  O_14
REMARK    8  A    between atoms: C_16  and  O_18
REMARK    9  A    between atoms: C_19  and  O_21
REMARK                            x       y       z     vdW  Elec       q    Type
REMARK                         _______ _______ _______ _____ _____    ______ ____
ROOT
ATOM      1  C   UNL     1       6.080  -5.864  23.413  0.00  0.00    +0.240 C 
ATOM      2  C   UNL     1       6.168  -5.198  22.015  0.00  0.00    +0.193 C 
ATOM      3  C   UNL     1       6.379  -3.713  22.308  0.00  0.00    +0.178 C 
ATOM      4  C   UNL     1       6.465  -3.661  23.831  0.00  0.00    +0.178 C 
ATOM      5  O   UNL     1       6.843  -4.979  24.256  0.00  0.00    -0.348 OA
ENDROOT
BRANCH   1  19
ATOM      6  C   UNL     1       1.272  -4.867  24.170  0.00  0.00    +0.131 C 
ATOM      7  N   UNL     1       2.616  -5.325  24.373  0.00  0.00    -0.310 N 
ATOM      8  C   UNL     1       3.172  -5.898  25.508  0.00  0.00    +0.136 A 
ATOM      9  C   UNL     1       2.586  -6.141  26.836  0.00  0.00    +0.276 A 
ATOM     10  N   UNL     1       3.471  -6.696  27.729  0.00  0.00    -0.294 N 
ATOM     11  H   UNL     1       3.123  -6.851  28.658  0.00  0.00    +0.172 HD
ATOM     12  C   UNL     1       4.777  -6.956  27.421  0.00  0.00    +0.195 A 
ATOM     13  N   UNL     1       5.282  -6.751  26.249  0.00  0.00    -0.199 NA
ATOM     14  N   UNL     1       5.569  -7.450  28.405  0.00  0.00    -0.329 N 
ATOM     15  H   UNL     1       6.426  -7.855  28.041  0.00  0.00    +0.145 HD
ATOM     16  H   UNL     1       5.142  -7.986  29.147  0.00  0.00    +0.145 HD
ATOM     17  O   UNL     1       1.426  -5.876  27.131  0.00  0.00    -0.266 OA
ATOM     18  C   UNL     1       4.451  -6.245  25.297  0.00  0.00    +0.155 A 
ATOM     19  N   UNL     1       4.750  -5.976  23.962  0.00  0.00    -0.270 N 
ATOM     20  C   UNL     1       3.639  -5.244  23.336  0.00  0.00    +0.217 C 
ENDBRANCH   1  19
BRANCH   2  21
ATOM     21  O   UNL     1       7.322  -5.693  21.292  0.00  0.00    -0.385 OA
ATOM     22  H   UNL     1       8.118  -5.348  21.731  0.00  0.00    +0.210 HD
ENDBRANCH   2  21
BRANCH   3  23
ATOM     23  O   UNL     1       5.311  -2.908  21.810  0.00  0.00    -0.386 OA
ATOM     24  H   UNL     1       5.509  -2.701  20.878  0.00  0.00    +0.210 HD
ENDBRANCH   3  23
BRANCH   4  25
ATOM     25  C   UNL     1       7.474  -2.657  24.347  0.00  0.00    +0.206 C 
BRANCH  25  26
ATOM     26  O   UNL     1       8.109  -2.013  23.256  0.00  0.00    -0.284 OA
BRANCH  26  27
ATOM     27  P   UNL     1       9.691  -1.802  23.365  0.00  0.00    +0.472 P 
ATOM     28  O   UNL     1      10.132  -0.636  24.176  0.00  0.00    -0.228 OA
BRANCH  27  29
ATOM     29  O   UNL     1      10.174  -1.763  21.846  0.00  0.00    -0.303 OA
ATOM     30  H   UNL     1       9.979  -2.601  21.389  0.00  0.00    +0.222 HD
ENDBRANCH  27  29
BRANCH  27  31
ATOM     31  O   UNL     1      10.229  -3.205  23.899  0.00  0.00    -0.303 OA
ATOM     32  H   UNL     1      10.513  -3.778  23.164  0.00  0.00    +0.222 HD
ENDBRANCH  27  31
ENDBRANCH  26  27
ENDBRANCH  25  26
ENDBRANCH   4  25
TORSDOF 8
ENDMDL
