MODEL 1
REMARK VINA RESULT:     -12.5      0.000      0.000
REMARK  Name = 
REMARK  2 active torsions:
REMARK  status: ('A' for Active; 'I' for Inactive)
REMARK    1  A    between atoms: C_11  and  C_12
REMARK    2  A    between atoms: C_17  and  C_18
REMARK                            x       y       z     vdW  Elec       q    Type
REMARK                         _______ _______ _______ _____ _____    ______ ____
ROOT
ATOM      1  C   UNL     1      13.242   5.551  22.227  0.00  0.00    +0.000 C 
ATOM      2  C   UNL     1      11.242   5.730  23.690  0.00  0.00    +0.037 C 
ATOM      3  C   UNL     1      13.242   5.551  22.227  0.00  0.00    +0.114 C 
ATOM      4  C   UNL     1      13.242   5.551  22.227  0.00  0.00    +0.056 C 
ATOM      5  O   UNL     1      13.242   5.551  22.227  0.00  0.00    -0.458 OA
ATOM      6  C   UNL     1      13.242   5.551  22.227  0.00  0.00    +0.308 C 
ATOM      7  O   UNL     1      13.242   5.551  22.227  0.00  0.00    -0.251 OA
ATOM      8  C   UNL     1      13.242   5.551  22.227  0.00  0.00    +0.121 C 
ATOM      9  C   UNL     1      13.242   5.551  22.227  0.00  0.00    +0.048 C 
ATOM     10  C   UNL     1      13.242   5.551  22.227  0.00  0.00    +0.009 C 
ATOM     11  C   UNL     1      13.242   5.551  22.227  0.00  0.00    +0.019 C 
ATOM     12  C   UNL     1      13.242   5.551  22.227  0.00  0.00    +0.006 C 
ATOM     13  C   UNL     1      13.242   5.551  22.227  0.00  0.00    +0.011 C 
ATOM     14  C   UNL     1      13.242   5.551  22.227  0.00  0.00    +0.020 C 
ATOM     15  C   UNL     1      13.242   5.551  22.227  0.00  0.00    -0.056 C 
ATOM     16  C   UNL     1      13.242   5.551  22.227  0.00  0.00    +0.051 C 
ATOM     17  C   UNL     1      13.242   5.551  22.227  0.00  0.00    +0.179 C 
ATOM     18  O   UNL     1      13.242   5.551  22.227  0.00  0.00    -0.288 OA
ATOM     19  C   UNL     1      13.242   5.551  22.227  0.00  0.00    +0.047 C 
ATOM     20  C   UNL     1      13.242   5.551  22.227  0.00  0.00    +0.032 C 
ATOM     21  C   UNL     1      13.242   5.551  22.227  0.00  0.00    -0.012 C 
ATOM     22  C   UNL     1      13.242   5.551  22.227  0.00  0.00    +0.008 C 
ENDROOT
TORSDOF 0
ENDMDL
MODEL 2
REMARK VINA RESULT:     -12.1     12.773     13.222
REMARK  Name = 
REMARK  2 active torsions:
REMARK  status: ('A' for Active; 'I' for Inactive)
REMARK    1  A    between atoms: C_11  and  C_12
REMARK    2  A    between atoms: C_17  and  C_18
REMARK                            x       y       z     vdW  Elec       q    Type
REMARK                         _______ _______ _______ _____ _____    ______ ____
ROOT
ATOM      1  C   UNL     1       6.242  -5.686  21.016  0.00  0.00    +0.000 C 
ATOM      2  C   UNL     1       7.497  -5.237  23.112  0.00  0.00    +0.037 C 
ATOM      3  C   UNL     1       6.242  -5.686  21.016  0.00  0.00    +0.114 C 
ATOM      4  C   UNL     1       6.242  -5.686  21.016  0.00  0.00    +0.056 C 
ATOM      5  O   UNL     1       6.242  -5.686  21.016  0.00  0.00    -0.458 OA
ATOM      6  C   UNL     1       6.242  -5.686  21.016  0.00  0.00    +0.308 C 
ATOM      7  O   UNL     1       6.242  -5.686  21.016  0.00  0.00    -0.251 OA
ATOM      8  C   UNL     1       6.242  -5.686  21.016  0.00  0.00    +0.121 C 
ATOM      9  C   UNL     1       6.242  -5.686  21.016  0.00  0.00    +0.048 C 
ATOM     10  C   UNL     1       6.242  -5.686  21.016  0.00  0.00    +0.009 C 
ATOM     11  C   UNL     1       6.242  -5.686  21.016  0.00  0.00    +0.019 C 
ATOM     12  C   UNL     1       6.242  -5.686  21.016  0.00  0.00    +0.006 C 
ATOM     13  C   UNL     1       6.242  -5.686  21.016  0.00  0.00    +0.011 C 
ATOM     14  C   UNL     1       6.242  -5.686  21.016  0.00  0.00    +0.020 C 
ATOM     15  C   UNL     1       6.242  -5.686  21.016  0.00  0.00    -0.056 C 
ATOM     16  C   UNL     1       6.242  -5.686  21.016  0.00  0.00    +0.051 C 
ATOM     17  C   UNL     1       6.242  -5.686  21.016  0.00  0.00    +0.179 C 
ATOM     18  O   UNL     1       6.242  -5.686  21.016  0.00  0.00    -0.288 OA
ATOM     19  C   UNL     1       6.242  -5.686  21.016  0.00  0.00    +0.047 C 
ATOM     20  C   UNL     1       6.242  -5.686  21.016  0.00  0.00    +0.032 C 
ATOM     21  C   UNL     1       6.242  -5.686  21.016  0.00  0.00    -0.012 C 
ATOM     22  C   UNL     1       6.242  -5.686  21.016  0.00  0.00    +0.008 C 
ENDROOT
TORSDOF 0
ENDMDL
MODEL 3
REMARK VINA RESULT:     -12.0      5.140      5.259
REMARK  Name = 
REMARK  2 active torsions:
REMARK  status: ('A' for Active; 'I' for Inactive)
REMARK    1  A    between atoms: C_11  and  C_12
REMARK    2  A    between atoms: C_17  and  C_18
REMARK                            x       y       z     vdW  Elec       q    Type
REMARK                         _______ _______ _______ _____ _____    ______ ____
ROOT
ATOM      1  C   UNL     1       9.950   1.582  22.019  0.00  0.00    +0.000 C 
ATOM      2  C   UNL     1       9.831  -0.898  21.918  0.00  0.00    +0.037 C 
ATOM      3  C   UNL     1       9.950   1.582  22.019  0.00  0.00    +0.114 C 
ATOM      4  C   UNL     1       9.950   1.582  22.019  0.00  0.00    +0.056 C 
ATOM      5  O   UNL     1       9.950   1.582  22.019  0.00  0.00    -0.458 OA
ATOM      6  C   UNL     1       9.950   1.582  22.019  0.00  0.00    +0.308 C 
ATOM      7  O   UNL     1       9.950   1.582  22.019  0.00  0.00    -0.251 OA
ATOM      8  C   UNL     1       9.950   1.582  22.019  0.00  0.00    +0.121 C 
ATOM      9  C   UNL     1       9.950   1.582  22.019  0.00  0.00    +0.048 C 
ATOM     10  C   UNL     1       9.950   1.582  22.019  0.00  0.00    +0.009 C 
ATOM     11  C   UNL     1       9.950   1.582  22.019  0.00  0.00    +0.019 C 
ATOM     12  C   UNL     1       9.950   1.582  22.019  0.00  0.00    +0.006 C 
ATOM     13  C   UNL     1       9.950   1.582  22.019  0.00  0.00    +0.011 C 
ATOM     14  C   UNL     1       9.950   1.582  22.019  0.00  0.00    +0.020 C 
ATOM     15  C   UNL     1       9.950   1.582  22.019  0.00  0.00    -0.056 C 
ATOM     16  C   UNL     1       9.950   1.582  22.019  0.00  0.00    +0.051 C 
ATOM     17  C   UNL     1       9.950   1.582  22.019  0.00  0.00    +0.179 C 
ATOM     18  O   UNL     1       9.950   1.582  22.019  0.00  0.00    -0.288 OA
ATOM     19  C   UNL     1       9.950   1.582  22.019  0.00  0.00    +0.047 C 
ATOM     20  C   UNL     1       9.950   1.582  22.019  0.00  0.00    +0.032 C 
ATOM     21  C   UNL     1       9.950   1.582  22.019  0.00  0.00    -0.012 C 
ATOM     22  C   UNL     1       9.950   1.582  22.019  0.00  0.00    +0.008 C 
ENDROOT
TORSDOF 0
ENDMDL
MODEL 4
REMARK VINA RESULT:     -11.9      5.511      6.000
REMARK  Name = 
REMARK  2 active torsions:
REMARK  status: ('A' for Active; 'I' for Inactive)
REMARK    1  A    between atoms: C_11  and  C_12
REMARK    2  A    between atoms: C_17  and  C_18
REMARK                            x       y       z     vdW  Elec       q    Type
REMARK                         _______ _______ _______ _____ _____    ______ ____
ROOT
ATOM      1  C   UNL     1      10.804   0.593  24.682  0.00  0.00    +0.000 C 
ATOM      2  C   UNL     1      10.060   1.132  22.375  0.00  0.00    +0.037 C 
ATOM      3  C   UNL     1      10.804   0.593  24.682  0.00  0.00    +0.114 C 
ATOM      4  C   UNL     1      10.804   0.593  24.682  0.00  0.00    +0.056 C 
ATOM      5  O   UNL     1      10.804   0.593  24.682  0.00  0.00    -0.458 OA
ATOM      6  C   UNL     1      10.804   0.593  24.682  0.00  0.00    +0.308 C 
ATOM      7  O   UNL     1      10.804   0.593  24.682  0.00  0.00    -0.251 OA
ATOM      8  C   UNL     1      10.804   0.593  24.682  0.00  0.00    +0.121 C 
ATOM      9  C   UNL     1      10.804   0.593  24.682  0.00  0.00    +0.048 C 
ATOM     10  C   UNL     1      10.804   0.593  24.682  0.00  0.00    +0.009 C 
ATOM     11  C   UNL     1      10.804   0.593  24.682  0.00  0.00    +0.019 C 
ATOM     12  C   UNL     1      10.804   0.593  24.682  0.00  0.00    +0.006 C 
ATOM     13  C   UNL     1      10.804   0.593  24.682  0.00  0.00    +0.011 C 
ATOM     14  C   UNL     1      10.804   0.593  24.682  0.00  0.00    +0.020 C 
ATOM     15  C   UNL     1      10.804   0.593  24.682  0.00  0.00    -0.056 C 
ATOM     16  C   UNL     1      10.804   0.593  24.682  0.00  0.00    +0.051 C 
ATOM     17  C   UNL     1      10.804   0.593  24.682  0.00  0.00    +0.179 C 
ATOM     18  O   UNL     1      10.804   0.593  24.682  0.00  0.00    -0.288 OA
ATOM     19  C   UNL     1      10.804   0.593  24.682  0.00  0.00    +0.047 C 
ATOM     20  C   UNL     1      10.804   0.593  24.682  0.00  0.00    +0.032 C 
ATOM     21  C   UNL     1      10.804   0.593  24.682  0.00  0.00    -0.012 C 
ATOM     22  C   UNL     1      10.804   0.593  24.682  0.00  0.00    +0.008 C 
ENDROOT
TORSDOF 0
ENDMDL
MODEL 5
REMARK VINA RESULT:     -11.9      7.391      7.614
REMARK  Name = 
REMARK  2 active torsions:
REMARK  status: ('A' for Active; 'I' for Inactive)
REMARK    1  A    between atoms: C_11  and  C_12
REMARK    2  A    between atoms: C_17  and  C_18
REMARK                            x       y       z     vdW  Elec       q    Type
REMARK                         _______ _______ _______ _____ _____    ______ ____
ROOT
ATOM      1  C   UNL     1      10.293  -1.543  22.569  0.00  0.00    +0.000 C 
ATOM      2  C   UNL     1       9.519   0.627  21.641  0.00  0.00    +0.037 C 
ATOM      3  C   UNL     1      10.293  -1.543  22.569  0.00  0.00    +0.114 C 
ATOM      4  C   UNL     1      10.293  -1.543  22.569  0.00  0.00    +0.056 C 
ATOM      5  O   UNL     1      10.293  -1.543  22.569  0.00  0.00    -0.458 OA
ATOM      6  C   UNL     1      10.293  -1.543  22.569  0.00  0.00    +0.308 C 
ATOM      7  O   UNL     1      10.293  -1.543  22.569  0.00  0.00    -0.251 OA
ATOM      8  C   UNL     1      10.293  -1.543  22.569  0.00  0.00    +0.121 C 
ATOM      9  C   UNL     1      10.293  -1.543  22.569  0.00  0.00    +0.048 C 
ATOM     10  C   UNL     1      10.293  -1.543  22.569  0.00  0.00    +0.009 C 
ATOM     11  C   UNL     1      10.293  -1.543  22.569  0.00  0.00    +0.019 C 
ATOM     12  C   UNL     1      10.293  -1.543  22.569  0.00  0.00    +0.006 C 
ATOM     13  C   UNL     1      10.293  -1.543  22.569  0.00  0.00    +0.011 C 
ATOM     14  C   UNL     1      10.293  -1.543  22.569  0.00  0.00    +0.020 C 
ATOM     15  C   UNL     1      10.293  -1.543  22.569  0.00  0.00    -0.056 C 
ATOM     16  C   UNL     1      10.293  -1.543  22.569  0.00  0.00    +0.051 C 
ATOM     17  C   UNL     1      10.293  -1.543  22.569  0.00  0.00    +0.179 C 
ATOM     18  O   UNL     1      10.293  -1.543  22.569  0.00  0.00    -0.288 OA
ATOM     19  C   UNL     1      10.293  -1.543  22.569  0.00  0.00    +0.047 C 
ATOM     20  C   UNL     1      10.293  -1.543  22.569  0.00  0.00    +0.032 C 
ATOM     21  C   UNL     1      10.293  -1.543  22.569  0.00  0.00    -0.012 C 
ATOM     22  C   UNL     1      10.293  -1.543  22.569  0.00  0.00    +0.008 C 
ENDROOT
TORSDOF 0
ENDMDL
MODEL 6
REMARK VINA RESULT:     -11.8      6.373      6.678
REMARK  Name = 
REMARK  2 active torsions:
REMARK  status: ('A' for Active; 'I' for Inactive)
REMARK    1  A    between atoms: C_11  and  C_12
REMARK    2  A    between atoms: C_17  and  C_18
REMARK                            x       y       z     vdW  Elec       q    Type
REMARK                         _______ _______ _______ _____ _____    ______ ____
ROOT
ATOM      1  C   UNL     1       9.443  -0.017  21.485  0.00  0.00    +0.000 C 
ATOM      2  C   UNL     1      10.193   2.166  22.403  0.00  0.00    +0.037 C 
ATOM      3  C   UNL     1       9.443  -0.017  21.485  0.00  0.00    +0.114 C 
ATOM      4  C   UNL     1       9.443  -0.017  21.485  0.00  0.00    +0.056 C 
ATOM      5  O   UNL     1       9.443  -0.017  21.485  0.00  0.00    -0.458 OA
ATOM      6  C   UNL     1       9.443  -0.017  21.485  0.00  0.00    +0.308 C 
ATOM      7  O   UNL     1       9.443  -0.017  21.485  0.00  0.00    -0.251 OA
ATOM      8  C   UNL     1       9.443  -0.017  21.485  0.00  0.00    +0.121 C 
ATOM      9  C   UNL     1       9.443  -0.017  21.485  0.00  0.00    +0.048 C 
ATOM     10  C   UNL     1       9.443  -0.017  21.485  0.00  0.00    +0.009 C 
ATOM     11  C   UNL     1       9.443  -0.017  21.485  0.00  0.00    +0.019 C 
ATOM     12  C   UNL     1       9.443  -0.017  21.485  0.00  0.00    +0.006 C 
ATOM     13  C   UNL     1       9.443  -0.017  21.485  0.00  0.00    +0.011 C 
ATOM     14  C   UNL     1       9.443  -0.017  21.485  0.00  0.00    +0.020 C 
ATOM     15  C   UNL     1       9.443  -0.017  21.485  0.00  0.00    -0.056 C 
ATOM     16  C   UNL     1       9.443  -0.017  21.485  0.00  0.00    +0.051 C 
ATOM     17  C   UNL     1       9.443  -0.017  21.485  0.00  0.00    +0.179 C 
ATOM     18  O   UNL     1       9.443  -0.017  21.485  0.00  0.00    -0.288 OA
ATOM     19  C   UNL     1       9.443  -0.017  21.485  0.00  0.00    +0.047 C 
ATOM     20  C   UNL     1       9.443  -0.017  21.485  0.00  0.00    +0.032 C 
ATOM     21  C   UNL     1       9.443  -0.017  21.485  0.00  0.00    -0.012 C 
ATOM     22  C   UNL     1       9.443  -0.017  21.485  0.00  0.00    +0.008 C 
ENDROOT
TORSDOF 0
ENDMDL
MODEL 7
REMARK VINA RESULT:     -11.8      8.316      8.747
REMARK  Name = 
REMARK  2 active torsions:
REMARK  status: ('A' for Active; 'I' for Inactive)
REMARK    1  A    between atoms: C_11  and  C_12
REMARK    2  A    between atoms: C_17  and  C_18
REMARK                            x       y       z     vdW  Elec       q    Type
REMARK                         _______ _______ _______ _____ _____    ______ ____
ROOT
ATOM      1  C   UNL     1       9.876  -2.454  23.783  0.00  0.00    +0.000 C 
ATOM      2  C   UNL     1       9.792  -0.844  21.894  0.00  0.00    +0.037 C 
ATOM      3  C   UNL     1       9.876  -2.454  23.783  0.00  0.00    +0.114 C 
ATOM      4  C   UNL     1       9.876  -2.454  23.783  0.00  0.00    +0.056 C 
ATOM      5  O   UNL     1       9.876  -2.454  23.783  0.00  0.00    -0.458 OA
ATOM      6  C   UNL     1       9.876  -2.454  23.783  0.00  0.00    +0.308 C 
ATOM      7  O   UNL     1       9.876  -2.454  23.783  0.00  0.00    -0.251 OA
ATOM      8  C   UNL     1       9.876  -2.454  23.783  0.00  0.00    +0.121 C 
ATOM      9  C   UNL     1       9.876  -2.454  23.783  0.00  0.00    +0.048 C 
ATOM     10  C   UNL     1       9.876  -2.454  23.783  0.00  0.00    +0.009 C 
ATOM     11  C   UNL     1       9.876  -2.454  23.783  0.00  0.00    +0.019 C 
ATOM     12  C   UNL     1       9.876  -2.454  23.783  0.00  0.00    +0.006 C 
ATOM     13  C   UNL     1       9.876  -2.454  23.783  0.00  0.00    +0.011 C 
ATOM     14  C   UNL     1       9.876  -2.454  23.783  0.00  0.00    +0.020 C 
ATOM     15  C   UNL     1       9.876  -2.454  23.783  0.00  0.00    -0.056 C 
ATOM     16  C   UNL     1       9.876  -2.454  23.783  0.00  0.00    +0.051 C 
ATOM     17  C   UNL     1       9.876  -2.454  23.783  0.00  0.00    +0.179 C 
ATOM     18  O   UNL     1       9.876  -2.454  23.783  0.00  0.00    -0.288 OA
ATOM     19  C   UNL     1       9.876  -2.454  23.783  0.00  0.00    +0.047 C 
ATOM     20  C   UNL     1       9.876  -2.454  23.783  0.00  0.00    +0.032 C 
ATOM     21  C   UNL     1       9.876  -2.454  23.783  0.00  0.00    -0.012 C 
ATOM     22  C   UNL     1       9.876  -2.454  23.783  0.00  0.00    +0.008 C 
ENDROOT
TORSDOF 0
ENDMDL
MODEL 8
REMARK VINA RESULT:     -10.9      7.629      7.943
REMARK  Name = 
REMARK  2 active torsions:
REMARK  status: ('A' for Active; 'I' for Inactive)
REMARK    1  A    between atoms: C_11  and  C_12
REMARK    2  A    between atoms: C_17  and  C_18
REMARK                            x       y       z     vdW  Elec       q    Type
REMARK                         _______ _______ _______ _____ _____    ______ ____
ROOT
ATOM      1  C   UNL     1       9.349  -1.480  21.915  0.00  0.00    +0.000 C 
ATOM      2  C   UNL     1       9.519   0.987  21.678  0.00  0.00    +0.037 C 
ATOM      3  C   UNL     1       9.349  -1.480  21.915  0.00  0.00    +0.114 C 
ATOM      4  C   UNL     1       9.349  -1.480  21.915  0.00  0.00    +0.056 C 
ATOM      5  O   UNL     1       9.349  -1.480  21.915  0.00  0.00    -0.458 OA
ATOM      6  C   UNL     1       9.349  -1.480  21.915  0.00  0.00    +0.308 C 
ATOM      7  O   UNL     1       9.349  -1.480  21.915  0.00  0.00    -0.251 OA
ATOM      8  C   UNL     1       9.349  -1.480  21.915  0.00  0.00    +0.121 C 
ATOM      9  C   UNL     1       9.349  -1.480  21.915  0.00  0.00    +0.048 C 
ATOM     10  C   UNL     1       9.349  -1.480  21.915  0.00  0.00    +0.009 C 
ATOM     11  C   UNL     1       9.349  -1.480  21.915  0.00  0.00    +0.019 C 
ATOM     12  C   UNL     1       9.349  -1.480  21.915  0.00  0.00    +0.006 C 
ATOM     13  C   UNL     1       9.349  -1.480  21.915  0.00  0.00    +0.011 C 
ATOM     14  C   UNL     1       9.349  -1.480  21.915  0.00  0.00    +0.020 C 
ATOM     15  C   UNL     1       9.349  -1.480  21.915  0.00  0.00    -0.056 C 
ATOM     16  C   UNL     1       9.349  -1.480  21.915  0.00  0.00    +0.051 C 
ATOM     17  C   UNL     1       9.349  -1.480  21.915  0.00  0.00    +0.179 C 
ATOM     18  O   UNL     1       9.349  -1.480  21.915  0.00  0.00    -0.288 OA
ATOM     19  C   UNL     1       9.349  -1.480  21.915  0.00  0.00    +0.047 C 
ATOM     20  C   UNL     1       9.349  -1.480  21.915  0.00  0.00    +0.032 C 
ATOM     21  C   UNL     1       9.349  -1.480  21.915  0.00  0.00    -0.012 C 
ATOM     22  C   UNL     1       9.349  -1.480  21.915  0.00  0.00    +0.008 C 
ENDROOT
TORSDOF 0
ENDMDL
MODEL 9
REMARK VINA RESULT:     -10.8     11.037     11.528
REMARK  Name = 
REMARK  2 active torsions:
REMARK  status: ('A' for Active; 'I' for Inactive)
REMARK    1  A    between atoms: C_11  and  C_12
REMARK    2  A    between atoms: C_17  and  C_18
REMARK                            x       y       z     vdW  Elec       q    Type
REMARK                         _______ _______ _______ _____ _____    ______ ____
ROOT
ATOM      1  C   UNL     1       9.721  -5.063  25.450  0.00  0.00    +0.000 C 
ATOM      2  C   UNL     1       9.529  -3.002  24.078  0.00  0.00    +0.037 C 
ATOM      3  C   UNL     1       9.721  -5.063  25.450  0.00  0.00    +0.114 C 
ATOM      4  C   UNL     1       9.721  -5.063  25.450  0.00  0.00    +0.056 C 
ATOM      5  O   UNL     1       9.721  -5.063  25.450  0.00  0.00    -0.458 OA
ATOM      6  C   UNL     1       9.721  -5.063  25.450  0.00  0.00    +0.308 C 
ATOM      7  O   UNL     1       9.721  -5.063  25.450  0.00  0.00    -0.251 OA
ATOM      8  C   UNL     1       9.721  -5.063  25.450  0.00  0.00    +0.121 C 
ATOM      9  C   UNL     1       9.721  -5.063  25.450  0.00  0.00    +0.048 C 
ATOM     10  C   UNL     1       9.721  -5.063  25.450  0.00  0.00    +0.009 C 
ATOM     11  C   UNL     1       9.721  -5.063  25.450  0.00  0.00    +0.019 C 
ATOM     12  C   UNL     1       9.721  -5.063  25.450  0.00  0.00    +0.006 C 
ATOM     13  C   UNL     1       9.721  -5.063  25.450  0.00  0.00    +0.011 C 
ATOM     14  C   UNL     1       9.721  -5.063  25.450  0.00  0.00    +0.020 C 
ATOM     15  C   UNL     1       9.721  -5.063  25.450  0.00  0.00    -0.056 C 
ATOM     16  C   UNL     1       9.721  -5.063  25.450  0.00  0.00    +0.051 C 
ATOM     17  C   UNL     1       9.721  -5.063  25.450  0.00  0.00    +0.179 C 
ATOM     18  O   UNL     1       9.721  -5.063  25.450  0.00  0.00    -0.288 OA
ATOM     19  C   UNL     1       9.721  -5.063  25.450  0.00  0.00    +0.047 C 
ATOM     20  C   UNL     1       9.721  -5.063  25.450  0.00  0.00    +0.032 C 
ATOM     21  C   UNL     1       9.721  -5.063  25.450  0.00  0.00    -0.012 C 
ATOM     22  C   UNL     1       9.721  -5.063  25.450  0.00  0.00    +0.008 C 
ENDROOT
TORSDOF 0
ENDMDL
