MODEL 1
REMARK VINA RESULT:      -7.8      0.000      0.000
REMARK  Name = 
REMARK  8 active torsions:
REMARK  status: ('A' for Active; 'I' for Inactive)
REMARK    1  A    between atoms: O_1  and  C_2
REMARK    2  A    between atoms: C_2  and  C_4
REMARK    3  A    between atoms: C_2  and  C_27
REMARK    4  A    between atoms: C_4  and  C_5
REMARK    5  A    between atoms: C_5  and  C_6
REMARK    6  A    between atoms: C_8  and  C_20
REMARK    7  A    between atoms: N_10  and  C_13
REMARK    8  A    between atoms: C_23  and  O_24
REMARK                            x       y       z     vdW  Elec       q    Type
REMARK                         _______ _______ _______ _____ _____    ______ ____
ROOT
ATOM      1  C   UNL     1       8.955  -2.452  25.538  0.00  0.00    +0.101 C 
ATOM      2  C   UNL     1       9.282  -3.682  24.671  0.00  0.00    +0.226 C 
ATOM      3  O   UNL     1      10.019  -4.633  24.787  0.00  0.00    -0.275 OA
ATOM      4  N   UNL     1       8.325  -3.346  23.769  0.00  0.00    -0.263 N 
ATOM      5  C   UNL     1       8.035  -2.020  24.333  0.00  0.00    +0.123 C 
ENDROOT
BRANCH   4   6
ATOM      6  C   UNL     1       7.586  -4.140  22.896  0.00  0.00    +0.037 A 
ATOM      7  C   UNL     1       7.716  -5.534  22.913  0.00  0.00    +0.026 A 
ATOM      8  C   UNL     1       7.001  -6.318  21.999  0.00  0.00    +0.040 A 
ATOM      9  C   UNL     1       6.177  -5.708  21.060  0.00  0.00    +0.124 A 
ATOM     10  F   UNL     1       5.510  -6.459  20.175  0.00  0.00    -0.205 F 
ATOM     11  C   UNL     1       6.042  -4.329  21.023  0.00  0.00    +0.040 A 
ATOM     12  C   UNL     1       6.736  -3.548  21.951  0.00  0.00    +0.026 A 
ENDBRANCH   4   6
BRANCH   5  13
ATOM     13  C   UNL     1       8.575  -0.735  23.542  0.00  0.00    -0.026 A 
ATOM     14  C   UNL     1       8.720   0.520  24.167  0.00  0.00    +0.009 A 
ATOM     15  C   UNL     1       9.335   1.603  23.520  0.00  0.00    +0.046 A 
ATOM     16  C   UNL     1       9.820   1.448  22.231  0.00  0.00    +0.117 A 
ATOM     17  C   UNL     1       9.658   0.250  21.559  0.00  0.00    +0.046 A 
ATOM     18  C   UNL     1       9.034  -0.822  22.206  0.00  0.00    +0.009 A 
BRANCH  16  19
ATOM     19  O   UNL     1      10.472   2.500  21.660  0.00  0.00    -0.507 OA
ATOM     20  H   UNL     1      11.029   2.162  20.938  0.00  0.00    +0.292 HD
ENDBRANCH  16  19
ENDBRANCH   5  13
BRANCH   1  21
ATOM     21  C   UNL     1       8.317  -2.820  26.876  0.00  0.00    +0.018 C 
BRANCH  21  22
ATOM     22  C   UNL     1       6.796  -2.947  26.688  0.00  0.00    +0.037 C 
BRANCH  22  23
ATOM     23  C   UNL     1       6.231  -4.351  26.930  0.00  0.00    +0.145 C 
BRANCH  23  24
ATOM     24  C   UNL     1       5.346  -4.841  25.803  0.00  0.00    -0.019 A 
ATOM     25  C   UNL     1       4.607  -3.945  25.012  0.00  0.00    +0.009 A 
ATOM     26  C   UNL     1       3.797  -4.411  23.978  0.00  0.00    +0.039 A 
ATOM     27  C   UNL     1       3.723  -5.775  23.728  0.00  0.00    +0.123 A 
ATOM     28  F   UNL     1       2.953  -6.221  22.728  0.00  0.00    -0.205 F 
ATOM     29  C   UNL     1       4.434  -6.682  24.503  0.00  0.00    +0.039 A 
ATOM     30  C   UNL     1       5.242  -6.218  25.542  0.00  0.00    +0.009 A 
ENDBRANCH  23  24
BRANCH  23  31
ATOM     31  O   UNL     1       7.297  -5.268  27.161  0.00  0.00    -0.387 OA
ATOM     32  H   UNL     1       7.880  -4.861  27.826  0.00  0.00    +0.210 HD
ENDBRANCH  23  31
ENDBRANCH  22  23
ENDBRANCH  21  22
ENDBRANCH   1  21
TORSDOF 8
ENDMDL
MODEL 2
REMARK VINA RESULT:      -7.1      2.824      5.563
REMARK  Name = 
REMARK  8 active torsions:
REMARK  status: ('A' for Active; 'I' for Inactive)
REMARK    1  A    between atoms: O_1  and  C_2
REMARK    2  A    between atoms: C_2  and  C_4
REMARK    3  A    between atoms: C_2  and  C_27
REMARK    4  A    between atoms: C_4  and  C_5
REMARK    5  A    between atoms: C_5  and  C_6
REMARK    6  A    between atoms: C_8  and  C_20
REMARK    7  A    between atoms: N_10  and  C_13
REMARK    8  A    between atoms: C_23  and  O_24
REMARK                            x       y       z     vdW  Elec       q    Type
REMARK                         _______ _______ _______ _____ _____    ______ ____
ROOT
ATOM      1  C   UNL     1       7.697  -4.454  23.938  0.00  0.00    +0.101 C 
ATOM      2  C   UNL     1       9.041  -3.820  24.341  0.00  0.00    +0.226 C 
ATOM      3  O   UNL     1      10.163  -4.238  24.506  0.00  0.00    -0.275 OA
ATOM      4  N   UNL     1       8.500  -2.575  24.326  0.00  0.00    -0.263 N 
ATOM      5  C   UNL     1       7.105  -3.010  24.168  0.00  0.00    +0.123 C 
ENDROOT
BRANCH   4   6
ATOM      6  C   UNL     1       9.093  -1.335  24.105  0.00  0.00    +0.037 A 
ATOM      7  C   UNL     1       9.320  -0.872  22.803  0.00  0.00    +0.026 A 
ATOM      8  C   UNL     1       9.958   0.357  22.595  0.00  0.00    +0.040 A 
ATOM      9  C   UNL     1      10.385   1.109  23.685  0.00  0.00    +0.124 A 
ATOM     10  F   UNL     1      11.012   2.274  23.482  0.00  0.00    -0.205 F 
ATOM     11  C   UNL     1      10.176   0.662  24.980  0.00  0.00    +0.040 A 
ATOM     12  C   UNL     1       9.517  -0.552  25.189  0.00  0.00    +0.026 A 
ENDBRANCH   4   6
BRANCH   5  13
ATOM     13  C   UNL     1       6.140  -2.910  25.443  0.00  0.00    -0.026 A 
ATOM     14  C   UNL     1       5.033  -2.038  25.476  0.00  0.00    +0.009 A 
ATOM     15  C   UNL     1       4.103  -2.060  26.525  0.00  0.00    +0.046 A 
ATOM     16  C   UNL     1       4.262  -2.962  27.566  0.00  0.00    +0.117 A 
ATOM     17  C   UNL     1       5.359  -3.805  27.603  0.00  0.00    +0.046 A 
ATOM     18  C   UNL     1       6.289  -3.769  26.559  0.00  0.00    +0.009 A 
BRANCH  16  19
ATOM     19  O   UNL     1       3.303  -3.003  28.533  0.00  0.00    -0.507 OA
ATOM     20  H   UNL     1       3.025  -3.927  28.654  0.00  0.00    +0.292 HD
ENDBRANCH  16  19
ENDBRANCH   5  13
BRANCH   1  21
ATOM     21  C   UNL     1       7.715  -5.040  22.527  0.00  0.00    +0.018 C 
BRANCH  21  22
ATOM     22  C   UNL     1       6.676  -6.170  22.439  0.00  0.00    +0.037 C 
BRANCH  22  23
ATOM     23  C   UNL     1       5.233  -5.704  22.216  0.00  0.00    +0.145 C 
BRANCH  23  24
ATOM     24  C   UNL     1       4.395  -5.731  23.477  0.00  0.00    -0.019 A 
ATOM     25  C   UNL     1       3.306  -4.860  23.649  0.00  0.00    +0.009 A 
ATOM     26  C   UNL     1       2.544  -4.897  24.815  0.00  0.00    +0.039 A 
ATOM     27  C   UNL     1       2.865  -5.806  25.815  0.00  0.00    +0.123 A 
ATOM     28  F   UNL     1       2.126  -5.848  26.930  0.00  0.00    -0.205 F 
ATOM     29  C   UNL     1       3.944  -6.669  25.674  0.00  0.00    +0.039 A 
ATOM     30  C   UNL     1       4.711  -6.631  24.509  0.00  0.00    +0.009 A 
ENDBRANCH  23  24
BRANCH  23  31
ATOM     31  O   UNL     1       5.231  -4.398  21.644  0.00  0.00    -0.387 OA
ATOM     32  H   UNL     1       6.015  -4.339  21.071  0.00  0.00    +0.210 HD
ENDBRANCH  23  31
ENDBRANCH  22  23
ENDBRANCH  21  22
ENDBRANCH   1  21
TORSDOF 8
ENDMDL
MODEL 3
REMARK VINA RESULT:      -7.0      3.260      5.121
REMARK  Name = 
REMARK  8 active torsions:
REMARK  status: ('A' for Active; 'I' for Inactive)
REMARK    1  A    between atoms: O_1  and  C_2
REMARK    2  A    between atoms: C_2  and  C_4
REMARK    3  A    between atoms: C_2  and  C_27
REMARK    4  A    between atoms: C_4  and  C_5
REMARK    5  A    between atoms: C_5  and  C_6
REMARK    6  A    between atoms: C_8  and  C_20
REMARK    7  A    between atoms: N_10  and  C_13
REMARK    8  A    between atoms: C_23  and  O_24
REMARK                            x       y       z     vdW  Elec       q    Type
REMARK                         _______ _______ _______ _____ _____    ______ ____
ROOT
ATOM      1  C   UNL     1       7.520  -1.080  26.140  0.00  0.00    +0.101 C 
ATOM      2  C   UNL     1       7.896  -2.554  25.904  0.00  0.00    +0.226 C 
ATOM      3  O   UNL     1       8.322  -3.446  26.601  0.00  0.00    -0.275 OA
ATOM      4  N   UNL     1       7.446  -2.502  24.624  0.00  0.00    -0.263 N 
ATOM      5  C   UNL     1       7.239  -1.047  24.589  0.00  0.00    +0.123 C 
ENDROOT
BRANCH   4   6
ATOM      6  C   UNL     1       6.952  -3.508  23.798  0.00  0.00    +0.037 A 
ATOM      7  C   UNL     1       7.821  -4.403  23.161  0.00  0.00    +0.026 A 
ATOM      8  C   UNL     1       7.314  -5.381  22.298  0.00  0.00    +0.040 A 
ATOM      9  C   UNL     1       5.946  -5.450  22.056  0.00  0.00    +0.124 A 
ATOM     10  F   UNL     1       5.467  -6.374  21.214  0.00  0.00    -0.205 F 
ATOM     11  C   UNL     1       5.072  -4.567  22.671  0.00  0.00    +0.040 A 
ATOM     12  C   UNL     1       5.574  -3.607  23.552  0.00  0.00    +0.026 A 
ENDBRANCH   4   6
BRANCH   5  13
ATOM     13  C   UNL     1       8.289  -0.161  23.765  0.00  0.00    -0.026 A 
ATOM     14  C   UNL     1       8.090   0.164  22.408  0.00  0.00    +0.009 A 
ATOM     15  C   UNL     1       8.928   1.063  21.731  0.00  0.00    +0.046 A 
ATOM     16  C   UNL     1       9.984   1.659  22.404  0.00  0.00    +0.117 A 
ATOM     17  C   UNL     1      10.248   1.335  23.723  0.00  0.00    +0.046 A 
ATOM     18  C   UNL     1       9.415   0.428  24.388  0.00  0.00    +0.009 A 
BRANCH  16  19
ATOM     19  O   UNL     1      10.734   2.579  21.736  0.00  0.00    -0.507 OA
ATOM     20  H   UNL     1      10.826   2.290  20.812  0.00  0.00    +0.292 HD
ENDBRANCH  16  19
ENDBRANCH   5  13
BRANCH   1  21
ATOM     21  C   UNL     1       6.359  -0.911  27.117  0.00  0.00    +0.018 C 
BRANCH  21  22
ATOM     22  C   UNL     1       6.275   0.563  27.548  0.00  0.00    +0.037 C 
BRANCH  22  23
ATOM     23  C   UNL     1       5.376   1.442  26.672  0.00  0.00    +0.145 C 
BRANCH  23  24
ATOM     24  C   UNL     1       6.151   2.319  25.711  0.00  0.00    -0.019 A 
ATOM     25  C   UNL     1       5.744   2.477  24.376  0.00  0.00    +0.009 A 
ATOM     26  C   UNL     1       6.468   3.288  23.503  0.00  0.00    +0.039 A 
ATOM     27  C   UNL     1       7.601   3.947  23.962  0.00  0.00    +0.123 A 
ATOM     28  F   UNL     1       8.290   4.734  23.126  0.00  0.00    -0.205 F 
ATOM     29  C   UNL     1       8.031   3.798  25.274  0.00  0.00    +0.039 A 
ATOM     30  C   UNL     1       7.310   2.983  26.148  0.00  0.00    +0.009 A 
ENDBRANCH  23  24
BRANCH  23  31
ATOM     31  O   UNL     1       4.447   0.626  25.963  0.00  0.00    -0.387 OA
ATOM     32  H   UNL     1       4.048   0.021  26.613  0.00  0.00    +0.210 HD
ENDBRANCH  23  31
ENDBRANCH  22  23
ENDBRANCH  21  22
ENDBRANCH   1  21
TORSDOF 8
ENDMDL
MODEL 4
REMARK VINA RESULT:      -6.9      2.806      5.242
REMARK  Name = 
REMARK  8 active torsions:
REMARK  status: ('A' for Active; 'I' for Inactive)
REMARK    1  A    between atoms: O_1  and  C_2
REMARK    2  A    between atoms: C_2  and  C_4
REMARK    3  A    between atoms: C_2  and  C_27
REMARK    4  A    between atoms: C_4  and  C_5
REMARK    5  A    between atoms: C_5  and  C_6
REMARK    6  A    between atoms: C_8  and  C_20
REMARK    7  A    between atoms: N_10  and  C_13
REMARK    8  A    between atoms: C_23  and  O_24
REMARK                            x       y       z     vdW  Elec       q    Type
REMARK                         _______ _______ _______ _____ _____    ______ ____
ROOT
ATOM      1  C   UNL     1       6.030  -1.880  25.411  0.00  0.00    +0.101 C 
ATOM      2  C   UNL     1       6.031  -0.498  24.732  0.00  0.00    +0.226 C 
ATOM      3  O   UNL     1       5.310   0.472  24.775  0.00  0.00    -0.275 OA
ATOM      4  N   UNL     1       7.233  -0.744  24.150  0.00  0.00    -0.263 N 
ATOM      5  C   UNL     1       7.298  -2.165  24.518  0.00  0.00    +0.123 C 
ENDROOT
BRANCH   4   6
ATOM      6  C   UNL     1       8.233   0.132  23.735  0.00  0.00    +0.037 A 
ATOM      7  C   UNL     1       8.940   0.903  24.665  0.00  0.00    +0.026 A 
ATOM      8  C   UNL     1       9.912   1.812  24.230  0.00  0.00    +0.040 A 
ATOM      9  C   UNL     1      10.159   1.964  22.870  0.00  0.00    +0.124 A 
ATOM     10  F   UNL     1      11.075   2.849  22.457  0.00  0.00    -0.205 F 
ATOM     11  C   UNL     1       9.461   1.215  21.934  0.00  0.00    +0.040 A 
ATOM     12  C   UNL     1       8.510   0.290  22.369  0.00  0.00    +0.026 A 
ENDBRANCH   4   6
BRANCH   5  13
ATOM     13  C   UNL     1       7.041  -3.250  23.367  0.00  0.00    -0.026 A 
ATOM     14  C   UNL     1       7.640  -4.526  23.396  0.00  0.00    +0.009 A 
ATOM     15  C   UNL     1       7.297  -5.526  22.474  0.00  0.00    +0.046 A 
ATOM     16  C   UNL     1       6.340  -5.268  21.503  0.00  0.00    +0.117 A 
ATOM     17  C   UNL     1       5.759  -4.016  21.405  0.00  0.00    +0.046 A 
ATOM     18  C   UNL     1       6.116  -3.019  22.321  0.00  0.00    +0.009 A 
BRANCH  16  19
ATOM     19  O   UNL     1       5.982  -6.283  20.669  0.00  0.00    -0.507 OA
ATOM     20  H   UNL     1       5.057  -6.520  20.850  0.00  0.00    +0.292 HD
ENDBRANCH  16  19
ENDBRANCH   5  13
BRANCH   1  21
ATOM     21  C   UNL     1       6.184  -1.798  26.928  0.00  0.00    +0.018 C 
BRANCH  21  22
ATOM     22  C   UNL     1       5.098  -2.662  27.591  0.00  0.00    +0.037 C 
BRANCH  22  23
ATOM     23  C   UNL     1       5.343  -4.173  27.519  0.00  0.00    +0.145 C 
BRANCH  23  24
ATOM     24  C   UNL     1       4.789  -4.809  26.261  0.00  0.00    -0.019 A 
ATOM     25  C   UNL     1       5.239  -6.065  25.818  0.00  0.00    +0.009 A 
ATOM     26  C   UNL     1       4.720  -6.637  24.659  0.00  0.00    +0.039 A 
ATOM     27  C   UNL     1       3.747  -5.958  23.937  0.00  0.00    +0.123 A 
ATOM     28  F   UNL     1       3.241  -6.514  22.828  0.00  0.00    -0.205 F 
ATOM     29  C   UNL     1       3.294  -4.711  24.346  0.00  0.00    +0.039 A 
ATOM     30  C   UNL     1       3.816  -4.134  25.505  0.00  0.00    +0.009 A 
ENDBRANCH  23  24
BRANCH  23  31
ATOM     31  O   UNL     1       6.737  -4.443  27.642  0.00  0.00    -0.387 OA
ATOM     32  H   UNL     1       7.204  -3.747  27.145  0.00  0.00    +0.210 HD
ENDBRANCH  23  31
ENDBRANCH  22  23
ENDBRANCH  21  22
ENDBRANCH   1  21
TORSDOF 8
ENDMDL
MODEL 5
REMARK VINA RESULT:      -6.7      3.540      6.413
REMARK  Name = 
REMARK  8 active torsions:
REMARK  status: ('A' for Active; 'I' for Inactive)
REMARK    1  A    between atoms: O_1  and  C_2
REMARK    2  A    between atoms: C_2  and  C_4
REMARK    3  A    between atoms: C_2  and  C_27
REMARK    4  A    between atoms: C_4  and  C_5
REMARK    5  A    between atoms: C_5  and  C_6
REMARK    6  A    between atoms: C_8  and  C_20
REMARK    7  A    between atoms: N_10  and  C_13
REMARK    8  A    between atoms: C_23  and  O_24
REMARK                            x       y       z     vdW  Elec       q    Type
REMARK                         _______ _______ _______ _____ _____    ______ ____
ROOT
ATOM      1  C   UNL     1       6.472  -1.819  23.280  0.00  0.00    +0.101 C 
ATOM      2  C   UNL     1       5.470  -2.776  23.952  0.00  0.00    +0.226 C 
ATOM      3  O   UNL     1       4.543  -3.448  23.563  0.00  0.00    -0.275 OA
ATOM      4  N   UNL     1       6.110  -2.668  25.144  0.00  0.00    -0.263 N 
ATOM      5  C   UNL     1       7.008  -1.576  24.743  0.00  0.00    +0.123 C 
ENDROOT
BRANCH   4   6
ATOM      6  C   UNL     1       6.186  -3.557  26.213  0.00  0.00    +0.037 A 
ATOM      7  C   UNL     1       7.171  -4.550  26.250  0.00  0.00    +0.026 A 
ATOM      8  C   UNL     1       7.208  -5.465  27.309  0.00  0.00    +0.040 A 
ATOM      9  C   UNL     1       6.250  -5.399  28.315  0.00  0.00    +0.124 A 
ATOM     10  F   UNL     1       6.276  -6.288  29.316  0.00  0.00    -0.205 F 
ATOM     11  C   UNL     1       5.261  -4.427  28.291  0.00  0.00    +0.040 A 
ATOM     12  C   UNL     1       5.240  -3.499  27.247  0.00  0.00    +0.026 A 
ENDBRANCH   4   6
BRANCH   5  13
ATOM     13  C   UNL     1       6.697  -0.107  25.303  0.00  0.00    -0.026 A 
ATOM     14  C   UNL     1       7.216   0.350  26.531  0.00  0.00    +0.009 A 
ATOM     15  C   UNL     1       7.072   1.682  26.947  0.00  0.00    +0.046 A 
ATOM     16  C   UNL     1       6.405   2.587  26.136  0.00  0.00    +0.117 A 
ATOM     17  C   UNL     1       5.836   2.175  24.944  0.00  0.00    +0.046 A 
ATOM     18  C   UNL     1       5.974   0.842  24.541  0.00  0.00    +0.009 A 
BRANCH  16  19
ATOM     19  O   UNL     1       6.343   3.887  26.540  0.00  0.00    -0.507 OA
ATOM     20  H   UNL     1       6.999   4.398  26.036  0.00  0.00    +0.292 HD
ENDBRANCH  16  19
ENDBRANCH   5  13
BRANCH   1  21
ATOM     21  C   UNL     1       7.368  -2.517  22.259  0.00  0.00    +0.018 C 
BRANCH  21  22
ATOM     22  C   UNL     1       8.838  -2.329  22.670  0.00  0.00    +0.037 C 
BRANCH  22  23
ATOM     23  C   UNL     1       9.583  -1.224  21.914  0.00  0.00    +0.145 C 
BRANCH  23  24
ATOM     24  C   UNL     1       9.508   0.124  22.600  0.00  0.00    -0.019 A 
ATOM     25  C   UNL     1       8.845   1.211  22.005  0.00  0.00    +0.009 A 
ATOM     26  C   UNL     1       8.783   2.445  22.649  0.00  0.00    +0.039 A 
ATOM     27  C   UNL     1       9.382   2.599  23.893  0.00  0.00    +0.123 A 
ATOM     28  F   UNL     1       9.314   3.783  24.516  0.00  0.00    -0.205 F 
ATOM     29  C   UNL     1      10.053   1.544  24.497  0.00  0.00    +0.039 A 
ATOM     30  C   UNL     1      10.120   0.309  23.852  0.00  0.00    +0.009 A 
ENDBRANCH  23  24
BRANCH  23  31
ATOM     31  O   UNL     1      10.942  -1.606  21.714  0.00  0.00    -0.387 OA
ATOM     32  H   UNL     1      10.938  -2.340  21.075  0.00  0.00    +0.210 HD
ENDBRANCH  23  31
ENDBRANCH  22  23
ENDBRANCH  21  22
ENDBRANCH   1  21
TORSDOF 8
ENDMDL
MODEL 6
REMARK VINA RESULT:      -6.6      3.880      6.606
REMARK  Name = 
REMARK  8 active torsions:
REMARK  status: ('A' for Active; 'I' for Inactive)
REMARK    1  A    between atoms: O_1  and  C_2
REMARK    2  A    between atoms: C_2  and  C_4
REMARK    3  A    between atoms: C_2  and  C_27
REMARK    4  A    between atoms: C_4  and  C_5
REMARK    5  A    between atoms: C_5  and  C_6
REMARK    6  A    between atoms: C_8  and  C_20
REMARK    7  A    between atoms: N_10  and  C_13
REMARK    8  A    between atoms: C_23  and  O_24
REMARK                            x       y       z     vdW  Elec       q    Type
REMARK                         _______ _______ _______ _____ _____    ______ ____
ROOT
ATOM      1  C   UNL     1       8.674   2.306  22.173  0.00  0.00    +0.101 C 
ATOM      2  C   UNL     1       7.395   2.556  22.994  0.00  0.00    +0.226 C 
ATOM      3  O   UNL     1       6.222   2.673  22.727  0.00  0.00    -0.275 OA
ATOM      4  N   UNL     1       8.085   2.476  24.160  0.00  0.00    -0.263 N 
ATOM      5  C   UNL     1       9.423   2.457  23.552  0.00  0.00    +0.123 C 
ENDROOT
BRANCH   4   6
ATOM      6  C   UNL     1       7.664   2.109  25.436  0.00  0.00    +0.037 A 
ATOM      7  C   UNL     1       7.285   3.079  26.371  0.00  0.00    +0.026 A 
ATOM      8  C   UNL     1       6.907   2.699  27.664  0.00  0.00    +0.040 A 
ATOM      9  C   UNL     1       6.929   1.356  28.026  0.00  0.00    +0.124 A 
ATOM     10  F   UNL     1       6.586   0.998  29.269  0.00  0.00    -0.205 F 
ATOM     11  C   UNL     1       7.309   0.383  27.115  0.00  0.00    +0.040 A 
ATOM     12  C   UNL     1       7.662   0.759  25.817  0.00  0.00    +0.026 A 
ENDBRANCH   4   6
BRANCH   5  13
ATOM     13  C   UNL     1      10.312   3.786  23.655  0.00  0.00    -0.026 A 
ATOM     14  C   UNL     1       9.819   4.971  24.236  0.00  0.00    +0.009 A 
ATOM     15  C   UNL     1      10.644   6.083  24.465  0.00  0.00    +0.046 A 
ATOM     16  C   UNL     1      11.985   6.027  24.117  0.00  0.00    +0.117 A 
ATOM     17  C   UNL     1      12.505   4.903  23.500  0.00  0.00    +0.046 A 
ATOM     18  C   UNL     1      11.673   3.802  23.265  0.00  0.00    +0.009 A 
BRANCH  16  19
ATOM     19  O   UNL     1      12.771   7.099  24.417  0.00  0.00    -0.507 OA
ATOM     20  H   UNL     1      13.285   7.335  23.626  0.00  0.00    +0.292 HD
ENDBRANCH  16  19
ENDBRANCH   5  13
BRANCH   1  21
ATOM     21  C   UNL     1       8.670   0.952  21.465  0.00  0.00    +0.018 C 
BRANCH  21  22
ATOM     22  C   UNL     1       8.828  -0.163  22.513  0.00  0.00    +0.037 C 
BRANCH  22  23
ATOM     23  C   UNL     1       7.775  -1.274  22.436  0.00  0.00    +0.145 C 
BRANCH  23  24
ATOM     24  C   UNL     1       8.157  -2.514  23.219  0.00  0.00    -0.019 A 
ATOM     25  C   UNL     1       9.150  -2.473  24.212  0.00  0.00    +0.009 A 
ATOM     26  C   UNL     1       9.490  -3.621  24.924  0.00  0.00    +0.039 A 
ATOM     27  C   UNL     1       8.838  -4.816  24.649  0.00  0.00    +0.123 A 
ATOM     28  F   UNL     1       9.158  -5.917  25.341  0.00  0.00    -0.205 F 
ATOM     29  C   UNL     1       7.861  -4.885  23.665  0.00  0.00    +0.039 A 
ATOM     30  C   UNL     1       7.521  -3.738  22.947  0.00  0.00    +0.009 A 
ENDBRANCH  23  24
BRANCH  23  31
ATOM     31  O   UNL     1       6.514  -0.776  22.875  0.00  0.00    -0.387 OA
ATOM     32  H   UNL     1       5.981  -0.613  22.077  0.00  0.00    +0.210 HD
ENDBRANCH  23  31
ENDBRANCH  22  23
ENDBRANCH  21  22
ENDBRANCH   1  21
TORSDOF 8
ENDMDL
MODEL 7
REMARK VINA RESULT:      -6.6      4.177      7.691
REMARK  Name = 
REMARK  8 active torsions:
REMARK  status: ('A' for Active; 'I' for Inactive)
REMARK    1  A    between atoms: O_1  and  C_2
REMARK    2  A    between atoms: C_2  and  C_4
REMARK    3  A    between atoms: C_2  and  C_27
REMARK    4  A    between atoms: C_4  and  C_5
REMARK    5  A    between atoms: C_5  and  C_6
REMARK    6  A    between atoms: C_8  and  C_20
REMARK    7  A    between atoms: N_10  and  C_13
REMARK    8  A    between atoms: C_23  and  O_24
REMARK                            x       y       z     vdW  Elec       q    Type
REMARK                         _______ _______ _______ _____ _____    ______ ____
ROOT
ATOM      1  C   UNL     1       8.428   2.876  24.835  0.00  0.00    +0.101 C 
ATOM      2  C   UNL     1       7.349   3.846  25.351  0.00  0.00    +0.226 C 
ATOM      3  O   UNL     1       7.361   4.860  26.010  0.00  0.00    -0.275 OA
ATOM      4  N   UNL     1       6.377   3.183  24.675  0.00  0.00    -0.263 N 
ATOM      5  C   UNL     1       7.213   2.041  24.276  0.00  0.00    +0.123 C 
ENDROOT
BRANCH   4   6
ATOM      6  C   UNL     1       5.156   3.630  24.177  0.00  0.00    +0.037 A 
ATOM      7  C   UNL     1       3.957   3.029  24.576  0.00  0.00    +0.026 A 
ATOM      8  C   UNL     1       2.740   3.458  24.033  0.00  0.00    +0.040 A 
ATOM      9  C   UNL     1       2.726   4.470  23.079  0.00  0.00    +0.124 A 
ATOM     10  F   UNL     1       1.563   4.865  22.548  0.00  0.00    -0.205 F 
ATOM     11  C   UNL     1       3.905   5.071  22.666  0.00  0.00    +0.040 A 
ATOM     12  C   UNL     1       5.117   4.660  23.226  0.00  0.00    +0.026 A 
ENDBRANCH   4   6
BRANCH   5  13
ATOM     13  C   UNL     1       6.990   0.647  25.035  0.00  0.00    -0.026 A 
ATOM     14  C   UNL     1       6.186  -0.377  24.496  0.00  0.00    +0.009 A 
ATOM     15  C   UNL     1       6.114  -1.649  25.083  0.00  0.00    +0.046 A 
ATOM     16  C   UNL     1       6.852  -1.922  26.225  0.00  0.00    +0.117 A 
ATOM     17  C   UNL     1       7.618  -0.934  26.819  0.00  0.00    +0.046 A 
ATOM     18  C   UNL     1       7.675   0.336  26.234  0.00  0.00    +0.009 A 
BRANCH  16  19
ATOM     19  O   UNL     1       6.811  -3.187  26.728  0.00  0.00    -0.507 OA
ATOM     20  H   UNL     1       6.764  -3.813  25.986  0.00  0.00    +0.292 HD
ENDBRANCH  16  19
ENDBRANCH   5  13
BRANCH   1  21
ATOM     21  C   UNL     1       9.399   3.534  23.856  0.00  0.00    +0.018 C 
BRANCH  21  22
ATOM     22  C   UNL     1      10.542   2.552  23.546  0.00  0.00    +0.037 C 
BRANCH  22  23
ATOM     23  C   UNL     1      10.333   1.694  22.293  0.00  0.00    +0.145 C 
BRANCH  23  24
ATOM     24  C   UNL     1       9.906   0.275  22.606  0.00  0.00    -0.019 A 
ATOM     25  C   UNL     1       9.064  -0.442  21.739  0.00  0.00    +0.009 A 
ATOM     26  C   UNL     1       8.679  -1.747  22.039  0.00  0.00    +0.039 A 
ATOM     27  C   UNL     1       9.137  -2.344  23.207  0.00  0.00    +0.123 A 
ATOM     28  F   UNL     1       8.775  -3.602  23.490  0.00  0.00    -0.205 F 
ATOM     29  C   UNL     1       9.960  -1.653  24.086  0.00  0.00    +0.039 A 
ATOM     30  C   UNL     1      10.343  -0.344  23.789  0.00  0.00    +0.009 A 
ENDBRANCH  23  24
BRANCH  23  31
ATOM     31  O   UNL     1       9.387   2.321  21.431  0.00  0.00    -0.387 OA
ATOM     32  H   UNL     1       8.607   2.532  21.973  0.00  0.00    +0.210 HD
ENDBRANCH  23  31
ENDBRANCH  22  23
ENDBRANCH  21  22
ENDBRANCH   1  21
TORSDOF 8
ENDMDL
MODEL 8
REMARK VINA RESULT:      -6.5      2.773      5.236
REMARK  Name = 
REMARK  8 active torsions:
REMARK  status: ('A' for Active; 'I' for Inactive)
REMARK    1  A    between atoms: O_1  and  C_2
REMARK    2  A    between atoms: C_2  and  C_4
REMARK    3  A    between atoms: C_2  and  C_27
REMARK    4  A    between atoms: C_4  and  C_5
REMARK    5  A    between atoms: C_5  and  C_6
REMARK    6  A    between atoms: C_8  and  C_20
REMARK    7  A    between atoms: N_10  and  C_13
REMARK    8  A    between atoms: C_23  and  O_24
REMARK                            x       y       z     vdW  Elec       q    Type
REMARK                         _______ _______ _______ _____ _____    ______ ____
ROOT
ATOM      1  C   UNL     1       6.381  -2.048  26.502  0.00  0.00    +0.101 C 
ATOM      2  C   UNL     1       5.973  -3.527  26.635  0.00  0.00    +0.226 C 
ATOM      3  O   UNL     1       5.919  -4.316  27.550  0.00  0.00    -0.275 OA
ATOM      4  N   UNL     1       5.580  -3.574  25.337  0.00  0.00    -0.263 N 
ATOM      5  C   UNL     1       6.118  -2.258  24.962  0.00  0.00    +0.123 C 
ENDROOT
BRANCH   4   6
ATOM      6  C   UNL     1       4.637  -4.380  24.706  0.00  0.00    +0.037 A 
ATOM      7  C   UNL     1       5.036  -5.429  23.870  0.00  0.00    +0.026 A 
ATOM      8  C   UNL     1       4.077  -6.204  23.206  0.00  0.00    +0.040 A 
ATOM      9  C   UNL     1       2.726  -5.916  23.362  0.00  0.00    +0.124 A 
ATOM     10  F   UNL     1       1.812  -6.646  22.711  0.00  0.00    -0.205 F 
ATOM     11  C   UNL     1       2.312  -4.876  24.180  0.00  0.00    +0.040 A 
ATOM     12  C   UNL     1       3.268  -4.119  24.861  0.00  0.00    +0.026 A 
ENDBRANCH   4   6
BRANCH   5  13
ATOM     13  C   UNL     1       7.451  -2.219  24.073  0.00  0.00    -0.026 A 
ATOM     14  C   UNL     1       7.428  -1.881  22.706  0.00  0.00    +0.009 A 
ATOM     15  C   UNL     1       8.607  -1.698  21.967  0.00  0.00    +0.046 A 
ATOM     16  C   UNL     1       9.838  -1.847  22.589  0.00  0.00    +0.117 A 
ATOM     17  C   UNL     1       9.912  -2.225  23.918  0.00  0.00    +0.046 A 
ATOM     18  C   UNL     1       8.731  -2.418  24.644  0.00  0.00    +0.009 A 
BRANCH  16  19
ATOM     19  O   UNL     1      10.960  -1.594  21.859  0.00  0.00    -0.507 OA
ATOM     20  H   UNL     1      11.421  -2.435  21.700  0.00  0.00    +0.292 HD
ENDBRANCH  16  19
ENDBRANCH   5  13
BRANCH   1  21
ATOM     21  C   UNL     1       5.475  -1.109  27.296  0.00  0.00    +0.018 C 
BRANCH  21  22
ATOM     22  C   UNL     1       5.739   0.339  26.851  0.00  0.00    +0.037 C 
BRANCH  22  23
ATOM     23  C   UNL     1       7.220   0.712  26.713  0.00  0.00    +0.145 C 
BRANCH  23  24
ATOM     24  C   UNL     1       7.603   1.125  25.307  0.00  0.00    -0.019 A 
ATOM     25  C   UNL     1       6.627   1.391  24.332  0.00  0.00    +0.009 A 
ATOM     26  C   UNL     1       6.995   1.770  23.043  0.00  0.00    +0.039 A 
ATOM     27  C   UNL     1       8.341   1.887  22.722  0.00  0.00    +0.123 A 
ATOM     28  F   UNL     1       8.693   2.262  21.485  0.00  0.00    -0.205 F 
ATOM     29  C   UNL     1       9.325   1.619  23.664  0.00  0.00    +0.039 A 
ATOM     30  C   UNL     1       8.959   1.235  24.954  0.00  0.00    +0.009 A 
ENDBRANCH  23  24
BRANCH  23  31
ATOM     31  O   UNL     1       7.547   1.743  27.642  0.00  0.00    -0.387 OA
ATOM     32  H   UNL     1       8.489   1.950  27.512  0.00  0.00    +0.210 HD
ENDBRANCH  23  31
ENDBRANCH  22  23
ENDBRANCH  21  22
ENDBRANCH   1  21
TORSDOF 8
ENDMDL
MODEL 9
REMARK VINA RESULT:      -6.5      3.550      7.609
REMARK  Name = 
REMARK  8 active torsions:
REMARK  status: ('A' for Active; 'I' for Inactive)
REMARK    1  A    between atoms: O_1  and  C_2
REMARK    2  A    between atoms: C_2  and  C_4
REMARK    3  A    between atoms: C_2  and  C_27
REMARK    4  A    between atoms: C_4  and  C_5
REMARK    5  A    between atoms: C_5  and  C_6
REMARK    6  A    between atoms: C_8  and  C_20
REMARK    7  A    between atoms: N_10  and  C_13
REMARK    8  A    between atoms: C_23  and  O_24
REMARK                            x       y       z     vdW  Elec       q    Type
REMARK                         _______ _______ _______ _____ _____    ______ ____
ROOT
ATOM      1  C   UNL     1       8.627  -2.986  25.313  0.00  0.00    +0.101 C 
ATOM      2  C   UNL     1       8.460  -1.706  26.152  0.00  0.00    +0.226 C 
ATOM      3  O   UNL     1       9.203  -1.020  26.816  0.00  0.00    -0.275 OA
ATOM      4  N   UNL     1       7.168  -1.573  25.758  0.00  0.00    -0.263 N 
ATOM      5  C   UNL     1       7.069  -2.881  25.096  0.00  0.00    +0.123 C 
ENDROOT
BRANCH   4   6
ATOM      6  C   UNL     1       6.369  -0.438  25.647  0.00  0.00    +0.037 A 
ATOM      7  C   UNL     1       5.376  -0.166  26.595  0.00  0.00    +0.026 A 
ATOM      8  C   UNL     1       4.550   0.955  26.446  0.00  0.00    +0.040 A 
ATOM      9  C   UNL     1       4.704   1.787  25.343  0.00  0.00    +0.124 A 
ATOM     10  F   UNL     1       3.899   2.846  25.193  0.00  0.00    -0.205 F 
ATOM     11  C   UNL     1       5.676   1.528  24.389  0.00  0.00    +0.040 A 
ATOM     12  C   UNL     1       6.517   0.424  24.550  0.00  0.00    +0.026 A 
ENDBRANCH   4   6
BRANCH   5  13
ATOM     13  C   UNL     1       6.240  -4.035  25.835  0.00  0.00    -0.026 A 
ATOM     14  C   UNL     1       5.997  -5.285  25.232  0.00  0.00    +0.009 A 
ATOM     15  C   UNL     1       5.406  -6.346  25.935  0.00  0.00    +0.046 A 
ATOM     16  C   UNL     1       5.047  -6.175  27.263  0.00  0.00    +0.117 A 
ATOM     17  C   UNL     1       5.221  -4.951  27.885  0.00  0.00    +0.046 A 
ATOM     18  C   UNL     1       5.800  -3.894  27.174  0.00  0.00    +0.009 A 
BRANCH  16  19
ATOM     19  O   UNL     1       4.539  -7.246  27.934  0.00  0.00    -0.507 OA
ATOM     20  H   UNL     1       3.600  -7.339  27.702  0.00  0.00    +0.292 HD
ENDBRANCH  16  19
ENDBRANCH   5  13
BRANCH   1  21
ATOM     21  C   UNL     1       9.566  -2.799  24.123  0.00  0.00    +0.018 C 
BRANCH  21  22
ATOM     22  C   UNL     1       8.763  -2.246  22.933  0.00  0.00    +0.037 C 
BRANCH  22  23
ATOM     23  C   UNL     1       9.548  -1.314  22.003  0.00  0.00    +0.145 C 
BRANCH  23  24
ATOM     24  C   UNL     1       9.444   0.146  22.394  0.00  0.00    -0.019 A 
ATOM     25  C   UNL     1       8.680   1.052  21.640  0.00  0.00    +0.009 A 
ATOM     26  C   UNL     1       8.594   2.392  22.012  0.00  0.00    +0.039 A 
ATOM     27  C   UNL     1       9.270   2.833  23.142  0.00  0.00    +0.123 A 
ATOM     28  F   UNL     1       9.178   4.119  23.506  0.00  0.00    -0.205 F 
ATOM     29  C   UNL     1      10.041   1.960  23.898  0.00  0.00    +0.039 A 
ATOM     30  C   UNL     1      10.133   0.619  23.525  0.00  0.00    +0.009 A 
ENDBRANCH  23  24
BRANCH  23  31
ATOM     31  O   UNL     1      10.913  -1.720  21.952  0.00  0.00    -0.387 OA
ATOM     32  H   UNL     1      11.264  -1.423  21.094  0.00  0.00    +0.210 HD
ENDBRANCH  23  31
ENDBRANCH  22  23
ENDBRANCH  21  22
ENDBRANCH   1  21
TORSDOF 8
ENDMDL
