MODEL 1
REMARK VINA RESULT:      -6.7      0.000      0.000
REMARK  Name = 
REMARK  3 active torsions:
REMARK  status: ('A' for Active; 'I' for Inactive)
REMARK    1  A    between atoms: C_6  and  C_8
REMARK    2  A    between atoms: C_9  and  C_19
REMARK    3  A    between atoms: N_12  and  C_13
REMARK                            x       y       z     vdW  Elec       q    Type
REMARK                         _______ _______ _______ _____ _____    ______ ____
ROOT
ATOM      1  C   UNL     1       8.298  -0.849  25.177  0.00  0.00    +0.095 A 
ATOM      2  N   UNL     1       9.307  -0.180  24.450  0.00  0.00    -0.325 N 
ATOM      3  C   UNL     1       9.983  -1.136  23.730  0.00  0.00    +0.200 A 
ATOM      4  N   UNL     1       9.470  -2.323  23.856  0.00  0.00    -0.235 NA
ATOM      5  C   UNL     1       8.454  -2.187  24.766  0.00  0.00    +0.098 A 
ENDROOT
BRANCH   1  11
ATOM      6  N   UNL     1       7.573   1.345  29.253  0.00  0.00    -0.327 N 
ATOM      7  H   UNL     1       8.520   1.618  29.018  0.00  0.00    +0.145 HD
ATOM      8  H   UNL     1       6.960   2.089  29.561  0.00  0.00    +0.145 HD
ATOM      9  C   UNL     1       7.001   0.729  28.158  0.00  0.00    +0.213 A 
ATOM     10  N   UNL     1       7.809   0.122  27.288  0.00  0.00    -0.213 NA
ATOM     11  C   UNL     1       7.304  -0.265  26.098  0.00  0.00    +0.094 A 
ATOM     12  C   UNL     1       5.978  -0.048  25.798  0.00  0.00    +0.050 A 
ATOM     13  C   UNL     1       5.205   0.494  26.798  0.00  0.00    +0.116 A 
ATOM     14  N   UNL     1       5.696   0.917  27.973  0.00  0.00    -0.223 NA
ENDBRANCH   1  11
BRANCH   2  15
ATOM     15  C   UNL     1       9.722   1.233  24.468  0.00  0.00    +0.091 C 
ATOM     16  C   UNL     1       8.582   2.255  24.358  0.00  0.00    +0.040 C 
ATOM     17  C   UNL     1       7.924   2.192  22.989  0.00  0.00    +0.083 C 
ATOM     18  N   UNL     1       8.876   2.497  21.928  0.00  0.00    -0.316 NA
ATOM     19  H   UNL     1       8.419   2.331  21.027  0.00  0.00    +0.122 HD
ATOM     20  C   UNL     1      10.111   1.719  21.976  0.00  0.00    +0.083 C 
ATOM     21  C   UNL     1      10.744   1.644  23.373  0.00  0.00    +0.040 C 
ENDBRANCH   2  15
BRANCH   5  22
ATOM     22  C   UNL     1       7.771  -3.411  25.181  0.00  0.00    +0.003 A 
ATOM     23  C   UNL     1       6.778  -4.037  24.408  0.00  0.00    +0.013 A 
ATOM     24  C   UNL     1       6.096  -5.161  24.897  0.00  0.00    +0.039 A 
ATOM     25  C   UNL     1       6.376  -5.628  26.172  0.00  0.00    +0.123 A 
ATOM     26  F   UNL     1       5.695  -6.682  26.646  0.00  0.00    -0.205 F 
ATOM     27  C   UNL     1       7.328  -5.019  26.970  0.00  0.00    +0.039 A 
ATOM     28  C   UNL     1       8.030  -3.919  26.467  0.00  0.00    +0.013 A 
ENDBRANCH   5  22
TORSDOF 3
ENDMDL
MODEL 2
REMARK VINA RESULT:      -6.6      2.129      4.226
REMARK  Name = 
REMARK  3 active torsions:
REMARK  status: ('A' for Active; 'I' for Inactive)
REMARK    1  A    between atoms: C_6  and  C_8
REMARK    2  A    between atoms: C_9  and  C_19
REMARK    3  A    between atoms: N_12  and  C_13
REMARK                            x       y       z     vdW  Elec       q    Type
REMARK                         _______ _______ _______ _____ _____    ______ ____
ROOT
ATOM      1  C   UNL     1       8.115  -1.302  24.888  0.00  0.00    +0.095 A 
ATOM      2  N   UNL     1       8.990  -0.235  24.591  0.00  0.00    -0.325 N 
ATOM      3  C   UNL     1       8.467   0.889  25.186  0.00  0.00    +0.200 A 
ATOM      4  N   UNL     1       7.405   0.642  25.890  0.00  0.00    -0.235 NA
ATOM      5  C   UNL     1       7.141  -0.690  25.700  0.00  0.00    +0.098 A 
ENDROOT
BRANCH   1  11
ATOM      6  N   UNL     1      10.028  -5.480  25.806  0.00  0.00    -0.327 N 
ATOM      7  H   UNL     1      10.006  -5.039  26.718  0.00  0.00    +0.145 HD
ATOM      8  H   UNL     1       9.700  -6.436  25.767  0.00  0.00    +0.145 HD
ATOM      9  C   UNL     1       9.282  -4.722  24.927  0.00  0.00    +0.213 A 
ATOM     10  N   UNL     1       9.153  -3.418  25.175  0.00  0.00    -0.213 NA
ATOM     11  C   UNL     1       8.236  -2.715  24.479  0.00  0.00    +0.094 A 
ATOM     12  C   UNL     1       7.461  -3.332  23.523  0.00  0.00    +0.050 A 
ATOM     13  C   UNL     1       7.738  -4.655  23.270  0.00  0.00    +0.116 A 
ATOM     14  N   UNL     1       8.620  -5.379  23.976  0.00  0.00    -0.223 NA
ENDBRANCH   1  11
BRANCH   2  15
ATOM     15  C   UNL     1      10.186  -0.188  23.732  0.00  0.00    +0.091 C 
ATOM     16  C   UNL     1      10.937   1.151  23.723  0.00  0.00    +0.040 C 
ATOM     17  C   UNL     1      10.101   2.240  23.070  0.00  0.00    +0.083 C 
ATOM     18  N   UNL     1       9.792   1.913  21.684  0.00  0.00    -0.316 NA
ATOM     19  H   UNL     1       9.139   2.614  21.325  0.00  0.00    +0.122 HD
ATOM     20  C   UNL     1       9.212   0.588  21.485  0.00  0.00    +0.083 C 
ATOM     21  C   UNL     1       9.948  -0.531  22.237  0.00  0.00    +0.040 C 
ENDBRANCH   2  15
BRANCH   5  22
ATOM     22  C   UNL     1       5.916  -1.213  26.300  0.00  0.00    +0.003 A 
ATOM     23  C   UNL     1       4.724  -0.472  26.383  0.00  0.00    +0.013 A 
ATOM     24  C   UNL     1       3.604  -0.995  27.047  0.00  0.00    +0.039 A 
ATOM     25  C   UNL     1       3.692  -2.233  27.664  0.00  0.00    +0.123 A 
ATOM     26  F   UNL     1       2.628  -2.710  28.326  0.00  0.00    -0.205 F 
ATOM     27  C   UNL     1       4.857  -2.976  27.624  0.00  0.00    +0.039 A 
ATOM     28  C   UNL     1       5.963  -2.468  26.933  0.00  0.00    +0.013 A 
ENDBRANCH   5  22
TORSDOF 3
ENDMDL
MODEL 3
REMARK VINA RESULT:      -6.5      2.153      4.215
REMARK  Name = 
REMARK  3 active torsions:
REMARK  status: ('A' for Active; 'I' for Inactive)
REMARK    1  A    between atoms: C_6  and  C_8
REMARK    2  A    between atoms: C_9  and  C_19
REMARK    3  A    between atoms: N_12  and  C_13
REMARK                            x       y       z     vdW  Elec       q    Type
REMARK                         _______ _______ _______ _____ _____    ______ ____
ROOT
ATOM      1  C   UNL     1       7.902  -2.102  24.377  0.00  0.00    +0.095 A 
ATOM      2  N   UNL     1       8.759  -0.989  24.231  0.00  0.00    -0.325 N 
ATOM      3  C   UNL     1       9.195  -0.651  25.490  0.00  0.00    +0.200 A 
ATOM      4  N   UNL     1       8.777  -1.469  26.408  0.00  0.00    -0.235 NA
ATOM      5  C   UNL     1       7.951  -2.353  25.762  0.00  0.00    +0.098 A 
ENDROOT
BRANCH   1  11
ATOM      6  N   UNL     1       7.455  -6.142  22.046  0.00  0.00    -0.327 N 
ATOM      7  H   UNL     1       7.838  -6.439  22.936  0.00  0.00    +0.145 HD
ATOM      8  H   UNL     1       6.672  -6.679  21.699  0.00  0.00    +0.145 HD
ATOM      9  C   UNL     1       7.073  -4.819  22.144  0.00  0.00    +0.213 A 
ATOM     10  N   UNL     1       7.700  -4.050  23.035  0.00  0.00    -0.213 NA
ATOM     11  C   UNL     1       7.181  -2.837  23.320  0.00  0.00    +0.094 A 
ATOM     12  C   UNL     1       6.036  -2.402  22.692  0.00  0.00    +0.050 A 
ATOM     13  C   UNL     1       5.521  -3.225  21.718  0.00  0.00    +0.116 A 
ATOM     14  N   UNL     1       6.001  -4.448  21.446  0.00  0.00    -0.223 NA
ENDBRANCH   1  11
BRANCH   2  15
ATOM     15  C   UNL     1       9.097  -0.193  23.039  0.00  0.00    +0.091 C 
ATOM     16  C   UNL     1      10.353   0.682  23.167  0.00  0.00    +0.040 C 
ATOM     17  C   UNL     1      10.140   1.797  24.178  0.00  0.00    +0.083 C 
ATOM     18  N   UNL     1       9.048   2.674  23.777  0.00  0.00    -0.316 NA
ATOM     19  H   UNL     1       8.870   3.336  24.537  0.00  0.00    +0.122 HD
ATOM     20  C   UNL     1       7.801   1.987  23.454  0.00  0.00    +0.083 C 
ATOM     21  C   UNL     1       7.984   0.767  22.538  0.00  0.00    +0.040 C 
ENDBRANCH   2  15
BRANCH   5  22
ATOM     22  C   UNL     1       7.247  -3.327  26.593  0.00  0.00    +0.003 A 
ATOM     23  C   UNL     1       7.733  -4.623  26.836  0.00  0.00    +0.013 A 
ATOM     24  C   UNL     1       6.971  -5.544  27.571  0.00  0.00    +0.039 A 
ATOM     25  C   UNL     1       5.711  -5.184  28.021  0.00  0.00    +0.123 A 
ATOM     26  F   UNL     1       4.975  -6.082  28.693  0.00  0.00    -0.205 F 
ATOM     27  C   UNL     1       5.192  -3.925  27.776  0.00  0.00    +0.039 A 
ATOM     28  C   UNL     1       5.966  -2.997  27.072  0.00  0.00    +0.013 A 
ENDBRANCH   5  22
TORSDOF 3
ENDMDL
MODEL 4
REMARK VINA RESULT:      -6.5      2.906      5.960
REMARK  Name = 
REMARK  3 active torsions:
REMARK  status: ('A' for Active; 'I' for Inactive)
REMARK    1  A    between atoms: C_6  and  C_8
REMARK    2  A    between atoms: C_9  and  C_19
REMARK    3  A    between atoms: N_12  and  C_13
REMARK                            x       y       z     vdW  Elec       q    Type
REMARK                         _______ _______ _______ _____ _____    ______ ____
ROOT
ATOM      1  C   UNL     1       7.922  -1.084  24.548  0.00  0.00    +0.095 A 
ATOM      2  N   UNL     1       8.035  -2.428  24.130  0.00  0.00    -0.325 N 
ATOM      3  C   UNL     1       8.964  -2.455  23.117  0.00  0.00    +0.200 A 
ATOM      4  N   UNL     1       9.509  -1.297  22.898  0.00  0.00    -0.235 NA
ATOM      5  C   UNL     1       8.866  -0.425  23.737  0.00  0.00    +0.098 A 
ENDROOT
BRANCH   1  11
ATOM      6  N   UNL     1       7.735   0.958  28.761  0.00  0.00    -0.327 N 
ATOM      7  H   UNL     1       8.645   1.240  28.417  0.00  0.00    +0.145 HD
ATOM      8  H   UNL     1       7.170   1.690  29.172  0.00  0.00    +0.145 HD
ATOM      9  C   UNL     1       7.025   0.383  27.726  0.00  0.00    +0.213 A 
ATOM     10  N   UNL     1       7.712  -0.191  26.738  0.00  0.00    -0.213 NA
ATOM     11  C   UNL     1       7.056  -0.534  25.610  0.00  0.00    +0.094 A 
ATOM     12  C   UNL     1       5.704  -0.307  25.490  0.00  0.00    +0.050 A 
ATOM     13  C   UNL     1       5.068   0.197  26.601  0.00  0.00    +0.116 A 
ATOM     14  N   UNL     1       5.707   0.577  27.717  0.00  0.00    -0.223 NA
ENDBRANCH   1  11
BRANCH   2  15
ATOM     15  C   UNL     1       7.280  -3.624  24.539  0.00  0.00    +0.091 C 
ATOM     16  C   UNL     1       7.062  -3.779  26.052  0.00  0.00    +0.040 C 
ATOM     17  C   UNL     1       8.378  -4.040  26.768  0.00  0.00    +0.083 C 
ATOM     18  N   UNL     1       9.003  -5.270  26.297  0.00  0.00    -0.316 NA
ATOM     19  H   UNL     1       9.931  -5.343  26.722  0.00  0.00    +0.122 HD
ATOM     20  C   UNL     1       9.144  -5.366  24.847  0.00  0.00    +0.083 C 
ATOM     21  C   UNL     1       7.874  -4.981  24.073  0.00  0.00    +0.040 C 
ENDBRANCH   2  15
BRANCH   5  22
ATOM     22  C   UNL     1       9.213   0.989  23.613  0.00  0.00    +0.003 A 
ATOM     23  C   UNL     1      10.532   1.467  23.698  0.00  0.00    +0.013 A 
ATOM     24  C   UNL     1      10.795   2.844  23.658  0.00  0.00    +0.039 A 
ATOM     25  C   UNL     1       9.740   3.740  23.580  0.00  0.00    +0.123 A 
ATOM     26  F   UNL     1       9.999   5.056  23.577  0.00  0.00    -0.205 F 
ATOM     27  C   UNL     1       8.429   3.305  23.521  0.00  0.00    +0.039 A 
ATOM     28  C   UNL     1       8.170   1.930  23.528  0.00  0.00    +0.013 A 
ENDBRANCH   5  22
TORSDOF 3
ENDMDL
MODEL 5
REMARK VINA RESULT:      -6.3      3.468      6.940
REMARK  Name = 
REMARK  3 active torsions:
REMARK  status: ('A' for Active; 'I' for Inactive)
REMARK    1  A    between atoms: C_6  and  C_8
REMARK    2  A    between atoms: C_9  and  C_19
REMARK    3  A    between atoms: N_12  and  C_13
REMARK                            x       y       z     vdW  Elec       q    Type
REMARK                         _______ _______ _______ _____ _____    ______ ____
ROOT
ATOM      1  C   UNL     1       6.734  -2.379  24.332  0.00  0.00    +0.095 A 
ATOM      2  N   UNL     1       5.988  -3.565  24.509  0.00  0.00    -0.325 N 
ATOM      3  C   UNL     1       4.791  -3.203  25.080  0.00  0.00    +0.200 A 
ATOM      4  N   UNL     1       4.661  -1.918  25.214  0.00  0.00    -0.235 NA
ATOM      5  C   UNL     1       5.852  -1.384  24.795  0.00  0.00    +0.098 A 
ENDROOT
BRANCH   1  11
ATOM      6  N   UNL     1       9.319  -0.621  20.841  0.00  0.00    -0.327 N 
ATOM      7  H   UNL     1       8.525   0.008  20.870  0.00  0.00    +0.145 HD
ATOM      8  H   UNL     1      10.229  -0.184  20.781  0.00  0.00    +0.145 HD
ATOM      9  C   UNL     1       9.290  -1.426  21.962  0.00  0.00    +0.213 A 
ATOM     10  N   UNL     1       8.109  -1.665  22.532  0.00  0.00    -0.213 NA
ATOM     11  C   UNL     1       8.085  -2.235  23.755  0.00  0.00    +0.094 A 
ATOM     12  C   UNL     1       9.258  -2.574  24.391  0.00  0.00    +0.050 A 
ATOM     13  C   UNL     1      10.419  -2.379  23.680  0.00  0.00    +0.116 A 
ATOM     14  N   UNL     1      10.465  -1.782  22.480  0.00  0.00    -0.223 NA
ENDBRANCH   1  11
BRANCH   2  15
ATOM     15  C   UNL     1       6.357  -4.971  24.277  0.00  0.00    +0.091 C 
ATOM     16  C   UNL     1       7.071  -5.253  22.946  0.00  0.00    +0.040 C 
ATOM     17  C   UNL     1       6.138  -5.028  21.768  0.00  0.00    +0.083 C 
ATOM     18  N   UNL     1       4.982  -5.914  21.829  0.00  0.00    -0.316 NA
ATOM     19  H   UNL     1       4.332  -5.650  21.085  0.00  0.00    +0.122 HD
ATOM     20  C   UNL     1       4.267  -5.897  23.102  0.00  0.00    +0.083 C 
ATOM     21  C   UNL     1       5.184  -5.988  24.331  0.00  0.00    +0.040 C 
ENDBRANCH   2  15
BRANCH   5  22
ATOM     22  C   UNL     1       6.019   0.060  24.948  0.00  0.00    +0.003 A 
ATOM     23  C   UNL     1       5.971   0.711  26.192  0.00  0.00    +0.013 A 
ATOM     24  C   UNL     1       6.052   2.110  26.268  0.00  0.00    +0.039 A 
ATOM     25  C   UNL     1       6.133   2.854  25.101  0.00  0.00    +0.123 A 
ATOM     26  F   UNL     1       6.175   4.192  25.181  0.00  0.00    -0.205 F 
ATOM     27  C   UNL     1       6.155   2.246  23.859  0.00  0.00    +0.039 A 
ATOM     28  C   UNL     1       6.108   0.850  23.787  0.00  0.00    +0.013 A 
ENDBRANCH   5  22
TORSDOF 3
ENDMDL
MODEL 6
REMARK VINA RESULT:      -6.3      3.286      6.843
REMARK  Name = 
REMARK  3 active torsions:
REMARK  status: ('A' for Active; 'I' for Inactive)
REMARK    1  A    between atoms: C_6  and  C_8
REMARK    2  A    between atoms: C_9  and  C_19
REMARK    3  A    between atoms: N_12  and  C_13
REMARK                            x       y       z     vdW  Elec       q    Type
REMARK                         _______ _______ _______ _____ _____    ______ ____
ROOT
ATOM      1  C   UNL     1       6.858  -2.131  25.636  0.00  0.00    +0.095 A 
ATOM      2  N   UNL     1       5.947  -2.155  26.713  0.00  0.00    -0.325 N 
ATOM      3  C   UNL     1       5.650  -0.847  27.014  0.00  0.00    +0.200 A 
ATOM      4  N   UNL     1       6.206  -0.000  26.202  0.00  0.00    -0.235 NA
ATOM      5  C   UNL     1       6.983  -0.756  25.363  0.00  0.00    +0.098 A 
ENDROOT
BRANCH   1  11
ATOM      6  N   UNL     1      10.105  -5.505  25.821  0.00  0.00    -0.327 N 
ATOM      7  H   UNL     1       9.911  -5.328  26.800  0.00  0.00    +0.145 HD
ATOM      8  H   UNL     1      10.136  -6.478  25.544  0.00  0.00    +0.145 HD
ATOM      9  C   UNL     1       9.155  -4.860  25.055  0.00  0.00    +0.213 A 
ATOM     10  N   UNL     1       8.570  -3.775  25.563  0.00  0.00    -0.213 NA
ATOM     11  C   UNL     1       7.477  -3.280  24.946  0.00  0.00    +0.094 A 
ATOM     12  C   UNL     1       6.988  -3.878  23.807  0.00  0.00    +0.050 A 
ATOM     13  C   UNL     1       7.719  -4.930  23.304  0.00  0.00    +0.116 A 
ATOM     14  N   UNL     1       8.786  -5.457  23.923  0.00  0.00    -0.223 NA
ENDBRANCH   1  11
BRANCH   2  15
ATOM     15  C   UNL     1       5.438  -3.282  27.512  0.00  0.00    +0.091 C 
ATOM     16  C   UNL     1       4.979  -4.506  26.705  0.00  0.00    +0.040 C 
ATOM     17  C   UNL     1       3.741  -4.185  25.883  0.00  0.00    +0.083 C 
ATOM     18  N   UNL     1       2.626  -3.792  26.736  0.00  0.00    -0.316 NA
ATOM     19  H   UNL     1       1.857  -3.479  26.138  0.00  0.00    +0.122 HD
ATOM     20  C   UNL     1       2.934  -2.735  27.694  0.00  0.00    +0.083 C 
ATOM     21  C   UNL     1       4.250  -2.951  28.456  0.00  0.00    +0.040 C 
ENDBRANCH   2  15
BRANCH   5  22
ATOM     22  C   UNL     1       7.819  -0.032  24.407  0.00  0.00    +0.003 A 
ATOM     23  C   UNL     1       7.599  -0.060  23.019  0.00  0.00    +0.013 A 
ATOM     24  C   UNL     1       8.486   0.584  22.143  0.00  0.00    +0.039 A 
ATOM     25  C   UNL     1       9.612   1.213  22.652  0.00  0.00    +0.123 A 
ATOM     26  F   UNL     1      10.473   1.796  21.805  0.00  0.00    -0.205 F 
ATOM     27  C   UNL     1       9.873   1.235  24.009  0.00  0.00    +0.039 A 
ATOM     28  C   UNL     1       8.970   0.621  24.884  0.00  0.00    +0.013 A 
ENDBRANCH   5  22
TORSDOF 3
ENDMDL
MODEL 7
REMARK VINA RESULT:      -6.3      3.308      6.265
REMARK  Name = 
REMARK  3 active torsions:
REMARK  status: ('A' for Active; 'I' for Inactive)
REMARK    1  A    between atoms: C_6  and  C_8
REMARK    2  A    between atoms: C_9  and  C_19
REMARK    3  A    between atoms: N_12  and  C_13
REMARK                            x       y       z     vdW  Elec       q    Type
REMARK                         _______ _______ _______ _____ _____    ______ ____
ROOT
ATOM      1  C   UNL     1       5.985  -1.957  24.194  0.00  0.00    +0.095 A 
ATOM      2  N   UNL     1       5.171  -3.050  23.826  0.00  0.00    -0.325 N 
ATOM      3  C   UNL     1       5.452  -3.332  22.510  0.00  0.00    +0.200 A 
ATOM      4  N   UNL     1       6.405  -2.596  22.026  0.00  0.00    -0.235 NA
ATOM      5  C   UNL     1       6.732  -1.716  23.026  0.00  0.00    +0.098 A 
ENDROOT
BRANCH   1  11
ATOM      6  N   UNL     1       8.764  -0.314  27.591  0.00  0.00    -0.327 N 
ATOM      7  H   UNL     1       9.360  -0.270  26.774  0.00  0.00    +0.145 HD
ATOM      8  H   UNL     1       8.756   0.509  28.180  0.00  0.00    +0.145 HD
ATOM      9  C   UNL     1       7.470  -0.575  27.185  0.00  0.00    +0.213 A 
ATOM     10  N   UNL     1       7.294  -1.232  26.038  0.00  0.00    -0.213 NA
ATOM     11  C   UNL     1       6.056  -1.279  25.504  0.00  0.00    +0.094 A 
ATOM     12  C   UNL     1       4.997  -0.672  26.140  0.00  0.00    +0.050 A 
ATOM     13  C   UNL     1       5.261  -0.107  27.366  0.00  0.00    +0.116 A 
ATOM     14  N   UNL     1       6.491  -0.019  27.896  0.00  0.00    -0.223 NA
ENDBRANCH   1  11
BRANCH   2  15
ATOM     15  C   UNL     1       4.114  -3.751  24.575  0.00  0.00    +0.091 C 
ATOM     16  C   UNL     1       4.587  -4.521  25.816  0.00  0.00    +0.040 C 
ATOM     17  C   UNL     1       5.461  -5.702  25.424  0.00  0.00    +0.083 C 
ATOM     18  N   UNL     1       4.731  -6.647  24.586  0.00  0.00    -0.316 NA
ATOM     19  H   UNL     1       5.387  -7.360  24.257  0.00  0.00    +0.122 HD
ATOM     20  C   UNL     1       4.070  -6.050  23.429  0.00  0.00    +0.083 C 
ATOM     21  C   UNL     1       3.280  -4.773  23.755  0.00  0.00    +0.040 C 
ENDBRANCH   2  15
BRANCH   5  22
ATOM     22  C   UNL     1       7.716  -0.685  22.703  0.00  0.00    +0.003 A 
ATOM     23  C   UNL     1       7.413   0.687  22.683  0.00  0.00    +0.013 A 
ATOM     24  C   UNL     1       8.377   1.624  22.281  0.00  0.00    +0.039 A 
ATOM     25  C   UNL     1       9.622   1.186  21.859  0.00  0.00    +0.123 A 
ATOM     26  F   UNL     1      10.526   2.086  21.444  0.00  0.00    -0.205 F 
ATOM     27  C   UNL     1       9.944  -0.159  21.841  0.00  0.00    +0.039 A 
ATOM     28  C   UNL     1       8.993  -1.090  22.273  0.00  0.00    +0.013 A 
ENDBRANCH   5  22
TORSDOF 3
ENDMDL
MODEL 8
REMARK VINA RESULT:      -6.3      2.475      4.401
REMARK  Name = 
REMARK  3 active torsions:
REMARK  status: ('A' for Active; 'I' for Inactive)
REMARK    1  A    between atoms: C_6  and  C_8
REMARK    2  A    between atoms: C_9  and  C_19
REMARK    3  A    between atoms: N_12  and  C_13
REMARK                            x       y       z     vdW  Elec       q    Type
REMARK                         _______ _______ _______ _____ _____    ______ ____
ROOT
ATOM      1  C   UNL     1       7.149  -1.764  24.022  0.00  0.00    +0.095 A 
ATOM      2  N   UNL     1       7.678  -0.608  23.409  0.00  0.00    -0.325 N 
ATOM      3  C   UNL     1       6.842   0.435  23.731  0.00  0.00    +0.200 A 
ATOM      4  N   UNL     1       5.888   0.088  24.541  0.00  0.00    -0.235 NA
ATOM      5  C   UNL     1       6.028  -1.265  24.713  0.00  0.00    +0.098 A 
ENDROOT
BRANCH   1  11
ATOM      6  N   UNL     1       9.744  -5.012  26.183  0.00  0.00    -0.327 N 
ATOM      7  H   UNL     1       9.424  -4.435  26.952  0.00  0.00    +0.145 HD
ATOM      8  H   UNL     1       9.666  -6.012  26.316  0.00  0.00    +0.145 HD
ATOM      9  C   UNL     1       9.048  -4.664  25.044  0.00  0.00    +0.213 A 
ATOM     10  N   UNL     1       8.567  -3.423  24.957  0.00  0.00    -0.213 NA
ATOM     11  C   UNL     1       7.682  -3.140  23.979  0.00  0.00    +0.094 A 
ATOM     12  C   UNL     1       7.297  -4.110  23.082  0.00  0.00    +0.050 A 
ATOM     13  C   UNL     1       7.924  -5.330  23.193  0.00  0.00    +0.116 A 
ATOM     14  N   UNL     1       8.778  -5.641  24.179  0.00  0.00    -0.223 NA
ENDBRANCH   1  11
BRANCH   2  15
ATOM     15  C   UNL     1       8.819  -0.449  22.491  0.00  0.00    +0.091 C 
ATOM     16  C   UNL     1      10.201  -0.717  23.107  0.00  0.00    +0.040 C 
ATOM     17  C   UNL     1      10.548   0.337  24.145  0.00  0.00    +0.083 C 
ATOM     18  N   UNL     1      10.595   1.669  23.555  0.00  0.00    -0.316 NA
ATOM     19  H   UNL     1      10.719   2.351  24.307  0.00  0.00    +0.122 HD
ATOM     20  C   UNL     1       9.410   2.034  22.783  0.00  0.00    +0.083 C 
ATOM     21  C   UNL     1       8.941   0.942  21.811  0.00  0.00    +0.040 C 
ENDBRANCH   2  15
BRANCH   5  22
ATOM     22  C   UNL     1       5.000  -1.940  25.503  0.00  0.00    +0.003 A 
ATOM     23  C   UNL     1       4.787  -1.682  26.868  0.00  0.00    +0.013 A 
ATOM     24  C   UNL     1       3.844  -2.423  27.595  0.00  0.00    +0.039 A 
ATOM     25  C   UNL     1       3.150  -3.447  26.969  0.00  0.00    +0.123 A 
ATOM     26  F   UNL     1       2.275  -4.174  27.681  0.00  0.00    -0.205 F 
ATOM     27  C   UNL     1       3.355  -3.745  25.635  0.00  0.00    +0.039 A 
ATOM     28  C   UNL     1       4.272  -2.983  24.903  0.00  0.00    +0.013 A 
ENDBRANCH   5  22
TORSDOF 3
ENDMDL
MODEL 9
REMARK VINA RESULT:      -6.2      2.513      4.053
REMARK  Name = 
REMARK  3 active torsions:
REMARK  status: ('A' for Active; 'I' for Inactive)
REMARK    1  A    between atoms: C_6  and  C_8
REMARK    2  A    between atoms: C_9  and  C_19
REMARK    3  A    between atoms: N_12  and  C_13
REMARK                            x       y       z     vdW  Elec       q    Type
REMARK                         _______ _______ _______ _____ _____    ______ ____
ROOT
ATOM      1  C   UNL     1       7.470  -1.832  24.788  0.00  0.00    +0.095 A 
ATOM      2  N   UNL     1       7.960  -0.516  24.647  0.00  0.00    -0.325 N 
ATOM      3  C   UNL     1       6.881   0.283  24.348  0.00  0.00    +0.200 A 
ATOM      4  N   UNL     1       5.754  -0.362  24.361  0.00  0.00    -0.235 NA
ATOM      5  C   UNL     1       6.085  -1.672  24.594  0.00  0.00    +0.098 A 
ENDROOT
BRANCH   1  11
ATOM      6  N   UNL     1       7.675  -5.737  27.370  0.00  0.00    -0.327 N 
ATOM      7  H   UNL     1       6.680  -5.554  27.321  0.00  0.00    +0.145 HD
ATOM      8  H   UNL     1       7.960  -6.691  27.194  0.00  0.00    +0.145 HD
ATOM      9  C   UNL     1       8.325  -4.912  26.475  0.00  0.00    +0.213 A 
ATOM     10  N   UNL     1       7.746  -3.753  26.156  0.00  0.00    -0.213 NA
ATOM     11  C   UNL     1       8.233  -3.055  25.109  0.00  0.00    +0.094 A 
ATOM     12  C   UNL     1       9.313  -3.524  24.397  0.00  0.00    +0.050 A 
ATOM     13  C   UNL     1       9.902  -4.675  24.865  0.00  0.00    +0.116 A 
ATOM     14  N   UNL     1       9.412  -5.402  25.881  0.00  0.00    -0.223 NA
ENDBRANCH   1  11
BRANCH   2  15
ATOM     15  C   UNL     1       9.339   0.000  24.674  0.00  0.00    +0.091 C 
ATOM     16  C   UNL     1       9.469   1.531  24.672  0.00  0.00    +0.040 C 
ATOM     17  C   UNL     1       8.995   2.116  23.351  0.00  0.00    +0.083 C 
ATOM     18  N   UNL     1       9.787   1.618  22.235  0.00  0.00    -0.316 NA
ATOM     19  H   UNL     1       9.362   1.948  21.364  0.00  0.00    +0.122 HD
ATOM     20  C   UNL     1       9.908   0.164  22.174  0.00  0.00    +0.083 C 
ATOM     21  C   UNL     1      10.258  -0.487  23.521  0.00  0.00    +0.040 C 
ENDBRANCH   2  15
BRANCH   5  22
ATOM     22  C   UNL     1       4.997  -2.646  24.546  0.00  0.00    +0.003 A 
ATOM     23  C   UNL     1       4.069  -2.813  25.588  0.00  0.00    +0.013 A 
ATOM     24  C   UNL     1       3.098  -3.824  25.524  0.00  0.00    +0.039 A 
ATOM     25  C   UNL     1       3.086  -4.692  24.443  0.00  0.00    +0.123 A 
ATOM     26  F   UNL     1       2.176  -5.677  24.406  0.00  0.00    -0.205 F 
ATOM     27  C   UNL     1       4.001  -4.572  23.413  0.00  0.00    +0.039 A 
ATOM     28  C   UNL     1       4.947  -3.543  23.463  0.00  0.00    +0.013 A 
ENDBRANCH   5  22
TORSDOF 3
ENDMDL
