MODEL 1
REMARK VINA RESULT:      -2.9      0.000      0.000
REMARK  Name = 
REMARK  3 active torsions:
REMARK  status: ('A' for Active; 'I' for Inactive)
REMARK    1  A    between atoms: C_1  and  C_2
REMARK    2  A    between atoms: C_2  and  C_3
REMARK    3  A    between atoms: C_3  and  O_4
REMARK                            x       y       z     vdW  Elec       q    Type
REMARK                         _______ _______ _______ _____ _____    ______ ____
ROOT
ATOM      1  C   UNL     1      12.938   5.207  22.900  0.00  0.00    +0.155 C 
ENDROOT
BRANCH   1   3
ATOM      2  C   UNL     1      10.752   5.979  23.882  0.00  0.00    +0.006 C 
ATOM      3  C   UNL     1      12.263   5.971  24.030  0.00  0.00    +0.024 C 
ENDBRANCH   1   3
BRANCH   1   4
ATOM      4  O   UNL     1      14.330   5.089  23.162  0.00  0.00    -0.395 OA
ATOM      5  H   UNL     1      14.437   4.973  24.121  0.00  0.00    +0.209 HD
ENDBRANCH   1   4
TORSDOF 2
ENDMDL
MODEL 2
REMARK VINA RESULT:      -2.5      6.020      6.313
REMARK  Name = 
REMARK  3 active torsions:
REMARK  status: ('A' for Active; 'I' for Inactive)
REMARK    1  A    between atoms: C_1  and  C_2
REMARK    2  A    between atoms: C_2  and  C_3
REMARK    3  A    between atoms: C_3  and  O_4
REMARK                            x       y       z     vdW  Elec       q    Type
REMARK                         _______ _______ _______ _____ _____    ______ ____
ROOT
ATOM      1  C   UNL     1       9.980   1.152  22.408  0.00  0.00    +0.155 C 
ENDROOT
BRANCH   1   3
ATOM      2  C   UNL     1      10.143  -1.354  22.243  0.00  0.00    +0.006 C 
ATOM      3  C   UNL     1       9.633  -0.083  21.589  0.00  0.00    +0.024 C 
ENDBRANCH   1   3
BRANCH   1   4
ATOM      4  O   UNL     1      10.209   2.256  21.542  0.00  0.00    -0.395 OA
ATOM      5  H   UNL     1       9.548   2.211  20.832  0.00  0.00    +0.209 HD
ENDBRANCH   1   4
TORSDOF 2
ENDMDL
MODEL 3
REMARK VINA RESULT:      -2.4      4.991      5.074
REMARK  Name = 
REMARK  3 active torsions:
REMARK  status: ('A' for Active; 'I' for Inactive)
REMARK    1  A    between atoms: C_1  and  C_2
REMARK    2  A    between atoms: C_2  and  C_3
REMARK    3  A    between atoms: C_3  and  O_4
REMARK                            x       y       z     vdW  Elec       q    Type
REMARK                         _______ _______ _______ _____ _____    ______ ____
ROOT
ATOM      1  C   UNL     1       9.987   1.299  22.509  0.00  0.00    +0.155 C 
ENDROOT
BRANCH   1   3
ATOM      2  C   UNL     1      10.754   0.500  24.770  0.00  0.00    +0.006 C 
ATOM      3  C   UNL     1      10.507   1.706  23.880  0.00  0.00    +0.024 C 
ENDBRANCH   1   3
BRANCH   1   4
ATOM      4  O   UNL     1      10.256   2.328  21.567  0.00  0.00    -0.395 OA
ATOM      5  H   UNL     1      11.217   2.471  21.558  0.00  0.00    +0.209 HD
ENDBRANCH   1   4
TORSDOF 2
ENDMDL
MODEL 4
REMARK VINA RESULT:      -2.4      6.533      6.689
REMARK  Name = 
REMARK  3 active torsions:
REMARK  status: ('A' for Active; 'I' for Inactive)
REMARK    1  A    between atoms: C_1  and  C_2
REMARK    2  A    between atoms: C_2  and  C_3
REMARK    3  A    between atoms: C_3  and  O_4
REMARK                            x       y       z     vdW  Elec       q    Type
REMARK                         _______ _______ _______ _____ _____    ______ ____
ROOT
ATOM      1  C   UNL     1       9.422  -0.713  22.200  0.00  0.00    +0.155 C 
ENDROOT
BRANCH   1   3
ATOM      2  C   UNL     1      10.013   1.730  22.065  0.00  0.00    +0.006 C 
ATOM      3  C   UNL     1       9.233   0.589  21.435  0.00  0.00    +0.024 C 
ENDBRANCH   1   3
BRANCH   1   4
ATOM      4  O   UNL     1      10.247  -1.596  21.452  0.00  0.00    -0.395 OA
ATOM      5  H   UNL     1      11.102  -1.655  21.912  0.00  0.00    +0.209 HD
ENDBRANCH   1   4
TORSDOF 2
ENDMDL
MODEL 5
REMARK VINA RESULT:      -2.3     12.020     12.211
REMARK  Name = 
REMARK  3 active torsions:
REMARK  status: ('A' for Active; 'I' for Inactive)
REMARK    1  A    between atoms: C_1  and  C_2
REMARK    2  A    between atoms: C_2  and  C_3
REMARK    3  A    between atoms: C_3  and  O_4
REMARK                            x       y       z     vdW  Elec       q    Type
REMARK                         _______ _______ _______ _____ _____    ______ ____
ROOT
ATOM      1  C   UNL     1       7.580  -5.235  26.699  0.00  0.00    +0.155 C 
ENDROOT
BRANCH   1   3
ATOM      2  C   UNL     1       9.733  -5.044  25.409  0.00  0.00    +0.006 C 
ATOM      3  C   UNL     1       8.911  -4.509  26.568  0.00  0.00    +0.024 C 
ENDBRANCH   1   3
BRANCH   1   4
ATOM      4  O   UNL     1       7.600  -6.077  27.843  0.00  0.00    -0.395 OA
ATOM      5  H   UNL     1       8.525  -6.157  28.130  0.00  0.00    +0.209 HD
ENDBRANCH   1   4
TORSDOF 2
ENDMDL
MODEL 6
REMARK VINA RESULT:      -2.2      5.134      5.233
REMARK  Name = 
REMARK  3 active torsions:
REMARK  status: ('A' for Active; 'I' for Inactive)
REMARK    1  A    between atoms: C_1  and  C_2
REMARK    2  A    between atoms: C_2  and  C_3
REMARK    3  A    between atoms: C_3  and  O_4
REMARK                            x       y       z     vdW  Elec       q    Type
REMARK                         _______ _______ _______ _____ _____    ______ ____
ROOT
ATOM      1  C   UNL     1      10.964   0.782  24.314  0.00  0.00    +0.155 C 
ENDROOT
BRANCH   1   3
ATOM      2  C   UNL     1      10.065   1.724  22.160  0.00  0.00    +0.006 C 
ATOM      3  C   UNL     1      10.366   1.999  23.623  0.00  0.00    +0.024 C 
ENDBRANCH   1   3
BRANCH   1   4
ATOM      4  O   UNL     1      10.263   0.522  25.523  0.00  0.00    -0.395 OA
ATOM      5  H   UNL     1       9.344   0.309  25.287  0.00  0.00    +0.209 HD
ENDBRANCH   1   4
TORSDOF 2
ENDMDL
MODEL 7
REMARK VINA RESULT:      -2.2     11.512     11.598
REMARK  Name = 
REMARK  3 active torsions:
REMARK  status: ('A' for Active; 'I' for Inactive)
REMARK    1  A    between atoms: C_1  and  C_2
REMARK    2  A    between atoms: C_2  and  C_3
REMARK    3  A    between atoms: C_3  and  O_4
REMARK                            x       y       z     vdW  Elec       q    Type
REMARK                         _______ _______ _______ _____ _____    ______ ____
ROOT
ATOM      1  C   UNL     1       9.238  -4.937  25.256  0.00  0.00    +0.155 C 
ENDROOT
BRANCH   1   3
ATOM      2  C   UNL     1       7.152  -5.321  26.611  0.00  0.00    +0.006 C 
ATOM      3  C   UNL     1       8.566  -4.767  26.610  0.00  0.00    +0.024 C 
ENDBRANCH   1   3
BRANCH   1   4
ATOM      4  O   UNL     1      10.523  -5.519  25.425  0.00  0.00    -0.395 OA
ATOM      5  H   UNL     1      11.183  -4.834  25.223  0.00  0.00    +0.209 HD
ENDBRANCH   1   4
TORSDOF 2
ENDMDL
MODEL 8
REMARK VINA RESULT:      -2.2     10.518     10.635
REMARK  Name = 
REMARK  3 active torsions:
REMARK  status: ('A' for Active; 'I' for Inactive)
REMARK    1  A    between atoms: C_1  and  C_2
REMARK    2  A    between atoms: C_2  and  C_3
REMARK    3  A    between atoms: C_3  and  O_4
REMARK                            x       y       z     vdW  Elec       q    Type
REMARK                         _______ _______ _______ _____ _____    ______ ____
ROOT
ATOM      1  C   UNL     1       9.245  -4.899  25.678  0.00  0.00    +0.155 C 
ENDROOT
BRANCH   1   3
ATOM      2  C   UNL     1       9.602  -2.938  24.140  0.00  0.00    +0.006 C 
ATOM      3  C   UNL     1       8.761  -4.168  24.434  0.00  0.00    +0.024 C 
ENDBRANCH   1   3
BRANCH   1   4
ATOM      4  O   UNL     1      10.485  -5.539  25.410  0.00  0.00    -0.395 OA
ATOM      5  H   UNL     1      10.286  -6.424  25.060  0.00  0.00    +0.209 HD
ENDBRANCH   1   4
TORSDOF 2
ENDMDL
MODEL 9
REMARK VINA RESULT:      -2.1     12.220     12.386
REMARK  Name = 
REMARK  3 active torsions:
REMARK  status: ('A' for Active; 'I' for Inactive)
REMARK    1  A    between atoms: C_1  and  C_2
REMARK    2  A    between atoms: C_2  and  C_3
REMARK    3  A    between atoms: C_3  and  O_4
REMARK                            x       y       z     vdW  Elec       q    Type
REMARK                         _______ _______ _______ _____ _____    ______ ____
ROOT
ATOM      1  C   UNL     1       7.425  -5.081  23.205  0.00  0.00    +0.155 C 
ENDROOT
BRANCH   1   3
ATOM      2  C   UNL     1       6.302  -5.610  21.015  0.00  0.00    +0.006 C 
ATOM      3  C   UNL     1       7.292  -6.081  22.066  0.00  0.00    +0.024 C 
ENDBRANCH   1   3
BRANCH   1   4
ATOM      4  O   UNL     1       8.636  -5.313  23.911  0.00  0.00    -0.395 OA
ATOM      5  H   UNL     1       9.146  -4.486  23.895  0.00  0.00    +0.209 HD
ENDBRANCH   1   4
TORSDOF 2
ENDMDL
