MODEL 1
REMARK VINA RESULT:      -7.5      0.000      0.000
REMARK  Name = 
REMARK  9 active torsions:
REMARK  status: ('A' for Active; 'I' for Inactive)
REMARK    1  A    between atoms: C_1  and  C_2
REMARK    2  A    between atoms: C_7  and  C_8
REMARK    3  A    between atoms: C_8  and  C_11
REMARK    4  A    between atoms: C_14  and  C_17
REMARK    5  A    between atoms: C_17  and  O_18
REMARK    6  A    between atoms: C_20  and  C_21
REMARK    7  A    between atoms: C_20  and  C_22
REMARK    8  A    between atoms: C_25  and  C_26
REMARK    9  A    between atoms: C_25  and  C_27
REMARK                            x       y       z     vdW  Elec       q    Type
REMARK                         _______ _______ _______ _____ _____    ______ ____
ROOT
ATOM      1  C   UNL     1       9.434  -0.909  21.373  0.00  0.00    +0.044 C 
ATOM      2  C   UNL     1       8.482  -1.357  22.451  0.00  0.00    -0.046 A 
ATOM      3  C   UNL     1       8.282  -0.589  23.619  0.00  0.00    -0.032 A 
ATOM      4  C   UNL     1       7.329  -1.050  24.543  0.00  0.00    +0.009 A 
ATOM      5  C   UNL     1       6.720  -2.314  24.452  0.00  0.00    -0.038 A 
ATOM      6  C   UNL     1       5.831  -2.801  25.602  0.00  0.00    -0.010 C 
ATOM      7  C   UNL     1       5.055  -4.075  25.205  0.00  0.00    +0.012 C 
ATOM      8  C   UNL     1       5.964  -5.108  24.555  0.00  0.00    +0.012 C 
ATOM      9  C   UNL     1       6.588  -4.593  23.238  0.00  0.00    -0.010 C 
ATOM     10  C   UNL     1       5.561  -4.693  22.091  0.00  0.00    +0.016 C 
ATOM     11  C   UNL     1       7.776  -5.538  22.925  0.00  0.00    +0.016 C 
ATOM     12  C   UNL     1       6.731  -3.080  26.828  0.00  0.00    +0.016 C 
ATOM     13  C   UNL     1       4.780  -1.742  26.007  0.00  0.00    +0.016 C 
ATOM     14  C   UNL     1       7.055  -3.140  23.355  0.00  0.00    -0.038 A 
ATOM     15  C   UNL     1       7.869  -2.610  22.340  0.00  0.00    +0.008 A 
ENDROOT
BRANCH   3  16
ATOM     16  C   UNL     1       9.233   0.541  23.995  0.00  0.00    +0.038 C 
ATOM     17  C   UNL     1      10.748   0.447  23.833  0.00  0.00    +0.019 C 
ATOM     18  C   UNL     1      10.144   0.282  25.187  0.00  0.00    +0.019 C 
BRANCH  16  19
ATOM     19  C   UNL     1       8.676   1.941  23.674  0.00  0.00    +0.052 A 
ATOM     20  N   UNL     1       9.043   2.991  24.446  0.00  0.00    -0.258 NA
ATOM     21  C   UNL     1       8.625   4.228  24.080  0.00  0.00    +0.126 A 
ATOM     22  C   UNL     1       7.822   4.486  22.978  0.00  0.00    +0.077 A 
ATOM     23  C   UNL     1       7.395   3.408  22.214  0.00  0.00    +0.018 A 
ATOM     24  C   UNL     1       7.826   2.130  22.569  0.00  0.00    +0.025 A 
BRANCH  22  25
ATOM     25  C   UNL     1       7.567   5.897  22.628  0.00  0.00    +0.338 C 
ATOM     26  O   UNL     1       7.410   6.754  23.480  0.00  0.00    -0.245 OA
BRANCH  25  27
ATOM     27  O   UNL     1       7.524   6.157  21.308  0.00  0.00    -0.477 OA
ATOM     28  H   UNL     1       7.821   5.442  20.718  0.00  0.00    +0.295 HD
ENDBRANCH  25  27
ENDBRANCH  22  25
ENDBRANCH  16  19
ENDBRANCH   3  16
TORSDOF 4
ENDMDL
MODEL 2
REMARK VINA RESULT:      -7.4      2.573      3.965
REMARK  Name = 
REMARK  9 active torsions:
REMARK  status: ('A' for Active; 'I' for Inactive)
REMARK    1  A    between atoms: C_1  and  C_2
REMARK    2  A    between atoms: C_7  and  C_8
REMARK    3  A    between atoms: C_8  and  C_11
REMARK    4  A    between atoms: C_14  and  C_17
REMARK    5  A    between atoms: C_17  and  O_18
REMARK    6  A    between atoms: C_20  and  C_21
REMARK    7  A    between atoms: C_20  and  C_22
REMARK    8  A    between atoms: C_25  and  C_26
REMARK    9  A    between atoms: C_25  and  C_27
REMARK                            x       y       z     vdW  Elec       q    Type
REMARK                         _______ _______ _______ _____ _____    ______ ____
ROOT
ATOM      1  C   UNL     1       7.228   3.101  21.860  0.00  0.00    +0.044 C 
ATOM      2  C   UNL     1       7.281   2.089  22.974  0.00  0.00    -0.046 A 
ATOM      3  C   UNL     1       7.397   2.488  24.324  0.00  0.00    -0.032 A 
ATOM      4  C   UNL     1       7.375   1.481  25.303  0.00  0.00    +0.009 A 
ATOM      5  C   UNL     1       7.436   0.110  24.995  0.00  0.00    -0.038 A 
ATOM      6  C   UNL     1       7.588  -0.906  26.133  0.00  0.00    -0.010 C 
ATOM      7  C   UNL     1       7.374  -2.347  25.625  0.00  0.00    +0.012 C 
ATOM      8  C   UNL     1       8.161  -2.619  24.351  0.00  0.00    +0.012 C 
ATOM      9  C   UNL     1       7.716  -1.712  23.182  0.00  0.00    -0.010 C 
ATOM     10  C   UNL     1       6.414  -2.254  22.558  0.00  0.00    +0.016 C 
ATOM     11  C   UNL     1       8.845  -1.788  22.122  0.00  0.00    +0.016 C 
ATOM     12  C   UNL     1       9.005  -0.754  26.735  0.00  0.00    +0.016 C 
ATOM     13  C   UNL     1       6.558  -0.669  27.261  0.00  0.00    +0.016 C 
ATOM     14  C   UNL     1       7.480  -0.268  23.635  0.00  0.00    -0.038 A 
ATOM     15  C   UNL     1       7.323   0.728  22.655  0.00  0.00    +0.008 A 
ENDROOT
BRANCH   3  16
ATOM     16  C   UNL     1       7.794   3.913  24.696  0.00  0.00    +0.038 C 
ATOM     17  C   UNL     1       7.364   4.587  25.996  0.00  0.00    +0.019 C 
ATOM     18  C   UNL     1       6.668   4.936  24.724  0.00  0.00    +0.019 C 
BRANCH  16  19
ATOM     19  C   UNL     1       9.229   4.278  24.271  0.00  0.00    +0.052 A 
ATOM     20  N   UNL     1      10.083   3.290  23.910  0.00  0.00    -0.258 NA
ATOM     21  C   UNL     1      11.304   3.643  23.440  0.00  0.00    +0.126 A 
ATOM     22  C   UNL     1      11.748   4.953  23.327  0.00  0.00    +0.077 A 
ATOM     23  C   UNL     1      10.900   5.969  23.748  0.00  0.00    +0.018 A 
ATOM     24  C   UNL     1       9.635   5.624  24.223  0.00  0.00    +0.025 A 
BRANCH  22  25
ATOM     25  C   UNL     1      13.047   5.184  22.665  0.00  0.00    +0.338 C 
ATOM     26  O   UNL     1      13.123   5.613  21.528  0.00  0.00    -0.245 OA
BRANCH  25  27
ATOM     27  O   UNL     1      14.127   4.884  23.412  0.00  0.00    -0.477 OA
ATOM     28  H   UNL     1      14.993   4.988  22.978  0.00  0.00    +0.295 HD
ENDBRANCH  25  27
ENDBRANCH  22  25
ENDBRANCH  16  19
ENDBRANCH   3  16
TORSDOF 4
ENDMDL
MODEL 3
REMARK VINA RESULT:      -7.3      4.568      8.073
REMARK  Name = 
REMARK  9 active torsions:
REMARK  status: ('A' for Active; 'I' for Inactive)
REMARK    1  A    between atoms: C_1  and  C_2
REMARK    2  A    between atoms: C_7  and  C_8
REMARK    3  A    between atoms: C_8  and  C_11
REMARK    4  A    between atoms: C_14  and  C_17
REMARK    5  A    between atoms: C_17  and  O_18
REMARK    6  A    between atoms: C_20  and  C_21
REMARK    7  A    between atoms: C_20  and  C_22
REMARK    8  A    between atoms: C_25  and  C_26
REMARK    9  A    between atoms: C_25  and  C_27
REMARK                            x       y       z     vdW  Elec       q    Type
REMARK                         _______ _______ _______ _____ _____    ______ ____
ROOT
ATOM      1  C   UNL     1       4.402  -2.759  24.930  0.00  0.00    +0.044 C 
ATOM      2  C   UNL     1       5.630  -2.094  24.367  0.00  0.00    -0.046 A 
ATOM      3  C   UNL     1       6.571  -2.818  23.603  0.00  0.00    -0.032 A 
ATOM      4  C   UNL     1       7.655  -2.105  23.063  0.00  0.00    +0.009 A 
ATOM      5  C   UNL     1       7.942  -0.771  23.403  0.00  0.00    -0.038 A 
ATOM      6  C   UNL     1       9.244  -0.135  22.905  0.00  0.00    -0.010 C 
ATOM      7  C   UNL     1       9.252   1.387  23.156  0.00  0.00    +0.012 C 
ATOM      8  C   UNL     1       8.823   1.726  24.575  0.00  0.00    +0.012 C 
ATOM      9  C   UNL     1       7.373   1.280  24.871  0.00  0.00    -0.010 C 
ATOM     10  C   UNL     1       6.375   2.290  24.268  0.00  0.00    +0.016 C 
ATOM     11  C   UNL     1       7.223   1.293  26.414  0.00  0.00    +0.016 C 
ATOM     12  C   UNL     1      10.427  -0.808  23.640  0.00  0.00    +0.016 C 
ATOM     13  C   UNL     1       9.443  -0.342  21.385  0.00  0.00    +0.016 C 
ATOM     14  C   UNL     1       7.073  -0.108  24.299  0.00  0.00    -0.038 A 
ATOM     15  C   UNL     1       5.895  -0.762  24.699  0.00  0.00    +0.008 A 
ENDROOT
BRANCH   3  16
ATOM     16  C   UNL     1       6.567  -4.343  23.579  0.00  0.00    +0.038 C 
ATOM     17  C   UNL     1       7.357  -5.165  22.565  0.00  0.00    +0.019 C 
ATOM     18  C   UNL     1       5.886  -4.992  22.383  0.00  0.00    +0.019 C 
BRANCH  16  19
ATOM     19  C   UNL     1       6.544  -4.975  24.984  0.00  0.00    +0.052 A 
ATOM     20  N   UNL     1       7.512  -4.646  25.872  0.00  0.00    -0.258 NA
ATOM     21  C   UNL     1       7.411  -5.132  27.134  0.00  0.00    +0.126 A 
ATOM     22  C   UNL     1       6.393  -5.968  27.569  0.00  0.00    +0.077 A 
ATOM     23  C   UNL     1       5.428  -6.355  26.649  0.00  0.00    +0.018 A 
ATOM     24  C   UNL     1       5.509  -5.855  25.350  0.00  0.00    +0.025 A 
BRANCH  22  25
ATOM     25  C   UNL     1       6.342  -6.299  29.007  0.00  0.00    +0.338 C 
ATOM     26  O   UNL     1       5.943  -5.503  29.838  0.00  0.00    -0.245 OA
BRANCH  25  27
ATOM     27  O   UNL     1       6.770  -7.537  29.321  0.00  0.00    -0.477 OA
ATOM     28  H   UNL     1       7.573  -7.844  28.864  0.00  0.00    +0.295 HD
ENDBRANCH  25  27
ENDBRANCH  22  25
ENDBRANCH  16  19
ENDBRANCH   3  16
TORSDOF 4
ENDMDL
MODEL 4
REMARK VINA RESULT:      -7.2      2.912      4.746
REMARK  Name = 
REMARK  9 active torsions:
REMARK  status: ('A' for Active; 'I' for Inactive)
REMARK    1  A    between atoms: C_1  and  C_2
REMARK    2  A    between atoms: C_7  and  C_8
REMARK    3  A    between atoms: C_8  and  C_11
REMARK    4  A    between atoms: C_14  and  C_17
REMARK    5  A    between atoms: C_17  and  O_18
REMARK    6  A    between atoms: C_20  and  C_21
REMARK    7  A    between atoms: C_20  and  C_22
REMARK    8  A    between atoms: C_25  and  C_26
REMARK    9  A    between atoms: C_25  and  C_27
REMARK                            x       y       z     vdW  Elec       q    Type
REMARK                         _______ _______ _______ _____ _____    ______ ____
ROOT
ATOM      1  C   UNL     1       7.063  -5.775  22.129  0.00  0.00    +0.044 C 
ATOM      2  C   UNL     1       6.092  -5.268  23.162  0.00  0.00    -0.046 A 
ATOM      3  C   UNL     1       6.503  -4.385  24.185  0.00  0.00    -0.032 A 
ATOM      4  C   UNL     1       5.519  -3.911  25.068  0.00  0.00    +0.009 A 
ATOM      5  C   UNL     1       4.207  -4.417  25.098  0.00  0.00    -0.038 A 
ATOM      6  C   UNL     1       3.257  -3.968  26.214  0.00  0.00    -0.010 C 
ATOM      7  C   UNL     1       1.809  -4.420  25.928  0.00  0.00    +0.012 C 
ATOM      8  C   UNL     1       1.746  -5.885  25.522  0.00  0.00    +0.012 C 
ATOM      9  C   UNL     1       2.518  -6.163  24.212  0.00  0.00    -0.010 C 
ATOM     10  C   UNL     1       1.671  -5.732  22.997  0.00  0.00    +0.016 C 
ATOM     11  C   UNL     1       2.728  -7.698  24.153  0.00  0.00    +0.016 C 
ATOM     12  C   UNL     1       3.755  -4.570  27.549  0.00  0.00    +0.016 C 
ATOM     13  C   UNL     1       3.227  -2.429  26.362  0.00  0.00    +0.016 C 
ATOM     14  C   UNL     1       3.856  -5.421  24.167  0.00  0.00    -0.038 A 
ATOM     15  C   UNL     1       4.785  -5.766  23.171  0.00  0.00    +0.008 A 
ENDROOT
BRANCH   3  16
ATOM     16  C   UNL     1       7.980  -4.158  24.488  0.00  0.00    +0.038 C 
ATOM     17  C   UNL     1       8.999  -5.292  24.576  0.00  0.00    +0.019 C 
ATOM     18  C   UNL     1       8.476  -4.676  25.830  0.00  0.00    +0.019 C 
BRANCH  16  19
ATOM     19  C   UNL     1       8.549  -2.884  23.835  0.00  0.00    +0.052 A 
ATOM     20  N   UNL     1       8.287  -2.637  22.530  0.00  0.00    -0.258 NA
ATOM     21  C   UNL     1       8.708  -1.459  22.006  0.00  0.00    +0.126 A 
ATOM     22  C   UNL     1       9.415  -0.498  22.716  0.00  0.00    +0.077 A 
ATOM     23  C   UNL     1       9.736  -0.769  24.039  0.00  0.00    +0.018 A 
ATOM     24  C   UNL     1       9.301  -1.970  24.597  0.00  0.00    +0.025 A 
BRANCH  22  25
ATOM     25  C   UNL     1       9.680   0.791  22.049  0.00  0.00    +0.338 C 
ATOM     26  O   UNL     1      10.444   1.616  22.521  0.00  0.00    -0.245 OA
BRANCH  25  27
ATOM     27  O   UNL     1       9.018   0.981  20.893  0.00  0.00    -0.477 OA
ATOM     28  H   UNL     1       8.569   0.201  20.521  0.00  0.00    +0.295 HD
ENDBRANCH  25  27
ENDBRANCH  22  25
ENDBRANCH  16  19
ENDBRANCH   3  16
TORSDOF 4
ENDMDL
MODEL 5
REMARK VINA RESULT:      -7.2      4.128      7.696
REMARK  Name = 
REMARK  9 active torsions:
REMARK  status: ('A' for Active; 'I' for Inactive)
REMARK    1  A    between atoms: C_1  and  C_2
REMARK    2  A    between atoms: C_7  and  C_8
REMARK    3  A    between atoms: C_8  and  C_11
REMARK    4  A    between atoms: C_14  and  C_17
REMARK    5  A    between atoms: C_17  and  O_18
REMARK    6  A    between atoms: C_20  and  C_21
REMARK    7  A    between atoms: C_20  and  C_22
REMARK    8  A    between atoms: C_25  and  C_26
REMARK    9  A    between atoms: C_25  and  C_27
REMARK                            x       y       z     vdW  Elec       q    Type
REMARK                         _______ _______ _______ _____ _____    ______ ____
ROOT
ATOM      1  C   UNL     1      11.132   0.738  24.502  0.00  0.00    +0.044 C 
ATOM      2  C   UNL     1       9.751   1.324  24.370  0.00  0.00    -0.046 A 
ATOM      3  C   UNL     1       8.654   0.533  23.964  0.00  0.00    -0.032 A 
ATOM      4  C   UNL     1       7.391   1.147  23.928  0.00  0.00    +0.009 A 
ATOM      5  C   UNL     1       7.204   2.531  24.087  0.00  0.00    -0.038 A 
ATOM      6  C   UNL     1       5.813   3.132  23.853  0.00  0.00    -0.010 C 
ATOM      7  C   UNL     1       5.753   4.599  24.326  0.00  0.00    +0.012 C 
ATOM      8  C   UNL     1       6.941   5.403  23.820  0.00  0.00    +0.012 C 
ATOM      9  C   UNL     1       8.286   4.864  24.359  0.00  0.00    -0.010 C 
ATOM     10  C   UNL     1       8.506   5.345  25.807  0.00  0.00    +0.016 C 
ATOM     11  C   UNL     1       9.389   5.477  23.458  0.00  0.00    +0.016 C 
ATOM     12  C   UNL     1       5.492   3.040  22.342  0.00  0.00    +0.016 C 
ATOM     13  C   UNL     1       4.716   2.364  24.626  0.00  0.00    +0.016 C 
ATOM     14  C   UNL     1       8.340   3.334  24.335  0.00  0.00    -0.038 A 
ATOM     15  C   UNL     1       9.577   2.701  24.548  0.00  0.00    +0.008 A 
ENDROOT
BRANCH   3  16
ATOM     16  C   UNL     1       8.858  -0.843  23.340  0.00  0.00    +0.038 C 
ATOM     17  C   UNL     1      10.097  -1.217  22.530  0.00  0.00    +0.019 C 
ATOM     18  C   UNL     1       8.823  -0.901  21.820  0.00  0.00    +0.019 C 
BRANCH  16  19
ATOM     19  C   UNL     1       8.340  -1.996  24.220  0.00  0.00    +0.052 A 
ATOM     20  N   UNL     1       7.562  -2.954  23.663  0.00  0.00    -0.258 NA
ATOM     21  C   UNL     1       7.205  -4.012  24.432  0.00  0.00    +0.126 A 
ATOM     22  C   UNL     1       7.565  -4.166  25.763  0.00  0.00    +0.077 A 
ATOM     23  C   UNL     1       8.316  -3.160  26.357  0.00  0.00    +0.018 A 
ATOM     24  C   UNL     1       8.702  -2.070  25.578  0.00  0.00    +0.025 A 
BRANCH  22  25
ATOM     25  C   UNL     1       7.221  -5.440  26.426  0.00  0.00    +0.338 C 
ATOM     26  O   UNL     1       6.268  -6.112  26.073  0.00  0.00    -0.245 OA
BRANCH  25  27
ATOM     27  O   UNL     1       8.035  -5.792  27.439  0.00  0.00    -0.477 OA
ATOM     28  H   UNL     1       8.482  -6.653  27.353  0.00  0.00    +0.295 HD
ENDBRANCH  25  27
ENDBRANCH  22  25
ENDBRANCH  16  19
ENDBRANCH   3  16
TORSDOF 4
ENDMDL
MODEL 6
REMARK VINA RESULT:      -7.0      4.782      8.176
REMARK  Name = 
REMARK  9 active torsions:
REMARK  status: ('A' for Active; 'I' for Inactive)
REMARK    1  A    between atoms: C_1  and  C_2
REMARK    2  A    between atoms: C_7  and  C_8
REMARK    3  A    between atoms: C_8  and  C_11
REMARK    4  A    between atoms: C_14  and  C_17
REMARK    5  A    between atoms: C_17  and  O_18
REMARK    6  A    between atoms: C_20  and  C_21
REMARK    7  A    between atoms: C_20  and  C_22
REMARK    8  A    between atoms: C_25  and  C_26
REMARK    9  A    between atoms: C_25  and  C_27
REMARK                            x       y       z     vdW  Elec       q    Type
REMARK                         _______ _______ _______ _____ _____    ______ ____
ROOT
ATOM      1  C   UNL     1       5.120  -2.336  25.942  0.00  0.00    +0.044 C 
ATOM      2  C   UNL     1       6.176  -1.731  25.055  0.00  0.00    -0.046 A 
ATOM      3  C   UNL     1       7.247  -2.505  24.557  0.00  0.00    -0.032 A 
ATOM      4  C   UNL     1       8.152  -1.876  23.686  0.00  0.00    +0.009 A 
ATOM      5  C   UNL     1       8.151  -0.491  23.447  0.00  0.00    -0.038 A 
ATOM      6  C   UNL     1       9.286   0.129  22.625  0.00  0.00    -0.010 C 
ATOM      7  C   UNL     1       8.972   1.593  22.255  0.00  0.00    +0.012 C 
ATOM      8  C   UNL     1       8.485   2.386  23.459  0.00  0.00    +0.012 C 
ATOM      9  C   UNL     1       7.164   1.827  24.034  0.00  0.00    -0.010 C 
ATOM     10  C   UNL     1       5.973   2.295  23.174  0.00  0.00    +0.016 C 
ATOM     11  C   UNL     1       7.021   2.432  25.454  0.00  0.00    +0.016 C 
ATOM     12  C   UNL     1      10.588   0.052  23.457  0.00  0.00    +0.016 C 
ATOM     13  C   UNL     1       9.519  -0.631  21.298  0.00  0.00    +0.016 C 
ATOM     14  C   UNL     1       7.165   0.296  24.084  0.00  0.00    -0.038 A 
ATOM     15  C   UNL     1       6.153  -0.354  24.811  0.00  0.00    +0.008 A 
ENDROOT
BRANCH   3  16
ATOM     16  C   UNL     1       7.567  -3.879  25.136  0.00  0.00    +0.038 C 
ATOM     17  C   UNL     1       8.267  -4.078  26.478  0.00  0.00    +0.019 C 
ATOM     18  C   UNL     1       9.041  -4.247  25.214  0.00  0.00    +0.019 C 
BRANCH  16  19
ATOM     19  C   UNL     1       6.470  -4.926  24.864  0.00  0.00    +0.052 A 
ATOM     20  N   UNL     1       5.981  -5.654  25.897  0.00  0.00    -0.258 NA
ATOM     21  C   UNL     1       4.945  -6.493  25.651  0.00  0.00    +0.126 A 
ATOM     22  C   UNL     1       4.366  -6.674  24.403  0.00  0.00    +0.077 A 
ATOM     23  C   UNL     1       4.898  -5.973  23.329  0.00  0.00    +0.018 A 
ATOM     24  C   UNL     1       5.957  -5.097  23.565  0.00  0.00    +0.025 A 
BRANCH  22  25
ATOM     25  C   UNL     1       3.155  -7.514  24.322  0.00  0.00    +0.338 C 
ATOM     26  O   UNL     1       2.270  -7.293  23.514  0.00  0.00    -0.245 OA
BRANCH  25  27
ATOM     27  O   UNL     1       3.107  -8.530  25.204  0.00  0.00    -0.477 OA
ATOM     28  H   UNL     1       2.819  -8.304  26.106  0.00  0.00    +0.295 HD
ENDBRANCH  25  27
ENDBRANCH  22  25
ENDBRANCH  16  19
ENDBRANCH   3  16
TORSDOF 4
ENDMDL
MODEL 7
REMARK VINA RESULT:      -7.0      4.684      7.702
REMARK  Name = 
REMARK  9 active torsions:
REMARK  status: ('A' for Active; 'I' for Inactive)
REMARK    1  A    between atoms: C_1  and  C_2
REMARK    2  A    between atoms: C_7  and  C_8
REMARK    3  A    between atoms: C_8  and  C_11
REMARK    4  A    between atoms: C_14  and  C_17
REMARK    5  A    between atoms: C_17  and  O_18
REMARK    6  A    between atoms: C_20  and  C_21
REMARK    7  A    between atoms: C_20  and  C_22
REMARK    8  A    between atoms: C_25  and  C_26
REMARK    9  A    between atoms: C_25  and  C_27
REMARK                            x       y       z     vdW  Elec       q    Type
REMARK                         _______ _______ _______ _____ _____    ______ ____
ROOT
ATOM      1  C   UNL     1       9.046  -5.263  24.861  0.00  0.00    +0.044 C 
ATOM      2  C   UNL     1       8.580  -3.844  25.057  0.00  0.00    -0.046 A 
ATOM      3  C   UNL     1       7.510  -3.537  25.927  0.00  0.00    -0.032 A 
ATOM      4  C   UNL     1       7.182  -2.182  26.099  0.00  0.00    +0.009 A 
ATOM      5  C   UNL     1       7.732  -1.154  25.313  0.00  0.00    -0.038 A 
ATOM      6  C   UNL     1       7.181   0.270  25.451  0.00  0.00    -0.010 C 
ATOM      7  C   UNL     1       8.075   1.288  24.713  0.00  0.00    +0.012 C 
ATOM      8  C   UNL     1       8.419   0.819  23.307  0.00  0.00    +0.012 C 
ATOM      9  C   UNL     1       9.230  -0.497  23.310  0.00  0.00    -0.010 C 
ATOM     10  C   UNL     1      10.709  -0.207  23.635  0.00  0.00    +0.016 C 
ATOM     11  C   UNL     1       9.139  -1.064  21.870  0.00  0.00    +0.016 C 
ATOM     12  C   UNL     1       5.746   0.295  24.873  0.00  0.00    +0.016 C 
ATOM     13  C   UNL     1       7.111   0.721  26.929  0.00  0.00    +0.016 C 
ATOM     14  C   UNL     1       8.688  -1.500  24.333  0.00  0.00    -0.038 A 
ATOM     15  C   UNL     1       9.147  -2.828  24.282  0.00  0.00    +0.008 A 
ENDROOT
BRANCH   3  16
ATOM     16  C   UNL     1       6.580  -4.625  26.452  0.00  0.00    +0.038 C 
ATOM     17  C   UNL     1       6.064  -4.662  27.889  0.00  0.00    +0.019 C 
ATOM     18  C   UNL     1       7.174  -5.574  27.484  0.00  0.00    +0.019 C 
BRANCH  16  19
ATOM     19  C   UNL     1       5.531  -5.082  25.421  0.00  0.00    +0.052 A 
ATOM     20  N   UNL     1       5.241  -6.401  25.313  0.00  0.00    -0.258 NA
ATOM     21  C   UNL     1       4.241  -6.767  24.474  0.00  0.00    +0.126 A 
ATOM     22  C   UNL     1       3.509  -5.880  23.698  0.00  0.00    +0.077 A 
ATOM     23  C   UNL     1       3.838  -4.532  23.761  0.00  0.00    +0.018 A 
ATOM     24  C   UNL     1       4.856  -4.136  24.627  0.00  0.00    +0.025 A 
BRANCH  22  25
ATOM     25  C   UNL     1       2.359  -6.414  22.942  0.00  0.00    +0.338 C 
ATOM     26  O   UNL     1       1.486  -5.689  22.500  0.00  0.00    -0.245 OA
BRANCH  25  27
ATOM     27  O   UNL     1       2.353  -7.751  22.785  0.00  0.00    -0.477 OA
ATOM     28  H   UNL     1       2.991  -8.112  22.144  0.00  0.00    +0.295 HD
ENDBRANCH  25  27
ENDBRANCH  22  25
ENDBRANCH  16  19
ENDBRANCH   3  16
TORSDOF 4
ENDMDL
MODEL 8
REMARK VINA RESULT:      -6.9      1.483      3.041
REMARK  Name = 
REMARK  9 active torsions:
REMARK  status: ('A' for Active; 'I' for Inactive)
REMARK    1  A    between atoms: C_1  and  C_2
REMARK    2  A    between atoms: C_7  and  C_8
REMARK    3  A    between atoms: C_8  and  C_11
REMARK    4  A    between atoms: C_14  and  C_17
REMARK    5  A    between atoms: C_17  and  O_18
REMARK    6  A    between atoms: C_20  and  C_21
REMARK    7  A    between atoms: C_20  and  C_22
REMARK    8  A    between atoms: C_25  and  C_26
REMARK    9  A    between atoms: C_25  and  C_27
REMARK                            x       y       z     vdW  Elec       q    Type
REMARK                         _______ _______ _______ _____ _____    ______ ____
ROOT
ATOM      1  C   UNL     1       9.444  -0.531  25.920  0.00  0.00    +0.044 C 
ATOM      2  C   UNL     1       8.693  -1.640  25.231  0.00  0.00    -0.046 A 
ATOM      3  C   UNL     1       8.641  -1.727  23.823  0.00  0.00    -0.032 A 
ATOM      4  C   UNL     1       7.972  -2.829  23.265  0.00  0.00    +0.009 A 
ATOM      5  C   UNL     1       7.202  -3.726  24.026  0.00  0.00    -0.038 A 
ATOM      6  C   UNL     1       6.363  -4.789  23.309  0.00  0.00    -0.010 C 
ATOM      7  C   UNL     1       5.807  -5.827  24.306  0.00  0.00    +0.012 C 
ATOM      8  C   UNL     1       5.176  -5.160  25.519  0.00  0.00    +0.012 C 
ATOM      9  C   UNL     1       6.199  -4.333  26.331  0.00  0.00    -0.010 C 
ATOM     10  C   UNL     1       7.050  -5.266  27.217  0.00  0.00    +0.016 C 
ATOM     11  C   UNL     1       5.369  -3.398  27.248  0.00  0.00    +0.016 C 
ATOM     12  C   UNL     1       5.204  -4.078  22.570  0.00  0.00    +0.016 C 
ATOM     13  C   UNL     1       7.193  -5.570  22.263  0.00  0.00    +0.016 C 
ATOM     14  C   UNL     1       7.134  -3.529  25.424  0.00  0.00    -0.038 A 
ATOM     15  C   UNL     1       7.944  -2.536  26.002  0.00  0.00    +0.008 A 
ENDROOT
BRANCH   3  16
ATOM     16  C   UNL     1       9.057  -0.554  22.942  0.00  0.00    +0.038 C 
ATOM     17  C   UNL     1       9.486  -0.713  21.486  0.00  0.00    +0.019 C 
ATOM     18  C   UNL     1      10.523  -0.506  22.538  0.00  0.00    +0.019 C 
BRANCH  16  19
ATOM     19  C   UNL     1       8.229   0.721  23.193  0.00  0.00    +0.052 A 
ATOM     20  N   UNL     1       8.871   1.896  23.399  0.00  0.00    -0.258 NA
ATOM     21  C   UNL     1       8.123   3.020  23.512  0.00  0.00    +0.126 A 
ATOM     22  C   UNL     1       6.736   3.044  23.456  0.00  0.00    +0.077 A 
ATOM     23  C   UNL     1       6.068   1.836  23.302  0.00  0.00    +0.018 A 
ATOM     24  C   UNL     1       6.823   0.671  23.172  0.00  0.00    +0.025 A 
BRANCH  22  25
ATOM     25  C   UNL     1       6.070   4.361  23.453  0.00  0.00    +0.338 C 
ATOM     26  O   UNL     1       5.843   4.971  24.484  0.00  0.00    -0.245 OA
BRANCH  25  27
ATOM     27  O   UNL     1       5.738   4.827  22.235  0.00  0.00    -0.477 OA
ATOM     28  H   UNL     1       5.608   4.159  21.539  0.00  0.00    +0.295 HD
ENDBRANCH  25  27
ENDBRANCH  22  25
ENDBRANCH  16  19
ENDBRANCH   3  16
TORSDOF 4
ENDMDL
MODEL 9
REMARK VINA RESULT:      -6.9      2.848      5.489
REMARK  Name = 
REMARK  9 active torsions:
REMARK  status: ('A' for Active; 'I' for Inactive)
REMARK    1  A    between atoms: C_1  and  C_2
REMARK    2  A    between atoms: C_7  and  C_8
REMARK    3  A    between atoms: C_8  and  C_11
REMARK    4  A    between atoms: C_14  and  C_17
REMARK    5  A    between atoms: C_17  and  O_18
REMARK    6  A    between atoms: C_20  and  C_21
REMARK    7  A    between atoms: C_20  and  C_22
REMARK    8  A    between atoms: C_25  and  C_26
REMARK    9  A    between atoms: C_25  and  C_27
REMARK                            x       y       z     vdW  Elec       q    Type
REMARK                         _______ _______ _______ _____ _____    ______ ____
ROOT
ATOM      1  C   UNL     1       8.457  -5.158  25.134  0.00  0.00    +0.044 C 
ATOM      2  C   UNL     1       6.957  -5.290  25.185  0.00  0.00    -0.046 A 
ATOM      3  C   UNL     1       6.175  -5.236  24.010  0.00  0.00    -0.032 A 
ATOM      4  C   UNL     1       4.791  -5.432  24.143  0.00  0.00    +0.009 A 
ATOM      5  C   UNL     1       4.139  -5.485  25.388  0.00  0.00    -0.038 A 
ATOM      6  C   UNL     1       2.607  -5.520  25.430  0.00  0.00    -0.010 C 
ATOM      7  C   UNL     1       2.096  -5.837  26.851  0.00  0.00    +0.012 C 
ATOM      8  C   UNL     1       2.792  -4.987  27.903  0.00  0.00    +0.012 C 
ATOM      9  C   UNL     1       4.313  -5.251  27.958  0.00  0.00    -0.010 C 
ATOM     10  C   UNL     1       4.598  -6.550  28.739  0.00  0.00    +0.016 C 
ATOM     11  C   UNL     1       4.931  -4.059  28.732  0.00  0.00    +0.016 C 
ATOM     12  C   UNL     1       2.075  -4.144  24.963  0.00  0.00    +0.016 C 
ATOM     13  C   UNL     1       2.028  -6.603  24.491  0.00  0.00    +0.016 C 
ATOM     14  C   UNL     1       4.923  -5.375  26.558  0.00  0.00    -0.038 A 
ATOM     15  C   UNL     1       6.322  -5.359  26.429  0.00  0.00    +0.008 A 
ENDROOT
BRANCH   3  16
ATOM     16  C   UNL     1       6.757  -4.729  22.695  0.00  0.00    +0.038 C 
ATOM     17  C   UNL     1       6.214  -5.140  21.328  0.00  0.00    +0.019 C 
ATOM     18  C   UNL     1       7.471  -5.763  21.836  0.00  0.00    +0.019 C 
BRANCH  16  19
ATOM     19  C   UNL     1       7.202  -3.256  22.752  0.00  0.00    +0.052 A 
ATOM     20  N   UNL     1       8.445  -2.924  22.329  0.00  0.00    -0.258 NA
ATOM     21  C   UNL     1       8.775  -1.610  22.290  0.00  0.00    +0.126 A 
ATOM     22  C   UNL     1       7.930  -0.580  22.680  0.00  0.00    +0.077 A 
ATOM     23  C   UNL     1       6.674  -0.916  23.167  0.00  0.00    +0.018 A 
ATOM     24  C   UNL     1       6.313  -2.263  23.204  0.00  0.00    +0.025 A 
BRANCH  22  25
ATOM     25  C   UNL     1       8.381   0.805  22.445  0.00  0.00    +0.338 C 
ATOM     26  O   UNL     1       8.291   1.666  23.303  0.00  0.00    -0.245 OA
BRANCH  25  27
ATOM     27  O   UNL     1       8.892   1.038  21.222  0.00  0.00    -0.477 OA
ATOM     28  H   UNL     1       8.251   1.256  20.522  0.00  0.00    +0.295 HD
ENDBRANCH  25  27
ENDBRANCH  22  25
ENDBRANCH  16  19
ENDBRANCH   3  16
TORSDOF 4
ENDMDL
