MODEL 1
REMARK VINA RESULT:      -6.2      0.000      0.000
REMARK  Name = 
REMARK  6 active torsions:
REMARK  status: ('A' for Active; 'I' for Inactive)
REMARK    1  A    between atoms: C_1  and  C_2
REMARK    2  A    between atoms: C_2  and  C_3
REMARK    3  A    between atoms: C_2  and  C_4
REMARK    4  A    between atoms: C_4  and  C_6
REMARK    5  A    between atoms: C_6  and  O_7
REMARK    6  A    between atoms: O_7  and  C_8
REMARK                            x       y       z     vdW  Elec       q    Type
REMARK                         _______ _______ _______ _____ _____    ______ ____
ROOT
ATOM      1  C   UNL     1       8.835  -4.092  24.494  0.00  0.00    +0.246 A 
ATOM      2  C   UNL     1       7.766  -4.275  23.656  0.00  0.00    +0.147 A 
ATOM      3  N   UNL     1       7.457  -3.892  22.383  0.00  0.00    -0.339 N 
ATOM      4  H   UNL     1       8.035  -3.329  21.773  0.00  0.00    +0.167 HD
ATOM      5  C   UNL     1       6.226  -4.415  22.091  0.00  0.00    +0.199 A 
ATOM      6  N   UNL     1       5.736  -5.103  23.100  0.00  0.00    -0.216 NA
ATOM      7  C   UNL     1       6.687  -5.017  24.084  0.00  0.00    +0.186 A 
ATOM      8  N   UNL     1       6.617  -5.580  25.301  0.00  0.00    -0.193 NA
ATOM      9  C   UNL     1       7.685  -5.338  26.064  0.00  0.00    +0.218 A 
ATOM     10  N   UNL     1       7.695  -5.904  27.326  0.00  0.00    -0.327 N 
ATOM     11  H   UNL     1       7.077  -6.705  27.340  0.00  0.00    +0.145 HD
ATOM     12  H   UNL     1       8.645  -6.046  27.634  0.00  0.00    +0.145 HD
ATOM     13  N   UNL     1       8.784  -4.647  25.719  0.00  0.00    -0.178 NA
ENDROOT
BRANCH   1  14
ATOM     14  O   UNL     1       9.931  -3.375  24.081  0.00  0.00    -0.467 OA
BRANCH  14  15
ATOM     15  C   UNL     1       9.756  -1.970  24.236  0.00  0.00    +0.305 C 
BRANCH  15  16
ATOM     16  C   UNL     1       9.973  -1.274  22.896  0.00  0.00    +0.173 C 
ATOM     17  O   UNL     1       9.767  -1.834  21.818  0.00  0.00    -0.294 OA
BRANCH  16  19
ATOM     18  C   UNL     1       9.707   1.028  21.928  0.00  0.00    +0.015 C 
ATOM     19  C   UNL     1      10.440   0.180  22.964  0.00  0.00    +0.053 C 
ATOM     20  C   UNL     1      10.221   0.726  24.369  0.00  0.00    +0.015 C 
ENDBRANCH  16  19
ENDBRANCH  15  16
ENDBRANCH  14  15
ENDBRANCH   1  14
TORSDOF 4
ENDMDL
MODEL 2
REMARK VINA RESULT:      -6.1      1.567      1.778
REMARK  Name = 
REMARK  6 active torsions:
REMARK  status: ('A' for Active; 'I' for Inactive)
REMARK    1  A    between atoms: C_1  and  C_2
REMARK    2  A    between atoms: C_2  and  C_3
REMARK    3  A    between atoms: C_2  and  C_4
REMARK    4  A    between atoms: C_4  and  C_6
REMARK    5  A    between atoms: C_6  and  O_7
REMARK    6  A    between atoms: O_7  and  C_8
REMARK                            x       y       z     vdW  Elec       q    Type
REMARK                         _______ _______ _______ _____ _____    ______ ____
ROOT
ATOM      1  C   UNL     1       8.801  -2.500  24.081  0.00  0.00    +0.246 A 
ATOM      2  C   UNL     1       7.883  -3.086  23.249  0.00  0.00    +0.147 A 
ATOM      3  N   UNL     1       6.985  -2.632  22.326  0.00  0.00    -0.339 N 
ATOM      4  H   UNL     1       6.821  -1.665  22.079  0.00  0.00    +0.167 HD
ATOM      5  C   UNL     1       6.359  -3.730  21.799  0.00  0.00    +0.199 A 
ATOM      6  N   UNL     1       6.801  -4.848  22.333  0.00  0.00    -0.216 NA
ATOM      7  C   UNL     1       7.749  -4.457  23.243  0.00  0.00    +0.186 A 
ATOM      8  N   UNL     1       8.477  -5.270  24.025  0.00  0.00    -0.193 NA
ATOM      9  C   UNL     1       9.332  -4.624  24.820  0.00  0.00    +0.218 A 
ATOM     10  N   UNL     1      10.133  -5.398  25.640  0.00  0.00    -0.327 N 
ATOM     11  H   UNL     1      10.213  -6.328  25.251  0.00  0.00    +0.145 HD
ATOM     12  H   UNL     1      10.990  -4.907  25.850  0.00  0.00    +0.145 HD
ATOM     13  N   UNL     1       9.540  -3.298  24.873  0.00  0.00    -0.178 NA
ENDROOT
BRANCH   1  14
ATOM     14  O   UNL     1       8.968  -1.137  24.088  0.00  0.00    -0.467 OA
BRANCH  14  15
ATOM     15  C   UNL     1      10.127  -0.722  23.372  0.00  0.00    +0.305 C 
BRANCH  15  16
ATOM     16  C   UNL     1       9.716  -0.097  22.043  0.00  0.00    +0.173 C 
ATOM     17  O   UNL     1       9.337  -0.772  21.084  0.00  0.00    -0.294 OA
BRANCH  16  19
ATOM     18  C   UNL     1       8.379   2.011  21.761  0.00  0.00    +0.015 C 
ATOM     19  C   UNL     1       9.774   1.428  21.972  0.00  0.00    +0.053 C 
ATOM     20  C   UNL     1      10.408   1.978  23.243  0.00  0.00    +0.015 C 
ENDBRANCH  16  19
ENDBRANCH  15  16
ENDBRANCH  14  15
ENDBRANCH   1  14
TORSDOF 4
ENDMDL
MODEL 3
REMARK VINA RESULT:      -5.7      2.375      4.687
REMARK  Name = 
REMARK  6 active torsions:
REMARK  status: ('A' for Active; 'I' for Inactive)
REMARK    1  A    between atoms: C_1  and  C_2
REMARK    2  A    between atoms: C_2  and  C_3
REMARK    3  A    between atoms: C_2  and  C_4
REMARK    4  A    between atoms: C_4  and  C_6
REMARK    5  A    between atoms: C_6  and  O_7
REMARK    6  A    between atoms: O_7  and  C_8
REMARK                            x       y       z     vdW  Elec       q    Type
REMARK                         _______ _______ _______ _____ _____    ______ ____
ROOT
ATOM      1  C   UNL     1       7.207  -2.981  24.364  0.00  0.00    +0.246 A 
ATOM      2  C   UNL     1       8.185  -2.485  23.543  0.00  0.00    +0.147 A 
ATOM      3  N   UNL     1       8.224  -1.579  22.523  0.00  0.00    -0.339 N 
ATOM      4  H   UNL     1       7.436  -1.066  22.150  0.00  0.00    +0.167 HD
ATOM      5  C   UNL     1       9.526  -1.494  22.108  0.00  0.00    +0.199 A 
ATOM      6  N   UNL     1      10.312  -2.293  22.799  0.00  0.00    -0.216 NA
ATOM      7  C   UNL     1       9.484  -2.919  23.694  0.00  0.00    +0.186 A 
ATOM      8  N   UNL     1       9.854  -3.823  24.615  0.00  0.00    -0.193 NA
ATOM      9  C   UNL     1       8.844  -4.274  25.359  0.00  0.00    +0.218 A 
ATOM     10  N   UNL     1       9.152  -5.193  26.345  0.00  0.00    -0.327 N 
ATOM     11  H   UNL     1      10.129  -5.104  26.594  0.00  0.00    +0.145 HD
ATOM     12  H   UNL     1       8.476  -5.139  27.093  0.00  0.00    +0.145 HD
ATOM     13  N   UNL     1       7.558  -3.890  25.293  0.00  0.00    -0.178 NA
ENDROOT
BRANCH   1  14
ATOM     14  O   UNL     1       5.909  -2.547  24.247  0.00  0.00    -0.467 OA
BRANCH  14  15
ATOM     15  C   UNL     1       5.019  -3.581  23.841  0.00  0.00    +0.305 C 
BRANCH  15  16
ATOM     16  C   UNL     1       5.369  -4.037  22.428  0.00  0.00    +0.173 C 
ATOM     17  O   UNL     1       5.473  -3.249  21.486  0.00  0.00    -0.294 OA
BRANCH  16  19
ATOM     18  C   UNL     1       7.070  -5.803  21.887  0.00  0.00    +0.015 C 
ATOM     19  C   UNL     1       5.611  -5.534  22.246  0.00  0.00    +0.053 C 
ATOM     20  C   UNL     1       5.216  -6.277  23.516  0.00  0.00    +0.015 C 
ENDBRANCH  16  19
ENDBRANCH  15  16
ENDBRANCH  14  15
ENDBRANCH   1  14
TORSDOF 4
ENDMDL
MODEL 4
REMARK VINA RESULT:      -5.5      1.534      2.075
REMARK  Name = 
REMARK  6 active torsions:
REMARK  status: ('A' for Active; 'I' for Inactive)
REMARK    1  A    between atoms: C_1  and  C_2
REMARK    2  A    between atoms: C_2  and  C_3
REMARK    3  A    between atoms: C_2  and  C_4
REMARK    4  A    between atoms: C_4  and  C_6
REMARK    5  A    between atoms: C_6  and  O_7
REMARK    6  A    between atoms: O_7  and  C_8
REMARK                            x       y       z     vdW  Elec       q    Type
REMARK                         _______ _______ _______ _____ _____    ______ ____
ROOT
ATOM      1  C   UNL     1       8.467  -3.331  23.682  0.00  0.00    +0.246 A 
ATOM      2  C   UNL     1       7.196  -3.688  24.051  0.00  0.00    +0.147 A 
ATOM      3  N   UNL     1       5.938  -3.293  23.696  0.00  0.00    -0.339 N 
ATOM      4  H   UNL     1       5.706  -2.575  23.023  0.00  0.00    +0.167 HD
ATOM      5  C   UNL     1       5.057  -4.056  24.416  0.00  0.00    +0.199 A 
ATOM      6  N   UNL     1       5.679  -4.905  25.206  0.00  0.00    -0.216 NA
ATOM      7  C   UNL     1       7.014  -4.679  24.990  0.00  0.00    +0.186 A 
ATOM      8  N   UNL     1       8.031  -5.328  25.581  0.00  0.00    -0.193 NA
ATOM      9  C   UNL     1       9.234  -4.909  25.186  0.00  0.00    +0.218 A 
ATOM     10  N   UNL     1      10.331  -5.546  25.735  0.00  0.00    -0.327 N 
ATOM     11  H   UNL     1      10.058  -6.463  26.064  0.00  0.00    +0.145 HD
ATOM     12  H   UNL     1      11.116  -5.494  25.102  0.00  0.00    +0.145 HD
ATOM     13  N   UNL     1       9.499  -3.968  24.264  0.00  0.00    -0.178 NA
ENDROOT
BRANCH   1  14
ATOM     14  O   UNL     1       8.671  -2.361  22.732  0.00  0.00    -0.467 OA
BRANCH  14  15
ATOM     15  C   UNL     1       9.577  -1.351  23.166  0.00  0.00    +0.305 C 
BRANCH  15  16
ATOM     16  C   UNL     1       8.810  -0.070  23.477  0.00  0.00    +0.173 C 
ATOM     17  O   UNL     1       7.606  -0.067  23.740  0.00  0.00    -0.294 OA
BRANCH  16  19
ATOM     18  C   UNL     1      10.886   1.064  24.319  0.00  0.00    +0.015 C 
ATOM     19  C   UNL     1       9.629   1.220  23.469  0.00  0.00    +0.053 C 
ATOM     20  C   UNL     1       9.982   1.597  22.036  0.00  0.00    +0.015 C 
ENDBRANCH  16  19
ENDBRANCH  15  16
ENDBRANCH  14  15
ENDBRANCH   1  14
TORSDOF 4
ENDMDL
MODEL 5
REMARK VINA RESULT:      -5.5      0.836      2.691
REMARK  Name = 
REMARK  6 active torsions:
REMARK  status: ('A' for Active; 'I' for Inactive)
REMARK    1  A    between atoms: C_1  and  C_2
REMARK    2  A    between atoms: C_2  and  C_3
REMARK    3  A    between atoms: C_2  and  C_4
REMARK    4  A    between atoms: C_4  and  C_6
REMARK    5  A    between atoms: C_6  and  O_7
REMARK    6  A    between atoms: O_7  and  C_8
REMARK                            x       y       z     vdW  Elec       q    Type
REMARK                         _______ _______ _______ _____ _____    ______ ____
ROOT
ATOM      1  C   UNL     1       8.694  -3.632  23.932  0.00  0.00    +0.246 A 
ATOM      2  C   UNL     1       8.234  -4.316  25.026  0.00  0.00    +0.147 A 
ATOM      3  N   UNL     1       8.708  -4.564  26.282  0.00  0.00    -0.339 N 
ATOM      4  H   UNL     1       9.594  -4.252  26.658  0.00  0.00    +0.167 HD
ATOM      5  C   UNL     1       7.758  -5.304  26.934  0.00  0.00    +0.199 A 
ATOM      6  N   UNL     1       6.715  -5.543  26.167  0.00  0.00    -0.216 NA
ATOM      7  C   UNL     1       7.004  -4.935  24.973  0.00  0.00    +0.186 A 
ATOM      8  N   UNL     1       6.216  -4.912  23.886  0.00  0.00    -0.193 NA
ATOM      9  C   UNL     1       6.742  -4.246  22.858  0.00  0.00    +0.218 A 
ATOM     10  N   UNL     1       5.977  -4.160  21.709  0.00  0.00    -0.327 N 
ATOM     11  H   UNL     1       5.002  -4.291  21.944  0.00  0.00    +0.145 HD
ATOM     12  H   UNL     1       6.223  -3.330  21.190  0.00  0.00    +0.145 HD
ATOM     13  N   UNL     1       7.919  -3.598  22.832  0.00  0.00    -0.178 NA
ENDROOT
BRANCH   1  14
ATOM     14  O   UNL     1       9.907  -2.988  23.969  0.00  0.00    -0.467 OA
BRANCH  14  15
ATOM     15  C   UNL     1       9.784  -1.603  24.275  0.00  0.00    +0.305 C 
BRANCH  15  16
ATOM     16  C   UNL     1      10.173  -0.771  23.058  0.00  0.00    +0.173 C 
ATOM     17  O   UNL     1      10.265  -1.253  21.928  0.00  0.00    -0.294 OA
BRANCH  16  19
ATOM     18  C   UNL     1      10.002   1.546  22.103  0.00  0.00    +0.015 C 
ATOM     19  C   UNL     1      10.420   0.715  23.313  0.00  0.00    +0.053 C 
ATOM     20  C   UNL     1       9.667   1.155  24.562  0.00  0.00    +0.015 C 
ENDBRANCH  16  19
ENDBRANCH  15  16
ENDBRANCH  14  15
ENDBRANCH   1  14
TORSDOF 4
ENDMDL
MODEL 6
REMARK VINA RESULT:      -5.4      1.332      3.010
REMARK  Name = 
REMARK  6 active torsions:
REMARK  status: ('A' for Active; 'I' for Inactive)
REMARK    1  A    between atoms: C_1  and  C_2
REMARK    2  A    between atoms: C_2  and  C_3
REMARK    3  A    between atoms: C_2  and  C_4
REMARK    4  A    between atoms: C_4  and  C_6
REMARK    5  A    between atoms: C_6  and  O_7
REMARK    6  A    between atoms: O_7  and  C_8
REMARK                            x       y       z     vdW  Elec       q    Type
REMARK                         _______ _______ _______ _____ _____    ______ ____
ROOT
ATOM      1  C   UNL     1       7.677  -4.742  24.017  0.00  0.00    +0.246 A 
ATOM      2  C   UNL     1       7.374  -5.082  25.309  0.00  0.00    +0.147 A 
ATOM      3  N   UNL     1       7.966  -4.893  26.525  0.00  0.00    -0.339 N 
ATOM      4  H   UNL     1       8.843  -4.418  26.693  0.00  0.00    +0.167 HD
ATOM      5  C   UNL     1       7.148  -5.459  27.465  0.00  0.00    +0.199 A 
ATOM      6  N   UNL     1       6.078  -5.997  26.921  0.00  0.00    -0.216 NA
ATOM      7  C   UNL     1       6.211  -5.772  25.575  0.00  0.00    +0.186 A 
ATOM      8  N   UNL     1       5.342  -6.144  24.621  0.00  0.00    -0.193 NA
ATOM      9  C   UNL     1       5.719  -5.796  23.390  0.00  0.00    +0.218 A 
ATOM     10  N   UNL     1       4.862  -6.125  22.356  0.00  0.00    -0.327 N 
ATOM     11  H   UNL     1       3.926  -6.244  22.720  0.00  0.00    +0.145 HD
ATOM     12  H   UNL     1       4.983  -5.482  21.587  0.00  0.00    +0.145 HD
ATOM     13  N   UNL     1       6.820  -5.106  23.046  0.00  0.00    -0.178 NA
ENDROOT
BRANCH   1  14
ATOM     14  O   UNL     1       8.820  -4.035  23.731  0.00  0.00    -0.467 OA
BRANCH  14  15
ATOM     15  C   UNL     1       8.548  -2.774  23.127  0.00  0.00    +0.305 C 
BRANCH  15  16
ATOM     16  C   UNL     1       9.767  -1.867  23.257  0.00  0.00    +0.173 C 
ATOM     17  O   UNL     1      10.656  -1.828  22.404  0.00  0.00    -0.294 OA
BRANCH  16  19
ATOM     18  C   UNL     1      10.596   0.299  24.219  0.00  0.00    +0.015 C 
ATOM     19  C   UNL     1       9.815  -0.981  24.501  0.00  0.00    +0.053 C 
ATOM     20  C   UNL     1       8.398  -0.665  24.962  0.00  0.00    +0.015 C 
ENDBRANCH  16  19
ENDBRANCH  15  16
ENDBRANCH  14  15
ENDBRANCH   1  14
TORSDOF 4
ENDMDL
MODEL 7
REMARK VINA RESULT:      -5.2      2.593      5.163
REMARK  Name = 
REMARK  6 active torsions:
REMARK  status: ('A' for Active; 'I' for Inactive)
REMARK    1  A    between atoms: C_1  and  C_2
REMARK    2  A    between atoms: C_2  and  C_3
REMARK    3  A    between atoms: C_2  and  C_4
REMARK    4  A    between atoms: C_4  and  C_6
REMARK    5  A    between atoms: C_6  and  O_7
REMARK    6  A    between atoms: O_7  and  C_8
REMARK                            x       y       z     vdW  Elec       q    Type
REMARK                         _______ _______ _______ _____ _____    ______ ____
ROOT
ATOM      1  C   UNL     1       9.362  -2.444  24.241  0.00  0.00    +0.246 A 
ATOM      2  C   UNL     1       9.435  -1.507  23.244  0.00  0.00    +0.147 A 
ATOM      3  N   UNL     1       9.644  -1.542  21.895  0.00  0.00    -0.339 N 
ATOM      4  H   UNL     1       9.809  -2.371  21.339  0.00  0.00    +0.167 HD
ATOM      5  C   UNL     1       9.580  -0.252  21.442  0.00  0.00    +0.199 A 
ATOM      6  N   UNL     1       9.348   0.598  22.420  0.00  0.00    -0.216 NA
ATOM      7  C   UNL     1       9.261  -0.174  23.549  0.00  0.00    +0.186 A 
ATOM      8  N   UNL     1       9.024   0.270  24.794  0.00  0.00    -0.193 NA
ATOM      9  C   UNL     1       8.989  -0.699  25.710  0.00  0.00    +0.218 A 
ATOM     10  N   UNL     1       8.727  -0.320  27.014  0.00  0.00    -0.327 N 
ATOM     11  H   UNL     1       8.242   0.568  27.015  0.00  0.00    +0.145 HD
ATOM     12  H   UNL     1       8.300  -1.083  27.518  0.00  0.00    +0.145 HD
ATOM     13  N   UNL     1       9.126  -2.019  25.496  0.00  0.00    -0.178 NA
ENDROOT
BRANCH   1  14
ATOM     14  O   UNL     1       9.510  -3.779  23.957  0.00  0.00    -0.467 OA
BRANCH  14  15
ATOM     15  C   UNL     1       8.489  -4.581  24.541  0.00  0.00    +0.305 C 
BRANCH  15  16
ATOM     16  C   UNL     1       7.316  -4.705  23.574  0.00  0.00    +0.173 C 
ATOM     17  O   UNL     1       7.441  -4.549  22.358  0.00  0.00    -0.294 OA
BRANCH  16  19
ATOM     18  C   UNL     1       5.269  -6.148  23.383  0.00  0.00    +0.015 C 
ATOM     19  C   UNL     1       5.968  -5.063  24.198  0.00  0.00    +0.053 C 
ATOM     20  C   UNL     1       6.170  -5.509  25.640  0.00  0.00    +0.015 C 
ENDBRANCH  16  19
ENDBRANCH  15  16
ENDBRANCH  14  15
ENDBRANCH   1  14
TORSDOF 4
ENDMDL
MODEL 8
REMARK VINA RESULT:      -5.2      1.857      2.513
REMARK  Name = 
REMARK  6 active torsions:
REMARK  status: ('A' for Active; 'I' for Inactive)
REMARK    1  A    between atoms: C_1  and  C_2
REMARK    2  A    between atoms: C_2  and  C_3
REMARK    3  A    between atoms: C_2  and  C_4
REMARK    4  A    between atoms: C_4  and  C_6
REMARK    5  A    between atoms: C_6  and  O_7
REMARK    6  A    between atoms: O_7  and  C_8
REMARK                            x       y       z     vdW  Elec       q    Type
REMARK                         _______ _______ _______ _____ _____    ______ ____
ROOT
ATOM      1  C   UNL     1       9.288  -2.812  23.456  0.00  0.00    +0.246 A 
ATOM      2  C   UNL     1       8.032  -3.191  23.059  0.00  0.00    +0.147 A 
ATOM      3  N   UNL     1       7.105  -2.704  22.184  0.00  0.00    -0.339 N 
ATOM      4  H   UNL     1       7.200  -1.871  21.618  0.00  0.00    +0.167 HD
ATOM      5  C   UNL     1       6.034  -3.555  22.214  0.00  0.00    +0.199 A 
ATOM      6  N   UNL     1       6.223  -4.549  23.056  0.00  0.00    -0.216 NA
ATOM      7  C   UNL     1       7.465  -4.328  23.593  0.00  0.00    +0.186 A 
ATOM      8  N   UNL     1       8.082  -5.100  24.502  0.00  0.00    -0.193 NA
ATOM      9  C   UNL     1       9.289  -4.654  24.852  0.00  0.00    +0.218 A 
ATOM     10  N   UNL     1       9.996  -5.410  25.769  0.00  0.00    -0.327 N 
ATOM     11  H   UNL     1       9.655  -6.363  25.753  0.00  0.00    +0.145 HD
ATOM     12  H   UNL     1      10.988  -5.270  25.643  0.00  0.00    +0.145 HD
ATOM     13  N   UNL     1       9.923  -3.573  24.367  0.00  0.00    -0.178 NA
ENDROOT
BRANCH   1  14
ATOM     14  O   UNL     1       9.882  -1.695  22.921  0.00  0.00    -0.467 OA
BRANCH  14  15
ATOM     15  C   UNL     1       9.192  -0.495  23.254  0.00  0.00    +0.305 C 
BRANCH  15  16
ATOM     16  C   UNL     1       9.481  -0.120  24.704  0.00  0.00    +0.173 C 
ATOM     17  O   UNL     1      10.599   0.231  25.086  0.00  0.00    -0.294 OA
BRANCH  16  19
ATOM     18  C   UNL     1       8.698  -0.828  26.983  0.00  0.00    +0.015 C 
ATOM     19  C   UNL     1       8.292  -0.179  25.663  0.00  0.00    +0.053 C 
ATOM     20  C   UNL     1       7.745   1.224  25.890  0.00  0.00    +0.015 C 
ENDBRANCH  16  19
ENDBRANCH  15  16
ENDBRANCH  14  15
ENDBRANCH   1  14
TORSDOF 4
ENDMDL
MODEL 9
REMARK VINA RESULT:      -5.2      3.333      6.181
REMARK  Name = 
REMARK  6 active torsions:
REMARK  status: ('A' for Active; 'I' for Inactive)
REMARK    1  A    between atoms: C_1  and  C_2
REMARK    2  A    between atoms: C_2  and  C_3
REMARK    3  A    between atoms: C_2  and  C_4
REMARK    4  A    between atoms: C_4  and  C_6
REMARK    5  A    between atoms: C_6  and  O_7
REMARK    6  A    between atoms: O_7  and  C_8
REMARK                            x       y       z     vdW  Elec       q    Type
REMARK                         _______ _______ _______ _____ _____    ______ ____
ROOT
ATOM      1  C   UNL     1       8.087  -0.537  22.794  0.00  0.00    +0.246 A 
ATOM      2  C   UNL     1       9.128   0.085  23.432  0.00  0.00    +0.147 A 
ATOM      3  N   UNL     1      10.382  -0.284  23.825  0.00  0.00    -0.339 N 
ATOM      4  H   UNL     1      10.800  -1.197  23.704  0.00  0.00    +0.167 HD
ATOM      5  C   UNL     1      10.963   0.812  24.405  0.00  0.00    +0.199 A 
ATOM      6  N   UNL     1      10.153   1.850  24.406  0.00  0.00    -0.216 NA
ATOM      7  C   UNL     1       9.004   1.406  23.806  0.00  0.00    +0.186 A 
ATOM      8  N   UNL     1       7.897   2.132  23.583  0.00  0.00    -0.193 NA
ATOM      9  C   UNL     1       6.922   1.451  22.979  0.00  0.00    +0.218 A 
ATOM     10  N   UNL     1       5.758   2.140  22.695  0.00  0.00    -0.327 N 
ATOM     11  H   UNL     1       5.956   3.131  22.651  0.00  0.00    +0.145 HD
ATOM     12  H   UNL     1       5.293   1.724  21.901  0.00  0.00    +0.145 HD
ATOM     13  N   UNL     1       6.968   0.174  22.562  0.00  0.00    -0.178 NA
ENDROOT
BRANCH   1  14
ATOM     14  O   UNL     1       8.196  -1.846  22.393  0.00  0.00    -0.467 OA
BRANCH  14  15
ATOM     15  C   UNL     1       7.614  -2.755  23.321  0.00  0.00    +0.305 C 
BRANCH  15  16
ATOM     16  C   UNL     1       8.691  -3.672  23.889  0.00  0.00    +0.173 C 
ATOM     17  O   UNL     1       9.836  -3.281  24.126  0.00  0.00    -0.294 OA
BRANCH  16  19
ATOM     18  C   UNL     1       7.654  -5.222  25.571  0.00  0.00    +0.015 C 
ATOM     19  C   UNL     1       8.265  -5.111  24.177  0.00  0.00    +0.053 C 
ATOM     20  C   UNL     1       7.281  -5.578  23.112  0.00  0.00    +0.015 C 
ENDBRANCH  16  19
ENDBRANCH  15  16
ENDBRANCH  14  15
ENDBRANCH   1  14
TORSDOF 4
ENDMDL
