MODEL 1
REMARK VINA RESULT:      -7.6      0.000      0.000
REMARK  Name = 
REMARK  13 active torsions:
REMARK  status: ('A' for Active; 'I' for Inactive)
REMARK    1  A    between atoms: C_1  and  O_2
REMARK    2  A    between atoms: O_2  and  C_3
REMARK    3  A    between atoms: C_8  and  O_9
REMARK    4  A    between atoms: O_9  and  C_10
REMARK    5  A    between atoms: C_10  and  C_11
REMARK    6  A    between atoms: C_11  and  O_12
REMARK    7  A    between atoms: C_11  and  C_13
REMARK    8  A    between atoms: C_13  and  N_14
REMARK    9  A    between atoms: N_17  and  C_18
REMARK   10  A    between atoms: C_18  and  C_19
REMARK   11  A    between atoms: N_21  and  C_22
REMARK   12  A    between atoms: C_23  and  C_24
REMARK   13  A    between atoms: C_28  and  C_29
REMARK                            x       y       z     vdW  Elec       q    Type
REMARK                         _______ _______ _______ _____ _____    ______ ____
ROOT
ATOM      1  N   UNL     1       9.767   0.222  22.808  0.00  0.00    -0.297 NA
ATOM      2  C   UNL     1       9.586  -0.964  21.943  0.00  0.00    +0.100 C 
ATOM      3  C   UNL     1       8.514  -1.990  22.405  0.00  0.00    +0.100 C 
ATOM      4  N   UNL     1       8.453  -2.306  23.848  0.00  0.00    -0.292 NA
ATOM      5  C   UNL     1       8.672  -1.081  24.650  0.00  0.00    +0.100 C 
ATOM      6  C   UNL     1       9.885  -0.247  24.200  0.00  0.00    +0.100 C 
ENDROOT
BRANCH   1   7
ATOM      7  C   UNL     1       8.670   1.197  22.644  0.00  0.00    +0.119 C 
BRANCH   7   8
ATOM      8  C   UNL     1       9.119   2.648  22.331  0.00  0.00    +0.166 C 
BRANCH   8   9
ATOM      9  O   UNL     1      10.478   2.607  21.866  0.00  0.00    -0.387 OA
ATOM     10  H   UNL     1      10.509   2.032  21.085  0.00  0.00    +0.210 HD
ENDBRANCH   8   9
BRANCH   8  11
ATOM     11  C   UNL     1       8.968   3.552  23.570  0.00  0.00    +0.261 C 
BRANCH  11  12
ATOM     12  O   UNL     1       9.290   4.899  23.222  0.00  0.00    -0.486 OA
BRANCH  12  14
ATOM     13  C   UNL     1      11.631   5.575  23.824  0.00  0.00    +0.161 A 
ATOM     14  C   UNL     1      10.231   5.562  23.970  0.00  0.00    +0.162 A 
ATOM     15  C   UNL     1       9.650   6.299  25.015  0.00  0.00    +0.049 A 
ATOM     16  C   UNL     1      10.428   7.062  25.884  0.00  0.00    +0.004 A 
ATOM     17  C   UNL     1      11.804   7.108  25.712  0.00  0.00    +0.004 A 
ATOM     18  C   UNL     1      12.400   6.374  24.687  0.00  0.00    +0.049 A 
BRANCH  13  20
ATOM     19  C   UNL     1      13.201   5.518  22.043  0.00  0.00    +0.277 C 
ATOM     20  O   UNL     1      12.212   4.846  22.818  0.00  0.00    -0.491 OA
ENDBRANCH  13  20
ENDBRANCH  12  14
ENDBRANCH  11  12
ENDBRANCH   8  11
ENDBRANCH   7   8
ENDBRANCH   1   7
BRANCH   4  21
ATOM     21  C   UNL     1       9.400  -3.365  24.250  0.00  0.00    +0.180 C 
BRANCH  21  22
ATOM     22  C   UNL     1       8.615  -4.651  24.586  0.00  0.00    +0.231 C 
ATOM     23  N   UNL     1       7.265  -4.400  24.767  0.00  0.00    -0.284 N 
ATOM     24  H   UNL     1       6.939  -3.543  24.339  0.00  0.00    +0.155 HD
ATOM     25  O   UNL     1       9.166  -5.745  24.669  0.00  0.00    -0.274 OA
BRANCH  23  26
ATOM     26  C   UNL     1       6.289  -5.378  25.054  0.00  0.00    +0.039 A 
ATOM     27  C   UNL     1       5.523  -5.868  23.975  0.00  0.00    -0.029 A 
ATOM     28  C   UNL     1       5.842  -5.495  22.551  0.00  0.00    +0.045 C 
ATOM     29  C   UNL     1       4.489  -6.780  24.221  0.00  0.00    +0.005 A 
ATOM     30  C   UNL     1       4.218  -7.210  25.515  0.00  0.00    +0.001 A 
ATOM     31  C   UNL     1       4.972  -6.727  26.582  0.00  0.00    +0.005 A 
ATOM     32  C   UNL     1       5.999  -5.787  26.375  0.00  0.00    -0.029 A 
ATOM     33  C   UNL     1       6.685  -5.238  27.591  0.00  0.00    +0.045 C 
ENDBRANCH  23  26
ENDBRANCH  21  22
ENDBRANCH   4  21
TORSDOF 10
ENDMDL
MODEL 2
REMARK VINA RESULT:      -7.1      1.454      2.213
REMARK  Name = 
REMARK  13 active torsions:
REMARK  status: ('A' for Active; 'I' for Inactive)
REMARK    1  A    between atoms: C_1  and  O_2
REMARK    2  A    between atoms: O_2  and  C_3
REMARK    3  A    between atoms: C_8  and  O_9
REMARK    4  A    between atoms: O_9  and  C_10
REMARK    5  A    between atoms: C_10  and  C_11
REMARK    6  A    between atoms: C_11  and  O_12
REMARK    7  A    between atoms: C_11  and  C_13
REMARK    8  A    between atoms: C_13  and  N_14
REMARK    9  A    between atoms: N_17  and  C_18
REMARK   10  A    between atoms: C_18  and  C_19
REMARK   11  A    between atoms: N_21  and  C_22
REMARK   12  A    between atoms: C_23  and  C_24
REMARK   13  A    between atoms: C_28  and  C_29
REMARK                            x       y       z     vdW  Elec       q    Type
REMARK                         _______ _______ _______ _____ _____    ______ ____
ROOT
ATOM      1  N   UNL     1      10.378   0.091  23.645  0.00  0.00    -0.297 NA
ATOM      2  C   UNL     1      10.362  -0.975  22.620  0.00  0.00    +0.100 C 
ATOM      3  C   UNL     1       9.206  -2.008  22.725  0.00  0.00    +0.100 C 
ATOM      4  N   UNL     1       8.849  -2.493  24.075  0.00  0.00    -0.292 NA
ATOM      5  C   UNL     1       8.917  -1.384  25.053  0.00  0.00    +0.100 C 
ATOM      6  C   UNL     1      10.206  -0.547  24.963  0.00  0.00    +0.100 C 
ENDROOT
BRANCH   1   7
ATOM      7  C   UNL     1       9.349   1.119  23.390  0.00  0.00    +0.119 C 
BRANCH   7   8
ATOM      8  C   UNL     1       9.235   1.584  21.915  0.00  0.00    +0.166 C 
BRANCH   8   9
ATOM      9  O   UNL     1      10.341   2.457  21.632  0.00  0.00    -0.387 OA
ATOM     10  H   UNL     1      11.049   2.258  22.266  0.00  0.00    +0.210 HD
ENDBRANCH   8   9
BRANCH   8  11
ATOM     11  C   UNL     1       7.883   2.277  21.657  0.00  0.00    +0.261 C 
BRANCH  11  12
ATOM     12  O   UNL     1       7.450   2.938  22.846  0.00  0.00    -0.486 OA
BRANCH  12  14
ATOM     13  C   UNL     1       8.595   5.105  23.386  0.00  0.00    +0.161 A 
ATOM     14  C   UNL     1       7.541   4.307  22.905  0.00  0.00    +0.162 A 
ATOM     15  C   UNL     1       6.384   4.934  22.412  0.00  0.00    +0.049 A 
ATOM     16  C   UNL     1       6.276   6.322  22.363  0.00  0.00    +0.004 A 
ATOM     17  C   UNL     1       7.333   7.108  22.798  0.00  0.00    +0.004 A 
ATOM     18  C   UNL     1       8.486   6.504  23.301  0.00  0.00    +0.049 A 
BRANCH  13  20
ATOM     19  C   UNL     1      10.947   5.213  23.700  0.00  0.00    +0.277 C 
ATOM     20  O   UNL     1       9.723   4.506  23.885  0.00  0.00    -0.491 OA
ENDBRANCH  13  20
ENDBRANCH  12  14
ENDBRANCH  11  12
ENDBRANCH   8  11
ENDBRANCH   7   8
ENDBRANCH   1   7
BRANCH   4  21
ATOM     21  C   UNL     1       9.682  -3.628  24.522  0.00  0.00    +0.180 C 
BRANCH  21  22
ATOM     22  C   UNL     1       8.770  -4.822  24.875  0.00  0.00    +0.231 C 
ATOM     23  N   UNL     1       7.429  -4.508  24.732  0.00  0.00    -0.284 N 
ATOM     24  H   UNL     1       7.248  -3.721  24.122  0.00  0.00    +0.155 HD
ATOM     25  O   UNL     1       9.226  -5.904  25.234  0.00  0.00    -0.274 OA
BRANCH  23  26
ATOM     26  C   UNL     1       6.358  -5.400  24.952  0.00  0.00    +0.039 A 
ATOM     27  C   UNL     1       5.667  -5.879  23.819  0.00  0.00    -0.029 A 
ATOM     28  C   UNL     1       6.152  -5.591  22.423  0.00  0.00    +0.045 C 
ATOM     29  C   UNL     1       4.548  -6.704  23.991  0.00  0.00    +0.005 A 
ATOM     30  C   UNL     1       4.119  -7.058  25.265  0.00  0.00    +0.001 A 
ATOM     31  C   UNL     1       4.799  -6.586  26.385  0.00  0.00    +0.005 A 
ATOM     32  C   UNL     1       5.909  -5.731  26.251  0.00  0.00    -0.029 A 
ATOM     33  C   UNL     1       6.512  -5.183  27.510  0.00  0.00    +0.045 C 
ENDBRANCH  23  26
ENDBRANCH  21  22
ENDBRANCH   4  21
TORSDOF 10
ENDMDL
MODEL 3
REMARK VINA RESULT:      -7.0      1.661     10.101
REMARK  Name = 
REMARK  13 active torsions:
REMARK  status: ('A' for Active; 'I' for Inactive)
REMARK    1  A    between atoms: C_1  and  O_2
REMARK    2  A    between atoms: O_2  and  C_3
REMARK    3  A    between atoms: C_8  and  O_9
REMARK    4  A    between atoms: O_9  and  C_10
REMARK    5  A    between atoms: C_10  and  C_11
REMARK    6  A    between atoms: C_11  and  O_12
REMARK    7  A    between atoms: C_11  and  C_13
REMARK    8  A    between atoms: C_13  and  N_14
REMARK    9  A    between atoms: N_17  and  C_18
REMARK   10  A    between atoms: C_18  and  C_19
REMARK   11  A    between atoms: N_21  and  C_22
REMARK   12  A    between atoms: C_23  and  C_24
REMARK   13  A    between atoms: C_28  and  C_29
REMARK                            x       y       z     vdW  Elec       q    Type
REMARK                         _______ _______ _______ _____ _____    ______ ____
ROOT
ATOM      1  N   UNL     1       9.903  -2.191  24.363  0.00  0.00    -0.297 NA
ATOM      2  C   UNL     1       9.458  -0.862  24.834  0.00  0.00    +0.100 C 
ATOM      3  C   UNL     1       8.498  -0.088  23.889  0.00  0.00    +0.100 C 
ATOM      4  N   UNL     1       8.794  -0.124  22.441  0.00  0.00    -0.292 NA
ATOM      5  C   UNL     1       9.263  -1.471  22.047  0.00  0.00    +0.100 C 
ATOM      6  C   UNL     1      10.354  -2.048  22.967  0.00  0.00    +0.100 C 
ENDROOT
BRANCH   1   7
ATOM      7  C   UNL     1       8.843  -3.210  24.500  0.00  0.00    +0.119 C 
BRANCH   7   8
ATOM      8  C   UNL     1       9.180  -4.388  25.450  0.00  0.00    +0.166 C 
BRANCH   8   9
ATOM      9  O   UNL     1       9.558  -5.519  24.648  0.00  0.00    -0.387 OA
ATOM     10  H   UNL     1       8.748  -5.915  24.290  0.00  0.00    +0.210 HD
ENDBRANCH   8   9
BRANCH   8  11
ATOM     11  C   UNL     1       7.988  -4.715  26.369  0.00  0.00    +0.261 C 
BRANCH  11  12
ATOM     12  O   UNL     1       7.240  -5.799  25.817  0.00  0.00    -0.486 OA
BRANCH  12  14
ATOM     13  C   UNL     1       5.982  -5.447  23.674  0.00  0.00    +0.161 A 
ATOM     14  C   UNL     1       6.123  -5.512  25.072  0.00  0.00    +0.162 A 
ATOM     15  C   UNL     1       5.005  -5.245  25.880  0.00  0.00    +0.049 A 
ATOM     16  C   UNL     1       3.763  -4.948  25.325  0.00  0.00    +0.004 A 
ATOM     17  C   UNL     1       3.616  -4.926  23.945  0.00  0.00    +0.004 A 
ATOM     18  C   UNL     1       4.716  -5.179  23.126  0.00  0.00    +0.049 A 
BRANCH  13  20
ATOM     19  C   UNL     1       6.797  -5.927  21.495  0.00  0.00    +0.277 C 
ATOM     20  O   UNL     1       7.069  -5.689  22.873  0.00  0.00    -0.491 OA
ENDBRANCH  13  20
ENDBRANCH  12  14
ENDBRANCH  11  12
ENDBRANCH   8  11
ENDBRANCH   7   8
ENDBRANCH   1   7
BRANCH   4  21
ATOM     21  C   UNL     1       9.768   0.906  22.024  0.00  0.00    +0.180 C 
BRANCH  21  22
ATOM     22  C   UNL     1       9.255   2.297  22.453  0.00  0.00    +0.231 C 
ATOM     23  N   UNL     1      10.008   2.829  23.487  0.00  0.00    -0.284 N 
ATOM     24  H   UNL     1      10.935   2.431  23.576  0.00  0.00    +0.155 HD
ATOM     25  O   UNL     1       8.291   2.830  21.911  0.00  0.00    -0.274 OA
BRANCH  23  26
ATOM     26  C   UNL     1       9.803   4.096  24.073  0.00  0.00    +0.039 A 
ATOM     27  C   UNL     1      10.787   5.082  23.851  0.00  0.00    -0.029 A 
ATOM     28  C   UNL     1      11.926   4.855  22.893  0.00  0.00    +0.045 C 
ATOM     29  C   UNL     1      10.666   6.330  24.477  0.00  0.00    +0.005 A 
ATOM     30  C   UNL     1       9.585   6.605  25.305  0.00  0.00    +0.001 A 
ATOM     31  C   UNL     1       8.612   5.632  25.526  0.00  0.00    +0.005 A 
ATOM     32  C   UNL     1       8.716   4.357  24.939  0.00  0.00    -0.029 A 
ATOM     33  C   UNL     1       7.684   3.337  25.319  0.00  0.00    +0.045 C 
ENDBRANCH  23  26
ENDBRANCH  21  22
ENDBRANCH   4  21
TORSDOF 10
ENDMDL
MODEL 4
REMARK VINA RESULT:      -7.0      1.421      2.676
REMARK  Name = 
REMARK  13 active torsions:
REMARK  status: ('A' for Active; 'I' for Inactive)
REMARK    1  A    between atoms: C_1  and  O_2
REMARK    2  A    between atoms: O_2  and  C_3
REMARK    3  A    between atoms: C_8  and  O_9
REMARK    4  A    between atoms: O_9  and  C_10
REMARK    5  A    between atoms: C_10  and  C_11
REMARK    6  A    between atoms: C_11  and  O_12
REMARK    7  A    between atoms: C_11  and  C_13
REMARK    8  A    between atoms: C_13  and  N_14
REMARK    9  A    between atoms: N_17  and  C_18
REMARK   10  A    between atoms: C_18  and  C_19
REMARK   11  A    between atoms: N_21  and  C_22
REMARK   12  A    between atoms: C_23  and  C_24
REMARK   13  A    between atoms: C_28  and  C_29
REMARK                            x       y       z     vdW  Elec       q    Type
REMARK                         _______ _______ _______ _____ _____    ______ ____
ROOT
ATOM      1  N   UNL     1      10.405   0.096  23.594  0.00  0.00    -0.297 NA
ATOM      2  C   UNL     1      10.271  -0.961  22.568  0.00  0.00    +0.100 C 
ATOM      3  C   UNL     1       9.066  -1.927  22.736  0.00  0.00    +0.100 C 
ATOM      4  N   UNL     1       8.757  -2.398  24.103  0.00  0.00    -0.292 NA
ATOM      5  C   UNL     1       8.942  -1.300  25.078  0.00  0.00    +0.100 C 
ATOM      6  C   UNL     1      10.270  -0.538  24.917  0.00  0.00    +0.100 C 
ENDROOT
BRANCH   1   7
ATOM      7  C   UNL     1       9.423   1.183  23.398  0.00  0.00    +0.119 C 
BRANCH   7   8
ATOM      8  C   UNL     1       9.147   1.561  21.919  0.00  0.00    +0.166 C 
BRANCH   8   9
ATOM      9  O   UNL     1      10.199   2.434  21.475  0.00  0.00    -0.387 OA
ATOM     10  H   UNL     1      10.366   2.246  20.537  0.00  0.00    +0.210 HD
ENDBRANCH   8   9
BRANCH   8  11
ATOM     11  C   UNL     1       7.761   2.216  21.767  0.00  0.00    +0.261 C 
BRANCH  11  12
ATOM     12  O   UNL     1       7.444   2.948  22.952  0.00  0.00    -0.486 OA
BRANCH  12  14
ATOM     13  C   UNL     1       8.674   5.077  23.451  0.00  0.00    +0.161 A 
ATOM     14  C   UNL     1       7.609   4.311  22.944  0.00  0.00    +0.162 A 
ATOM     15  C   UNL     1       6.523   4.969  22.344  0.00  0.00    +0.049 A 
ATOM     16  C   UNL     1       6.497   6.356  22.216  0.00  0.00    +0.004 A 
ATOM     17  C   UNL     1       7.567   7.108  22.678  0.00  0.00    +0.004 A 
ATOM     18  C   UNL     1       8.650   6.473  23.286  0.00  0.00    +0.049 A 
BRANCH  13  20
ATOM     19  C   UNL     1      11.031   4.918  23.700  0.00  0.00    +0.277 C 
ATOM     20  O   UNL     1       9.733   4.448  24.054  0.00  0.00    -0.491 OA
ENDBRANCH  13  20
ENDBRANCH  12  14
ENDBRANCH  11  12
ENDBRANCH   8  11
ENDBRANCH   7   8
ENDBRANCH   1   7
BRANCH   4  21
ATOM     21  C   UNL     1       9.548  -3.581  24.500  0.00  0.00    +0.180 C 
BRANCH  21  22
ATOM     22  C   UNL     1       8.613  -4.805  24.611  0.00  0.00    +0.231 C 
ATOM     23  N   UNL     1       7.305  -4.434  24.876  0.00  0.00    -0.284 N 
ATOM     24  H   UNL     1       7.084  -3.479  24.625  0.00  0.00    +0.155 HD
ATOM     25  O   UNL     1       9.027  -5.953  24.472  0.00  0.00    -0.274 OA
BRANCH  23  26
ATOM     26  C   UNL     1       6.219  -5.326  25.001  0.00  0.00    +0.039 A 
ATOM     27  C   UNL     1       5.909  -5.796  26.295  0.00  0.00    -0.029 A 
ATOM     28  C   UNL     1       6.593  -5.243  27.517  0.00  0.00    +0.045 C 
ATOM     29  C   UNL     1       4.890  -6.743  26.459  0.00  0.00    +0.005 A 
ATOM     30  C   UNL     1       4.181  -7.217  25.363  0.00  0.00    +0.001 A 
ATOM     31  C   UNL     1       4.486  -6.756  24.084  0.00  0.00    +0.005 A 
ATOM     32  C   UNL     1       5.522  -5.827  23.877  0.00  0.00    -0.029 A 
ATOM     33  C   UNL     1       5.855  -5.469  22.459  0.00  0.00    +0.045 C 
ENDBRANCH  23  26
ENDBRANCH  21  22
ENDBRANCH   4  21
TORSDOF 10
ENDMDL
MODEL 5
REMARK VINA RESULT:      -6.8      2.010     10.562
REMARK  Name = 
REMARK  13 active torsions:
REMARK  status: ('A' for Active; 'I' for Inactive)
REMARK    1  A    between atoms: C_1  and  O_2
REMARK    2  A    between atoms: O_2  and  C_3
REMARK    3  A    between atoms: C_8  and  O_9
REMARK    4  A    between atoms: O_9  and  C_10
REMARK    5  A    between atoms: C_10  and  C_11
REMARK    6  A    between atoms: C_11  and  O_12
REMARK    7  A    between atoms: C_11  and  C_13
REMARK    8  A    between atoms: C_13  and  N_14
REMARK    9  A    between atoms: N_17  and  C_18
REMARK   10  A    between atoms: C_18  and  C_19
REMARK   11  A    between atoms: N_21  and  C_22
REMARK   12  A    between atoms: C_23  and  C_24
REMARK   13  A    between atoms: C_28  and  C_29
REMARK                            x       y       z     vdW  Elec       q    Type
REMARK                         _______ _______ _______ _____ _____    ______ ____
ROOT
ATOM      1  N   UNL     1       7.787  -3.188  24.559  0.00  0.00    -0.297 NA
ATOM      2  C   UNL     1       7.362  -3.100  23.145  0.00  0.00    +0.100 C 
ATOM      3  C   UNL     1       8.131  -2.078  22.262  0.00  0.00    +0.100 C 
ATOM      4  N   UNL     1       8.443  -0.763  22.860  0.00  0.00    -0.292 NA
ATOM      5  C   UNL     1       8.829  -0.923  24.280  0.00  0.00    +0.100 C 
ATOM      6  C   UNL     1       7.873  -1.817  25.091  0.00  0.00    +0.100 C 
ENDROOT
BRANCH   1   7
ATOM      7  C   UNL     1       9.061  -3.920  24.707  0.00  0.00    +0.119 C 
BRANCH   7   8
ATOM      8  C   UNL     1       9.219  -4.704  26.036  0.00  0.00    +0.166 C 
BRANCH   8   9
ATOM      9  O   UNL     1       9.759  -6.001  25.732  0.00  0.00    -0.387 OA
ATOM     10  H   UNL     1      10.721  -5.961  25.855  0.00  0.00    +0.210 HD
ENDBRANCH   8   9
BRANCH   8  11
ATOM     11  C   UNL     1       7.873  -4.807  26.779  0.00  0.00    +0.261 C 
BRANCH  11  12
ATOM     12  O   UNL     1       7.227  -6.033  26.432  0.00  0.00    -0.486 OA
BRANCH  12  14
ATOM     13  C   UNL     1       4.999  -6.697  27.376  0.00  0.00    +0.161 A 
ATOM     14  C   UNL     1       5.855  -6.077  26.448  0.00  0.00    +0.162 A 
ATOM     15  C   UNL     1       5.294  -5.401  25.352  0.00  0.00    +0.049 A 
ATOM     16  C   UNL     1       3.914  -5.308  25.186  0.00  0.00    +0.004 A 
ATOM     17  C   UNL     1       3.070  -5.884  26.125  0.00  0.00    +0.004 A 
ATOM     18  C   UNL     1       3.608  -6.569  27.214  0.00  0.00    +0.049 A 
BRANCH  13  20
ATOM     19  C   UNL     1       6.037  -6.576  29.508  0.00  0.00    +0.277 C 
ATOM     20  O   UNL     1       5.534  -7.375  28.441  0.00  0.00    -0.491 OA
ENDBRANCH  13  20
ENDBRANCH  12  14
ENDBRANCH  11  12
ENDBRANCH   8  11
ENDBRANCH   7   8
ENDBRANCH   1   7
BRANCH   4  21
ATOM     21  C   UNL     1       7.338   0.209  22.732  0.00  0.00    +0.180 C 
BRANCH  21  22
ATOM     22  C   UNL     1       7.912   1.584  22.328  0.00  0.00    +0.231 C 
ATOM     23  N   UNL     1       8.029   2.434  23.415  0.00  0.00    -0.284 N 
ATOM     24  H   UNL     1       8.060   1.964  24.311  0.00  0.00    +0.155 HD
ATOM     25  O   UNL     1       8.215   1.846  21.168  0.00  0.00    -0.274 OA
BRANCH  23  26
ATOM     26  C   UNL     1       8.549   3.745  23.368  0.00  0.00    +0.039 A 
ATOM     27  C   UNL     1       9.918   3.913  23.665  0.00  0.00    -0.029 A 
ATOM     28  C   UNL     1      10.832   2.731  23.858  0.00  0.00    +0.045 C 
ATOM     29  C   UNL     1      10.461   5.204  23.708  0.00  0.00    +0.005 A 
ATOM     30  C   UNL     1       9.667   6.315  23.456  0.00  0.00    +0.001 A 
ATOM     31  C   UNL     1       8.314   6.152  23.163  0.00  0.00    +0.005 A 
ATOM     32  C   UNL     1       7.728   4.873  23.140  0.00  0.00    -0.029 A 
ATOM     33  C   UNL     1       6.245   4.799  22.926  0.00  0.00    +0.045 C 
ENDBRANCH  23  26
ENDBRANCH  21  22
ENDBRANCH   4  21
TORSDOF 10
ENDMDL
MODEL 6
REMARK VINA RESULT:      -6.8      1.450      2.488
REMARK  Name = 
REMARK  13 active torsions:
REMARK  status: ('A' for Active; 'I' for Inactive)
REMARK    1  A    between atoms: C_1  and  O_2
REMARK    2  A    between atoms: O_2  and  C_3
REMARK    3  A    between atoms: C_8  and  O_9
REMARK    4  A    between atoms: O_9  and  C_10
REMARK    5  A    between atoms: C_10  and  C_11
REMARK    6  A    between atoms: C_11  and  O_12
REMARK    7  A    between atoms: C_11  and  C_13
REMARK    8  A    between atoms: C_13  and  N_14
REMARK    9  A    between atoms: N_17  and  C_18
REMARK   10  A    between atoms: C_18  and  C_19
REMARK   11  A    between atoms: N_21  and  C_22
REMARK   12  A    between atoms: C_23  and  C_24
REMARK   13  A    between atoms: C_28  and  C_29
REMARK                            x       y       z     vdW  Elec       q    Type
REMARK                         _______ _______ _______ _____ _____    ______ ____
ROOT
ATOM      1  N   UNL     1      10.083   0.087  23.406  0.00  0.00    -0.297 NA
ATOM      2  C   UNL     1       9.882  -1.025  22.451  0.00  0.00    +0.100 C 
ATOM      3  C   UNL     1       8.751  -2.031  22.802  0.00  0.00    +0.100 C 
ATOM      4  N   UNL     1       8.625  -2.446  24.215  0.00  0.00    -0.292 NA
ATOM      5  C   UNL     1       8.869  -1.294  25.112  0.00  0.00    +0.100 C 
ATOM      6  C   UNL     1      10.132  -0.486  24.763  0.00  0.00    +0.100 C 
ENDROOT
BRANCH   1   7
ATOM      7  C   UNL     1       9.036   1.120  23.279  0.00  0.00    +0.119 C 
BRANCH   7   8
ATOM      8  C   UNL     1       8.907   1.757  21.870  0.00  0.00    +0.166 C 
BRANCH   8   9
ATOM      9  O   UNL     1      10.187   2.294  21.500  0.00  0.00    -0.387 OA
ATOM     10  H   UNL     1      10.036   3.125  21.021  0.00  0.00    +0.210 HD
ENDBRANCH   8   9
BRANCH   8  11
ATOM     11  C   UNL     1       7.808   2.837  21.851  0.00  0.00    +0.261 C 
BRANCH  11  12
ATOM     12  O   UNL     1       7.603   3.335  23.174  0.00  0.00    -0.486 OA
BRANCH  12  14
ATOM     13  C   UNL     1       7.235   5.817  23.217  0.00  0.00    +0.161 A 
ATOM     14  C   UNL     1       7.958   4.632  23.448  0.00  0.00    +0.162 A 
ATOM     15  C   UNL     1       9.235   4.718  24.028  0.00  0.00    +0.049 A 
ATOM     16  C   UNL     1       9.781   5.943  24.402  0.00  0.00    +0.004 A 
ATOM     17  C   UNL     1       9.049   7.107  24.212  0.00  0.00    +0.004 A 
ATOM     18  C   UNL     1       7.784   7.044  23.629  0.00  0.00    +0.049 A 
BRANCH  13  20
ATOM     19  C   UNL     1       4.884   5.680  23.528  0.00  0.00    +0.277 C 
ATOM     20  O   UNL     1       5.994   5.749  22.636  0.00  0.00    -0.491 OA
ENDBRANCH  13  20
ENDBRANCH  12  14
ENDBRANCH  11  12
ENDBRANCH   8  11
ENDBRANCH   7   8
ENDBRANCH   1   7
BRANCH   4  21
ATOM     21  C   UNL     1       9.511  -3.574  24.569  0.00  0.00    +0.180 C 
BRANCH  21  22
ATOM     22  C   UNL     1       8.651  -4.810  24.911  0.00  0.00    +0.231 C 
ATOM     23  N   UNL     1       7.297  -4.516  24.903  0.00  0.00    -0.284 N 
ATOM     24  H   UNL     1       7.053  -3.693  24.368  0.00  0.00    +0.155 HD
ATOM     25  O   UNL     1       9.153  -5.903  25.152  0.00  0.00    -0.274 OA
BRANCH  23  26
ATOM     26  C   UNL     1       6.264  -5.445  25.147  0.00  0.00    +0.039 A 
ATOM     27  C   UNL     1       5.551  -5.932  24.032  0.00  0.00    -0.029 A 
ATOM     28  C   UNL     1       5.978  -5.612  22.623  0.00  0.00    +0.045 C 
ATOM     29  C   UNL     1       4.465  -6.795  24.230  0.00  0.00    +0.005 A 
ATOM     30  C   UNL     1       4.091  -7.178  25.512  0.00  0.00    +0.001 A 
ATOM     31  C   UNL     1       4.793  -6.698  26.615  0.00  0.00    +0.005 A 
ATOM     32  C   UNL     1       5.870  -5.806  26.456  0.00  0.00    -0.029 A 
ATOM     33  C   UNL     1       6.497  -5.253  27.701  0.00  0.00    +0.045 C 
ENDBRANCH  23  26
ENDBRANCH  21  22
ENDBRANCH   4  21
TORSDOF 10
ENDMDL
MODEL 7
REMARK VINA RESULT:      -6.7      1.620     10.377
REMARK  Name = 
REMARK  13 active torsions:
REMARK  status: ('A' for Active; 'I' for Inactive)
REMARK    1  A    between atoms: C_1  and  O_2
REMARK    2  A    between atoms: O_2  and  C_3
REMARK    3  A    between atoms: C_8  and  O_9
REMARK    4  A    between atoms: O_9  and  C_10
REMARK    5  A    between atoms: C_10  and  C_11
REMARK    6  A    between atoms: C_11  and  O_12
REMARK    7  A    between atoms: C_11  and  C_13
REMARK    8  A    between atoms: C_13  and  N_14
REMARK    9  A    between atoms: N_17  and  C_18
REMARK   10  A    between atoms: C_18  and  C_19
REMARK   11  A    between atoms: N_21  and  C_22
REMARK   12  A    between atoms: C_23  and  C_24
REMARK   13  A    between atoms: C_28  and  C_29
REMARK                            x       y       z     vdW  Elec       q    Type
REMARK                         _______ _______ _______ _____ _____    ______ ____
ROOT
ATOM      1  N   UNL     1       8.873  -2.951  24.004  0.00  0.00    -0.297 NA
ATOM      2  C   UNL     1      10.029  -2.209  23.454  0.00  0.00    +0.100 C 
ATOM      3  C   UNL     1      10.151  -0.720  23.880  0.00  0.00    +0.100 C 
ATOM      4  N   UNL     1       8.909   0.080  23.917  0.00  0.00    -0.292 NA
ATOM      5  C   UNL     1       7.791  -0.732  24.447  0.00  0.00    +0.100 C 
ATOM      6  C   UNL     1       7.669  -2.125  23.803  0.00  0.00    +0.100 C 
ENDROOT
BRANCH   1   7
ATOM      7  C   UNL     1       9.070  -3.306  25.424  0.00  0.00    +0.119 C 
BRANCH   7   8
ATOM      8  C   UNL     1       9.230  -4.822  25.708  0.00  0.00    +0.166 C 
BRANCH   8   9
ATOM      9  O   UNL     1       9.258  -5.515  24.449  0.00  0.00    -0.387 OA
ATOM     10  H   UNL     1       8.686  -6.295  24.525  0.00  0.00    +0.210 HD
ENDBRANCH   8   9
BRANCH   8  11
ATOM     11  C   UNL     1       8.096  -5.336  26.616  0.00  0.00    +0.261 C 
BRANCH  11  12
ATOM     12  O   UNL     1       6.863  -4.726  26.235  0.00  0.00    -0.486 OA
BRANCH  12  14
ATOM     13  C   UNL     1       5.660  -5.881  24.359  0.00  0.00    +0.161 A 
ATOM     14  C   UNL     1       5.876  -5.518  25.701  0.00  0.00    +0.162 A 
ATOM     15  C   UNL     1       4.989  -5.988  26.684  0.00  0.00    +0.049 A 
ATOM     16  C   UNL     1       3.925  -6.826  26.359  0.00  0.00    +0.004 A 
ATOM     17  C   UNL     1       3.738  -7.217  25.041  0.00  0.00    +0.004 A 
ATOM     18  C   UNL     1       4.602  -6.753  24.049  0.00  0.00    +0.049 A 
BRANCH  13  20
ATOM     19  C   UNL     1       6.249  -5.859  22.059  0.00  0.00    +0.277 C 
ATOM     20  O   UNL     1       6.509  -5.416  23.388  0.00  0.00    -0.491 OA
ENDBRANCH  13  20
ENDBRANCH  12  14
ENDBRANCH  11  12
ENDBRANCH   8  11
ENDBRANCH   7   8
ENDBRANCH   1   7
BRANCH   4  21
ATOM     21  C   UNL     1       8.553   0.657  22.605  0.00  0.00    +0.180 C 
BRANCH  21  22
ATOM     22  C   UNL     1       8.528   2.197  22.714  0.00  0.00    +0.231 C 
ATOM     23  N   UNL     1       9.140   2.642  23.874  0.00  0.00    -0.284 N 
ATOM     24  H   UNL     1       9.786   1.980  24.285  0.00  0.00    +0.155 HD
ATOM     25  O   UNL     1       8.016   2.902  21.849  0.00  0.00    -0.274 OA
BRANCH  23  26
ATOM     26  C   UNL     1       9.301   3.996  24.238  0.00  0.00    +0.039 A 
ATOM     27  C   UNL     1       8.209   4.637  24.860  0.00  0.00    -0.029 A 
ATOM     28  C   UNL     1       6.981   3.870  25.276  0.00  0.00    +0.045 C 
ATOM     29  C   UNL     1       8.293   6.001  25.168  0.00  0.00    +0.005 A 
ATOM     30  C   UNL     1       9.442   6.724  24.872  0.00  0.00    +0.001 A 
ATOM     31  C   UNL     1      10.522   6.094  24.257  0.00  0.00    +0.005 A 
ATOM     32  C   UNL     1      10.462   4.732  23.906  0.00  0.00    -0.029 A 
ATOM     33  C   UNL     1      11.625   4.164  23.149  0.00  0.00    +0.045 C 
ENDBRANCH  23  26
ENDBRANCH  21  22
ENDBRANCH   4  21
TORSDOF 10
ENDMDL
MODEL 8
REMARK VINA RESULT:      -6.7      1.165      2.665
REMARK  Name = 
REMARK  13 active torsions:
REMARK  status: ('A' for Active; 'I' for Inactive)
REMARK    1  A    between atoms: C_1  and  O_2
REMARK    2  A    between atoms: O_2  and  C_3
REMARK    3  A    between atoms: C_8  and  O_9
REMARK    4  A    between atoms: O_9  and  C_10
REMARK    5  A    between atoms: C_10  and  C_11
REMARK    6  A    between atoms: C_11  and  O_12
REMARK    7  A    between atoms: C_11  and  C_13
REMARK    8  A    between atoms: C_13  and  N_14
REMARK    9  A    between atoms: N_17  and  C_18
REMARK   10  A    between atoms: C_18  and  C_19
REMARK   11  A    between atoms: N_21  and  C_22
REMARK   12  A    between atoms: C_23  and  C_24
REMARK   13  A    between atoms: C_28  and  C_29
REMARK                            x       y       z     vdW  Elec       q    Type
REMARK                         _______ _______ _______ _____ _____    ______ ____
ROOT
ATOM      1  N   UNL     1       9.948   0.362  23.389  0.00  0.00    -0.297 NA
ATOM      2  C   UNL     1       9.492  -0.637  22.397  0.00  0.00    +0.100 C 
ATOM      3  C   UNL     1       8.395  -1.627  22.877  0.00  0.00    +0.100 C 
ATOM      4  N   UNL     1       8.529  -2.179  24.242  0.00  0.00    -0.292 NA
ATOM      5  C   UNL     1       9.017  -1.136  25.172  0.00  0.00    +0.100 C 
ATOM      6  C   UNL     1      10.232  -0.349  24.648  0.00  0.00    +0.100 C 
ENDROOT
BRANCH   1   7
ATOM      7  C   UNL     1       8.961   1.445  23.575  0.00  0.00    +0.119 C 
BRANCH   7   8
ATOM      8  C   UNL     1       8.718   2.335  22.329  0.00  0.00    +0.166 C 
BRANCH   8   9
ATOM      9  O   UNL     1       9.953   2.438  21.601  0.00  0.00    -0.387 OA
ATOM     10  H   UNL     1      10.228   1.541  21.351  0.00  0.00    +0.210 HD
ENDBRANCH   8   9
BRANCH   8  11
ATOM     11  C   UNL     1       8.181   3.721  22.737  0.00  0.00    +0.261 C 
BRANCH  11  12
ATOM     12  O   UNL     1       8.254   3.864  24.156  0.00  0.00    -0.486 OA
BRANCH  12  14
ATOM     13  C   UNL     1       8.662   5.721  25.793  0.00  0.00    +0.161 A 
ATOM     14  C   UNL     1       8.957   4.924  24.672  0.00  0.00    +0.162 A 
ATOM     15  C   UNL     1      10.112   5.204  23.924  0.00  0.00    +0.049 A 
ATOM     16  C   UNL     1      10.981   6.231  24.287  0.00  0.00    +0.004 A 
ATOM     17  C   UNL     1      10.711   6.989  25.417  0.00  0.00    +0.004 A 
ATOM     18  C   UNL     1       9.563   6.733  26.168  0.00  0.00    +0.049 A 
BRANCH  13  20
ATOM     19  C   UNL     1       7.371   6.223  27.722  0.00  0.00    +0.277 C 
ATOM     20  O   UNL     1       7.529   5.469  26.523  0.00  0.00    -0.491 OA
ENDBRANCH  13  20
ENDBRANCH  12  14
ENDBRANCH  11  12
ENDBRANCH   8  11
ENDBRANCH   7   8
ENDBRANCH   1   7
BRANCH   4  21
ATOM     21  C   UNL     1       9.398  -3.372  24.301  0.00  0.00    +0.180 C 
BRANCH  21  22
ATOM     22  C   UNL     1       8.522  -4.633  24.466  0.00  0.00    +0.231 C 
ATOM     23  N   UNL     1       7.215  -4.315  24.797  0.00  0.00    -0.284 N 
ATOM     24  H   UNL     1       6.942  -3.371  24.556  0.00  0.00    +0.155 HD
ATOM     25  O   UNL     1       8.974  -5.763  24.309  0.00  0.00    -0.274 OA
BRANCH  23  26
ATOM     26  C   UNL     1       6.175  -5.249  24.984  0.00  0.00    +0.039 A 
ATOM     27  C   UNL     1       5.961  -5.733  26.291  0.00  0.00    -0.029 A 
ATOM     28  C   UNL     1       6.694  -5.155  27.473  0.00  0.00    +0.045 C 
ATOM     29  C   UNL     1       4.992  -6.721  26.512  0.00  0.00    +0.005 A 
ATOM     30  C   UNL     1       4.239  -7.221  25.457  0.00  0.00    +0.001 A 
ATOM     31  C   UNL     1       4.449  -6.746  24.164  0.00  0.00    +0.005 A 
ATOM     32  C   UNL     1       5.434  -5.776  23.901  0.00  0.00    -0.029 A 
ATOM     33  C   UNL     1       5.667  -5.403  22.466  0.00  0.00    +0.045 C 
ENDBRANCH  23  26
ENDBRANCH  21  22
ENDBRANCH   4  21
TORSDOF 10
ENDMDL
MODEL 9
REMARK VINA RESULT:      -6.6      2.063      9.817
REMARK  Name = 
REMARK  13 active torsions:
REMARK  status: ('A' for Active; 'I' for Inactive)
REMARK    1  A    between atoms: C_1  and  O_2
REMARK    2  A    between atoms: O_2  and  C_3
REMARK    3  A    between atoms: C_8  and  O_9
REMARK    4  A    between atoms: O_9  and  C_10
REMARK    5  A    between atoms: C_10  and  C_11
REMARK    6  A    between atoms: C_11  and  O_12
REMARK    7  A    between atoms: C_11  and  C_13
REMARK    8  A    between atoms: C_13  and  N_14
REMARK    9  A    between atoms: N_17  and  C_18
REMARK   10  A    between atoms: C_18  and  C_19
REMARK   11  A    between atoms: N_21  and  C_22
REMARK   12  A    between atoms: C_23  and  C_24
REMARK   13  A    between atoms: C_28  and  C_29
REMARK                            x       y       z     vdW  Elec       q    Type
REMARK                         _______ _______ _______ _____ _____    ______ ____
ROOT
ATOM      1  N   UNL     1       7.906  -2.081  22.871  0.00  0.00    -0.297 NA
ATOM      2  C   UNL     1       8.160  -1.091  23.940  0.00  0.00    +0.100 C 
ATOM      3  C   UNL     1       8.118   0.402  23.514  0.00  0.00    +0.100 C 
ATOM      4  N   UNL     1       8.751   0.759  22.226  0.00  0.00    -0.292 NA
ATOM      5  C   UNL     1       8.483  -0.288  21.215  0.00  0.00    +0.100 C 
ATOM      6  C   UNL     1       8.744  -1.721  21.714  0.00  0.00    +0.100 C 
ENDROOT
BRANCH   1   7
ATOM      7  C   UNL     1       6.475  -2.156  22.516  0.00  0.00    +0.119 C 
BRANCH   7   8
ATOM      8  C   UNL     1       6.026  -3.491  21.867  0.00  0.00    +0.166 C 
BRANCH   8   9
ATOM      9  O   UNL     1       4.770  -3.875  22.450  0.00  0.00    -0.387 OA
ATOM     10  H   UNL     1       4.954  -4.282  23.312  0.00  0.00    +0.210 HD
ENDBRANCH   8   9
BRANCH   8  11
ATOM     11  C   UNL     1       7.098  -4.582  22.051  0.00  0.00    +0.261 C 
BRANCH  11  12
ATOM     12  O   UNL     1       6.795  -5.360  23.210  0.00  0.00    -0.486 OA
BRANCH  12  14
ATOM     13  C   UNL     1       6.784  -4.423  25.538  0.00  0.00    +0.161 A 
ATOM     14  C   UNL     1       7.375  -5.010  24.404  0.00  0.00    +0.162 A 
ATOM     15  C   UNL     1       8.751  -5.293  24.425  0.00  0.00    +0.049 A 
ATOM     16  C   UNL     1       9.528  -5.033  25.551  0.00  0.00    +0.004 A 
ATOM     17  C   UNL     1       8.935  -4.493  26.684  0.00  0.00    +0.004 A 
ATOM     18  C   UNL     1       7.572  -4.195  26.679  0.00  0.00    +0.049 A 
BRANCH  13  20
ATOM     19  C   UNL     1       5.066  -2.897  26.139  0.00  0.00    +0.277 C 
ATOM     20  O   UNL     1       5.445  -4.126  25.525  0.00  0.00    -0.491 OA
ENDBRANCH  13  20
ENDBRANCH  12  14
ENDBRANCH  11  12
ENDBRANCH   8  11
ENDBRANCH   7   8
ENDBRANCH   1   7
BRANCH   4  21
ATOM     21  C   UNL     1      10.203   1.005  22.344  0.00  0.00    +0.180 C 
BRANCH  21  22
ATOM     22  C   UNL     1      10.455   2.053  23.449  0.00  0.00    +0.231 C 
ATOM     23  N   UNL     1      10.155   3.336  23.023  0.00  0.00    -0.284 N 
ATOM     24  H   UNL     1       9.523   3.376  22.233  0.00  0.00    +0.155 HD
ATOM     25  O   UNL     1      10.871   1.738  24.560  0.00  0.00    -0.274 OA
BRANCH  23  26
ATOM     26  C   UNL     1      10.254   4.499  23.816  0.00  0.00    +0.039 A 
ATOM     27  C   UNL     1       9.114   4.883  24.554  0.00  0.00    -0.029 A 
ATOM     28  C   UNL     1       7.895   4.002  24.632  0.00  0.00    +0.045 C 
ATOM     29  C   UNL     1       9.139   6.072  25.293  0.00  0.00    +0.005 A 
ATOM     30  C   UNL     1      10.276   6.871  25.310  0.00  0.00    +0.001 A 
ATOM     31  C   UNL     1      11.402   6.495  24.582  0.00  0.00    +0.005 A 
ATOM     32  C   UNL     1      11.403   5.322  23.804  0.00  0.00    -0.029 A 
ATOM     33  C   UNL     1      12.618   5.053  22.966  0.00  0.00    +0.045 C 
ENDBRANCH  23  26
ENDBRANCH  21  22
ENDBRANCH   4  21
TORSDOF 10
ENDMDL
