MODEL 1
REMARK VINA RESULT:      -6.7      0.000      0.000
REMARK  Name = 
REMARK  20 active torsions:
REMARK  status: ('A' for Active; 'I' for Inactive)
REMARK    1  A    between atoms: N_1  and  C_2
REMARK    2  A    between atoms: C_2  and  C_3
REMARK    3  A    between atoms: C_3  and  C_4
REMARK    4  A    between atoms: C_4  and  O_6
REMARK    5  A    between atoms: C_4  and  C_7
REMARK    6  A    between atoms: N_9  and  C_10
REMARK    7  A    between atoms: C_13  and  N_15
REMARK    8  A    between atoms: C_16  and  O_18
REMARK    9  A    between atoms: O_18  and  C_19
REMARK   10  A    between atoms: C_22  and  C_24
REMARK   11  A    between atoms: C_24  and  N_25
REMARK   12  A    between atoms: C_28  and  N_30
REMARK   13  A    between atoms: C_31  and  O_33
REMARK   14  A    between atoms: C_34  and  O_36
REMARK   15  A    between atoms: O_36  and  C_37
REMARK   16  A    between atoms: C_40  and  C_42
REMARK   17  A    between atoms: C_42  and  O_43
REMARK   18  A    between atoms: C_44  and  O_46
REMARK   19  A    between atoms: C_47  and  N_49
REMARK   20  A    between atoms: C_50  and  O_52
REMARK                            x       y       z     vdW  Elec       q    Type
REMARK                         _______ _______ _______ _____ _____    ______ ____
ROOT
ATOM      1  C   UNL     1       4.360  -5.303  23.974  0.00  0.00    +0.106 C 
ATOM      2  C   UNL     1       5.716  -5.768  24.554  0.00  0.00    +0.173 C 
ATOM      3  C   UNL     1       6.796  -4.650  24.557  0.00  0.00    +0.175 C 
ATOM      4  C   UNL     1       6.879  -3.797  23.257  0.00  0.00    +0.169 C 
ATOM      5  C   UNL     1       5.465  -3.436  22.713  0.00  0.00    +0.084 C 
ATOM      6  C   UNL     1       4.555  -4.652  22.610  0.00  0.00    +0.046 C 
ENDROOT
BRANCH   1   8
ATOM      7  C   UNL     1       2.131  -6.395  24.260  0.00  0.00    +0.242 C 
ATOM      8  N   UNL     1       3.428  -6.424  23.801  0.00  0.00    -0.308 N 
ATOM      9  H   UNL     1       3.795  -7.281  23.402  0.00  0.00    +0.149 HD
ATOM     10  O   UNL     1       1.618  -5.393  24.764  0.00  0.00    -0.273 OA
BRANCH   7  11
ATOM     11  C   UNL     1       1.392  -7.752  24.233  0.00  0.00    +0.201 C 
BRANCH  11  12
ATOM     12  O   UNL     1       2.020  -8.682  23.357  0.00  0.00    -0.383 OA
ATOM     13  H   UNL     1       1.477  -8.696  22.543  0.00  0.00    +0.210 HD
ENDBRANCH  11  12
BRANCH  11  14
ATOM     14  C   UNL     1       1.234  -8.393  25.611  0.00  0.00    +0.056 C 
BRANCH  14  15
ATOM     15  C   UNL     1       0.814  -9.860  25.532  0.00  0.00    +0.080 C 
BRANCH  15  16
ATOM     16  N   UNL     1       2.002 -10.708  25.605  0.00  0.00    -0.330 NA
ATOM     17  H   UNL     1       1.894 -11.493  24.960  0.00  0.00    +0.118 HD
ATOM     18  H   UNL     1       2.806 -10.182  25.261  0.00  0.00    +0.118 HD
ENDBRANCH  15  16
ENDBRANCH  14  15
ENDBRANCH  11  14
ENDBRANCH   7  11
ENDBRANCH   1   8
BRANCH   5  19
ATOM     19  N   UNL     1       5.523  -2.779  21.392  0.00  0.00    -0.325 NA
ATOM     20  H   UNL     1       5.934  -1.848  21.480  0.00  0.00    +0.119 HD
ATOM     21  H   UNL     1       6.134  -3.306  20.772  0.00  0.00    +0.119 HD
ENDBRANCH   5  19
BRANCH   3  22
ATOM     22  O   UNL     1       8.035  -5.366  24.792  0.00  0.00    -0.387 OA
ATOM     23  H   UNL     1       8.411  -5.108  25.646  0.00  0.00    +0.210 HD
ENDBRANCH   3  22
BRANCH   4  24
ATOM     24  O   UNL     1       7.520  -2.514  23.456  0.00  0.00    -0.342 OA
BRANCH  24  25
ATOM     25  C   UNL     1       8.616  -2.169  22.612  0.00  0.00    +0.268 C 
ATOM     26  C   UNL     1       9.938  -2.119  23.438  0.00  0.00    +0.107 C 
ATOM     27  C   UNL     1       9.992  -0.863  24.311  0.00  0.00    +0.026 C 
ATOM     28  C   UNL     1       9.700   0.369  23.462  0.00  0.00    +0.034 C 
ATOM     29  C   UNL     1       8.365   0.206  22.731  0.00  0.00    +0.135 C 
ATOM     30  O   UNL     1       8.401  -0.960  21.883  0.00  0.00    -0.345 OA
BRANCH  26  31
ATOM     31  N   UNL     1      10.136  -3.325  24.259  0.00  0.00    -0.323 NA
ATOM     32  H   UNL     1      10.235  -3.065  25.238  0.00  0.00    +0.119 HD
ATOM     33  H   UNL     1       9.274  -3.877  24.200  0.00  0.00    +0.119 HD
ENDBRANCH  26  31
BRANCH  29  34
ATOM     34  C   UNL     1       8.090   1.451  21.862  0.00  0.00    +0.109 C 
BRANCH  34  35
ATOM     35  N   UNL     1       9.331   2.122  21.466  0.00  0.00    -0.328 NA
ATOM     36  H   UNL     1       9.423   2.992  21.988  0.00  0.00    +0.118 HD
ATOM     37  H   UNL     1      10.113   1.533  21.759  0.00  0.00    +0.118 HD
ENDBRANCH  34  35
ENDBRANCH  29  34
ENDBRANCH  24  25
ENDBRANCH   4  24
BRANCH   2  38
ATOM     38  O   UNL     1       5.622  -6.246  25.929  0.00  0.00    -0.341 OA
BRANCH  38  39
ATOM     39  C   UNL     1       5.501  -5.230  26.925  0.00  0.00    +0.281 C 
ATOM     40  C   UNL     1       6.376  -5.522  28.162  0.00  0.00    +0.189 C 
ATOM     41  C   UNL     1       5.784  -6.672  28.989  0.00  0.00    +0.116 C 
ATOM     42  C   UNL     1       4.303  -6.367  29.298  0.00  0.00    +0.165 C 
ATOM     43  C   UNL     1       3.547  -6.099  27.987  0.00  0.00    +0.177 C 
ATOM     44  O   UNL     1       4.136  -4.982  27.284  0.00  0.00    -0.341 OA
BRANCH  41  45
ATOM     45  N   UNL     1       6.546  -6.915  30.233  0.00  0.00    -0.323 NA
ATOM     46  H   UNL     1       6.729  -6.032  30.709  0.00  0.00    +0.119 HD
ATOM     47  H   UNL     1       5.957  -7.453  30.875  0.00  0.00    +0.119 HD
ENDBRANCH  41  45
BRANCH  42  48
ATOM     48  O   UNL     1       3.726  -7.449  30.032  0.00  0.00    -0.388 OA
ATOM     49  H   UNL     1       4.177  -7.506  30.894  0.00  0.00    +0.210 HD
ENDBRANCH  42  48
BRANCH  40  50
ATOM     50  O   UNL     1       7.730  -5.776  27.778  0.00  0.00    -0.385 OA
ATOM     51  H   UNL     1       7.788  -5.595  26.821  0.00  0.00    +0.210 HD
ENDBRANCH  40  50
BRANCH  43  52
ATOM     52  C   UNL     1       2.070  -5.776  28.245  0.00  0.00    +0.190 C 
BRANCH  52  53
ATOM     53  O   UNL     1       1.678  -4.637  27.475  0.00  0.00    -0.392 OA
ATOM     54  H   UNL     1       0.727  -4.742  27.297  0.00  0.00    +0.210 HD
ENDBRANCH  52  53
ENDBRANCH  43  52
ENDBRANCH  38  39
ENDBRANCH   2  38
TORSDOF 20
ENDMDL
MODEL 2
REMARK VINA RESULT:      -6.5      3.435      9.652
REMARK  Name = 
REMARK  20 active torsions:
REMARK  status: ('A' for Active; 'I' for Inactive)
REMARK    1  A    between atoms: N_1  and  C_2
REMARK    2  A    between atoms: C_2  and  C_3
REMARK    3  A    between atoms: C_3  and  C_4
REMARK    4  A    between atoms: C_4  and  O_6
REMARK    5  A    between atoms: C_4  and  C_7
REMARK    6  A    between atoms: N_9  and  C_10
REMARK    7  A    between atoms: C_13  and  N_15
REMARK    8  A    between atoms: C_16  and  O_18
REMARK    9  A    between atoms: O_18  and  C_19
REMARK   10  A    between atoms: C_22  and  C_24
REMARK   11  A    between atoms: C_24  and  N_25
REMARK   12  A    between atoms: C_28  and  N_30
REMARK   13  A    between atoms: C_31  and  O_33
REMARK   14  A    between atoms: C_34  and  O_36
REMARK   15  A    between atoms: O_36  and  C_37
REMARK   16  A    between atoms: C_40  and  C_42
REMARK   17  A    between atoms: C_42  and  O_43
REMARK   18  A    between atoms: C_44  and  O_46
REMARK   19  A    between atoms: C_47  and  N_49
REMARK   20  A    between atoms: C_50  and  O_52
REMARK                            x       y       z     vdW  Elec       q    Type
REMARK                         _______ _______ _______ _____ _____    ______ ____
ROOT
ATOM      1  C   UNL     1       8.883  -0.748  23.728  0.00  0.00    +0.106 C 
ATOM      2  C   UNL     1       7.513  -0.959  23.042  0.00  0.00    +0.173 C 
ATOM      3  C   UNL     1       6.714  -2.158  23.626  0.00  0.00    +0.175 C 
ATOM      4  C   UNL     1       7.541  -3.451  23.884  0.00  0.00    +0.169 C 
ATOM      5  C   UNL     1       8.930  -3.131  24.513  0.00  0.00    +0.084 C 
ATOM      6  C   UNL     1       9.678  -2.049  23.748  0.00  0.00    +0.046 C 
ENDROOT
BRANCH   1   8
ATOM      7  C   UNL     1      10.420   1.220  23.689  0.00  0.00    +0.242 C 
ATOM      8  N   UNL     1       9.694   0.256  23.029  0.00  0.00    -0.308 N 
ATOM      9  H   UNL     1       9.638   0.282  22.017  0.00  0.00    +0.149 HD
ATOM     10  O   UNL     1      10.527   1.259  24.917  0.00  0.00    -0.273 OA
BRANCH   7  11
ATOM     11  C   UNL     1      10.984   2.348  22.795  0.00  0.00    +0.201 C 
BRANCH  11  12
ATOM     12  O   UNL     1      10.329   2.403  21.533  0.00  0.00    -0.383 OA
ATOM     13  H   UNL     1      10.682   3.194  21.079  0.00  0.00    +0.210 HD
ENDBRANCH  11  12
BRANCH  11  14
ATOM     14  C   UNL     1      10.933   3.730  23.444  0.00  0.00    +0.056 C 
BRANCH  14  15
ATOM     15  C   UNL     1      12.275   4.458  23.385  0.00  0.00    +0.080 C 
BRANCH  15  16
ATOM     16  N   UNL     1      12.341   5.254  22.162  0.00  0.00    -0.330 NA
ATOM     17  H   UNL     1      11.409   5.610  21.943  0.00  0.00    +0.118 HD
ATOM     18  H   UNL     1      12.915   6.080  22.335  0.00  0.00    +0.118 HD
ENDBRANCH  15  16
ENDBRANCH  14  15
ENDBRANCH  11  14
ENDBRANCH   7  11
ENDBRANCH   1   8
BRANCH   5  19
ATOM     19  N   UNL     1       9.794  -4.326  24.602  0.00  0.00    -0.325 NA
ATOM     20  H   UNL     1      10.683  -4.153  24.131  0.00  0.00    +0.119 HD
ATOM     21  H   UNL     1      10.016  -4.518  25.576  0.00  0.00    +0.119 HD
ENDBRANCH   5  19
BRANCH   3  22
ATOM     22  O   UNL     1       5.672  -2.390  22.645  0.00  0.00    -0.387 OA
ATOM     23  H   UNL     1       4.835  -2.013  22.952  0.00  0.00    +0.210 HD
ENDBRANCH   3  22
BRANCH   4  24
ATOM     24  O   UNL     1       6.919  -4.347  24.836  0.00  0.00    -0.342 OA
BRANCH  24  25
ATOM     25  C   UNL     1       6.557  -3.828  26.113  0.00  0.00    +0.268 C 
ATOM     26  C   UNL     1       6.723  -4.927  27.208  0.00  0.00    +0.107 C 
ATOM     27  C   UNL     1       5.600  -5.963  27.120  0.00  0.00    +0.026 C 
ATOM     28  C   UNL     1       4.249  -5.259  27.095  0.00  0.00    +0.034 C 
ATOM     29  C   UNL     1       4.205  -4.232  25.959  0.00  0.00    +0.135 C 
ATOM     30  O   UNL     1       5.250  -3.253  26.135  0.00  0.00    -0.345 OA
BRANCH  26  31
ATOM     31  N   UNL     1       8.039  -5.587  27.149  0.00  0.00    -0.323 NA
ATOM     32  H   UNL     1       8.586  -5.201  26.382  0.00  0.00    +0.119 HD
ATOM     33  H   UNL     1       8.541  -5.339  28.007  0.00  0.00    +0.119 HD
ENDBRANCH  26  31
BRANCH  29  34
ATOM     34  C   UNL     1       2.839  -3.514  25.956  0.00  0.00    +0.109 C 
BRANCH  34  35
ATOM     35  N   UNL     1       2.979  -2.081  26.228  0.00  0.00    -0.328 NA
ATOM     36  H   UNL     1       2.565  -1.552  25.462  0.00  0.00    +0.118 HD
ATOM     37  H   UNL     1       2.419  -1.864  27.056  0.00  0.00    +0.118 HD
ENDBRANCH  34  35
ENDBRANCH  29  34
ENDBRANCH  24  25
ENDBRANCH   4  24
BRANCH   2  38
ATOM     38  O   UNL     1       6.635   0.201  23.140  0.00  0.00    -0.341 OA
BRANCH  38  39
ATOM     39  C   UNL     1       6.832   1.025  24.290  0.00  0.00    +0.281 C 
ATOM     40  C   UNL     1       5.528   1.226  25.090  0.00  0.00    +0.189 C 
ATOM     41  C   UNL     1       4.569   2.164  24.345  0.00  0.00    +0.116 C 
ATOM     42  C   UNL     1       5.313   3.466  23.978  0.00  0.00    +0.165 C 
ATOM     43  C   UNL     1       6.584   3.127  23.183  0.00  0.00    +0.177 C 
ATOM     44  O   UNL     1       7.453   2.274  23.962  0.00  0.00    -0.341 OA
BRANCH  41  45
ATOM     45  N   UNL     1       3.349   2.454  25.130  0.00  0.00    -0.323 NA
ATOM     46  H   UNL     1       3.265   1.792  25.901  0.00  0.00    +0.119 HD
ATOM     47  H   UNL     1       3.456   3.373  25.569  0.00  0.00    +0.119 HD
ENDBRANCH  41  45
BRANCH  42  48
ATOM     48  O   UNL     1       4.445   4.333  23.246  0.00  0.00    -0.388 OA
ATOM     49  H   UNL     1       3.633   3.840  23.032  0.00  0.00    +0.210 HD
ENDBRANCH  42  48
BRANCH  40  50
ATOM     50  O   UNL     1       4.922  -0.032  25.397  0.00  0.00    -0.385 OA
ATOM     51  H   UNL     1       4.980  -0.142  26.365  0.00  0.00    +0.210 HD
ENDBRANCH  40  50
BRANCH  43  52
ATOM     52  C   UNL     1       7.367   4.392  22.808  0.00  0.00    +0.190 C 
BRANCH  52  53
ATOM     53  O   UNL     1       6.676   5.107  21.782  0.00  0.00    -0.392 OA
ATOM     54  H   UNL     1       7.204   5.904  21.602  0.00  0.00    +0.210 HD
ENDBRANCH  52  53
ENDBRANCH  43  52
ENDBRANCH  38  39
ENDBRANCH   2  38
TORSDOF 20
ENDMDL
MODEL 3
REMARK VINA RESULT:      -6.2      4.602      9.964
REMARK  Name = 
REMARK  20 active torsions:
REMARK  status: ('A' for Active; 'I' for Inactive)
REMARK    1  A    between atoms: N_1  and  C_2
REMARK    2  A    between atoms: C_2  and  C_3
REMARK    3  A    between atoms: C_3  and  C_4
REMARK    4  A    between atoms: C_4  and  O_6
REMARK    5  A    between atoms: C_4  and  C_7
REMARK    6  A    between atoms: N_9  and  C_10
REMARK    7  A    between atoms: C_13  and  N_15
REMARK    8  A    between atoms: C_16  and  O_18
REMARK    9  A    between atoms: O_18  and  C_19
REMARK   10  A    between atoms: C_22  and  C_24
REMARK   11  A    between atoms: C_24  and  N_25
REMARK   12  A    between atoms: C_28  and  N_30
REMARK   13  A    between atoms: C_31  and  O_33
REMARK   14  A    between atoms: C_34  and  O_36
REMARK   15  A    between atoms: O_36  and  C_37
REMARK   16  A    between atoms: C_40  and  C_42
REMARK   17  A    between atoms: C_42  and  O_43
REMARK   18  A    between atoms: C_44  and  O_46
REMARK   19  A    between atoms: C_47  and  N_49
REMARK   20  A    between atoms: C_50  and  O_52
REMARK                            x       y       z     vdW  Elec       q    Type
REMARK                         _______ _______ _______ _____ _____    ______ ____
ROOT
ATOM      1  C   UNL     1       9.210   1.984  23.448  0.00  0.00    +0.106 C 
ATOM      2  C   UNL     1       7.771   1.774  23.974  0.00  0.00    +0.173 C 
ATOM      3  C   UNL     1       7.344   0.280  24.008  0.00  0.00    +0.175 C 
ATOM      4  C   UNL     1       7.728  -0.554  22.751  0.00  0.00    +0.169 C 
ATOM      5  C   UNL     1       9.168  -0.224  22.257  0.00  0.00    +0.084 C 
ATOM      6  C   UNL     1       9.403   1.272  22.114  0.00  0.00    +0.046 C 
ENDROOT
BRANCH   1   8
ATOM      7  C   UNL     1      10.768   3.937  23.429  0.00  0.00    +0.242 C 
ATOM      8  N   UNL     1       9.513   3.405  23.240  0.00  0.00    -0.308 N 
ATOM      9  H   UNL     1       8.737   4.024  23.033  0.00  0.00    +0.149 HD
ATOM     10  O   UNL     1      11.758   3.250  23.692  0.00  0.00    -0.273 OA
BRANCH   7  11
ATOM     11  C   UNL     1      10.836   5.481  23.431  0.00  0.00    +0.201 C 
BRANCH  11  12
ATOM     12  O   UNL     1       9.903   6.053  24.341  0.00  0.00    -0.383 OA
ATOM     13  H   UNL     1       9.018   5.767  24.036  0.00  0.00    +0.210 HD
ENDBRANCH  11  12
BRANCH  11  14
ATOM     14  C   UNL     1      12.228   6.035  23.731  0.00  0.00    +0.056 C 
BRANCH  14  15
ATOM     15  C   UNL     1      13.212   5.804  22.584  0.00  0.00    +0.080 C 
BRANCH  15  16
ATOM     16  N   UNL     1      14.353   5.034  23.073  0.00  0.00    -0.330 NA
ATOM     17  H   UNL     1      14.245   4.875  24.077  0.00  0.00    +0.118 HD
ATOM     18  H   UNL     1      14.334   4.107  22.648  0.00  0.00    +0.118 HD
ENDBRANCH  15  16
ENDBRANCH  14  15
ENDBRANCH  11  14
ENDBRANCH   7  11
ENDBRANCH   1   8
BRANCH   5  19
ATOM     19  N   UNL     1       9.482  -0.875  20.969  0.00  0.00    -0.325 NA
ATOM     20  H   UNL     1       8.652  -0.897  20.374  0.00  0.00    +0.119 HD
ATOM     21  H   UNL     1      10.180  -0.330  20.470  0.00  0.00    +0.119 HD
ENDBRANCH   5  19
BRANCH   3  22
ATOM     22  O   UNL     1       5.905   0.335  24.180  0.00  0.00    -0.387 OA
ATOM     23  H   UNL     1       5.687   0.753  25.025  0.00  0.00    +0.210 HD
ENDBRANCH   3  22
BRANCH   4  24
ATOM     24  O   UNL     1       7.756  -1.981  22.999  0.00  0.00    -0.342 OA
BRANCH  24  25
ATOM     25  C   UNL     1       7.642  -2.433  24.346  0.00  0.00    +0.268 C 
ATOM     26  C   UNL     1       8.525  -3.701  24.566  0.00  0.00    +0.107 C 
ATOM     27  C   UNL     1       7.887  -4.932  23.917  0.00  0.00    +0.026 C 
ATOM     28  C   UNL     1       6.435  -5.056  24.362  0.00  0.00    +0.034 C 
ATOM     29  C   UNL     1       5.674  -3.762  24.063  0.00  0.00    +0.135 C 
ATOM     30  O   UNL     1       6.290  -2.653  24.750  0.00  0.00    -0.345 OA
BRANCH  26  31
ATOM     31  N   UNL     1       9.903  -3.519  24.080  0.00  0.00    -0.323 NA
ATOM     32  H   UNL     1      10.486  -4.292  24.394  0.00  0.00    +0.119 HD
ATOM     33  H   UNL     1       9.876  -3.583  23.058  0.00  0.00    +0.119 HD
ENDBRANCH  26  31
BRANCH  29  34
ATOM     34  C   UNL     1       4.211  -3.895  24.535  0.00  0.00    +0.109 C 
BRANCH  34  35
ATOM     35  N   UNL     1       3.771  -2.711  25.280  0.00  0.00    -0.328 NA
ATOM     36  H   UNL     1       3.239  -2.103  24.659  0.00  0.00    +0.118 HD
ATOM     37  H   UNL     1       3.117  -3.021  26.001  0.00  0.00    +0.118 HD
ENDBRANCH  34  35
ENDBRANCH  29  34
ENDBRANCH  24  25
ENDBRANCH   4  24
BRANCH   2  38
ATOM     38  O   UNL     1       7.571   2.286  25.325  0.00  0.00    -0.341 OA
BRANCH  38  39
ATOM     39  C   UNL     1       6.593   3.320  25.451  0.00  0.00    +0.281 C 
ATOM     40  C   UNL     1       6.976   4.352  26.531  0.00  0.00    +0.189 C 
ATOM     41  C   UNL     1       6.808   3.758  27.937  0.00  0.00    +0.116 C 
ATOM     42  C   UNL     1       5.387   3.169  28.074  0.00  0.00    +0.165 C 
ATOM     43  C   UNL     1       5.137   2.158  26.944  0.00  0.00    +0.177 C 
ATOM     44  O   UNL     1       5.275   2.797  25.656  0.00  0.00    -0.341 OA
BRANCH  41  45
ATOM     45  N   UNL     1       7.075   4.752  28.999  0.00  0.00    -0.323 NA
ATOM     46  H   UNL     1       6.200   5.033  29.442  0.00  0.00    +0.119 HD
ATOM     47  H   UNL     1       7.621   4.299  29.738  0.00  0.00    +0.119 HD
ENDBRANCH  41  45
BRANCH  42  48
ATOM     48  O   UNL     1       5.229   2.575  29.364  0.00  0.00    -0.388 OA
ATOM     49  H   UNL     1       4.435   2.957  29.779  0.00  0.00    +0.210 HD
ENDBRANCH  42  48
BRANCH  40  50
ATOM     50  O   UNL     1       8.298   4.851  26.312  0.00  0.00    -0.385 OA
ATOM     51  H   UNL     1       8.794   4.705  27.140  0.00  0.00    +0.210 HD
ENDBRANCH  40  50
BRANCH  43  52
ATOM     52  C   UNL     1       3.729   1.556  27.031  0.00  0.00    +0.190 C 
BRANCH  52  53
ATOM     53  O   UNL     1       3.701   0.284  26.380  0.00  0.00    -0.392 OA
ATOM     54  H   UNL     1       3.882  -0.379  27.069  0.00  0.00    +0.210 HD
ENDBRANCH  52  53
ENDBRANCH  43  52
ENDBRANCH  38  39
ENDBRANCH   2  38
TORSDOF 20
ENDMDL
MODEL 4
REMARK VINA RESULT:      -6.1      3.296      5.750
REMARK  Name = 
REMARK  20 active torsions:
REMARK  status: ('A' for Active; 'I' for Inactive)
REMARK    1  A    between atoms: N_1  and  C_2
REMARK    2  A    between atoms: C_2  and  C_3
REMARK    3  A    between atoms: C_3  and  C_4
REMARK    4  A    between atoms: C_4  and  O_6
REMARK    5  A    between atoms: C_4  and  C_7
REMARK    6  A    between atoms: N_9  and  C_10
REMARK    7  A    between atoms: C_13  and  N_15
REMARK    8  A    between atoms: C_16  and  O_18
REMARK    9  A    between atoms: O_18  and  C_19
REMARK   10  A    between atoms: C_22  and  C_24
REMARK   11  A    between atoms: C_24  and  N_25
REMARK   12  A    between atoms: C_28  and  N_30
REMARK   13  A    between atoms: C_31  and  O_33
REMARK   14  A    between atoms: C_34  and  O_36
REMARK   15  A    between atoms: O_36  and  C_37
REMARK   16  A    between atoms: C_40  and  C_42
REMARK   17  A    between atoms: C_42  and  O_43
REMARK   18  A    between atoms: C_44  and  O_46
REMARK   19  A    between atoms: C_47  and  N_49
REMARK   20  A    between atoms: C_50  and  O_52
REMARK                            x       y       z     vdW  Elec       q    Type
REMARK                         _______ _______ _______ _____ _____    ______ ____
ROOT
ATOM      1  C   UNL     1       8.027  -1.369  23.073  0.00  0.00    +0.106 C 
ATOM      2  C   UNL     1       8.579  -1.183  24.506  0.00  0.00    +0.173 C 
ATOM      3  C   UNL     1       8.712   0.309  24.922  0.00  0.00    +0.175 C 
ATOM      4  C   UNL     1       9.317   1.253  23.841  0.00  0.00    +0.169 C 
ATOM      5  C   UNL     1       8.750   0.945  22.424  0.00  0.00    +0.084 C 
ATOM      6  C   UNL     1       8.825  -0.535  22.078  0.00  0.00    +0.046 C 
ENDROOT
BRANCH   1   8
ATOM      7  C   UNL     1       7.047  -3.419  22.036  0.00  0.00    +0.242 C 
ATOM      8  N   UNL     1       8.100  -2.769  22.638  0.00  0.00    -0.308 N 
ATOM      9  H   UNL     1       8.936  -3.291  22.876  0.00  0.00    +0.149 HD
ATOM     10  O   UNL     1       5.995  -2.854  21.725  0.00  0.00    -0.273 OA
BRANCH   7  11
ATOM     11  C   UNL     1       7.210  -4.950  21.899  0.00  0.00    +0.201 C 
BRANCH  11  12
ATOM     12  O   UNL     1       7.689  -5.543  23.102  0.00  0.00    -0.383 OA
ATOM     13  H   UNL     1       7.025  -5.333  23.789  0.00  0.00    +0.210 HD
ENDBRANCH  11  12
BRANCH  11  14
ATOM     14  C   UNL     1       5.933  -5.668  21.464  0.00  0.00    +0.056 C 
BRANCH  14  15
ATOM     15  C   UNL     1       5.016  -6.000  22.640  0.00  0.00    +0.080 C 
BRANCH  15  16
ATOM     16  N   UNL     1       4.113  -4.878  22.882  0.00  0.00    -0.330 NA
ATOM     17  H   UNL     1       4.033  -4.722  23.889  0.00  0.00    +0.118 HD
ATOM     18  H   UNL     1       4.535  -4.027  22.508  0.00  0.00    +0.118 HD
ENDBRANCH  15  16
ENDBRANCH  14  15
ENDBRANCH  11  14
ENDBRANCH   7  11
ENDBRANCH   1   8
BRANCH   5  19
ATOM     19  N   UNL     1       9.438   1.711  21.365  0.00  0.00    -0.325 NA
ATOM     20  H   UNL     1       8.755   2.189  20.776  0.00  0.00    +0.119 HD
ATOM     21  H   UNL     1      10.014   2.437  21.786  0.00  0.00    +0.119 HD
ENDBRANCH   5  19
BRANCH   3  22
ATOM     22  O   UNL     1       9.549   0.265  26.105  0.00  0.00    -0.387 OA
ATOM     23  H   UNL     1      10.403  -0.140  25.894  0.00  0.00    +0.210 HD
ENDBRANCH   3  22
BRANCH   4  24
ATOM     24  O   UNL     1       8.993   2.648  24.057  0.00  0.00    -0.342 OA
BRANCH  24  25
ATOM     25  C   UNL     1       7.618   3.026  24.081  0.00  0.00    +0.268 C 
ATOM     26  C   UNL     1       7.455   4.498  23.592  0.00  0.00    +0.107 C 
ATOM     27  C   UNL     1       7.922   5.486  24.662  0.00  0.00    +0.026 C 
ATOM     28  C   UNL     1       7.257   5.158  25.994  0.00  0.00    +0.034 C 
ATOM     29  C   UNL     1       7.519   3.698  26.373  0.00  0.00    +0.135 C 
ATOM     30  O   UNL     1       7.003   2.819  25.353  0.00  0.00    -0.345 OA
BRANCH  26  31
ATOM     31  N   UNL     1       8.152   4.750  22.319  0.00  0.00    -0.323 NA
ATOM     32  H   UNL     1       8.642   5.641  22.362  0.00  0.00    +0.119 HD
ATOM     33  H   UNL     1       8.878   4.033  22.224  0.00  0.00    +0.119 HD
ENDBRANCH  26  31
BRANCH  29  34
ATOM     34  C   UNL     1       6.826   3.374  27.713  0.00  0.00    +0.109 C 
BRANCH  34  35
ATOM     35  N   UNL     1       7.227   2.061  28.228  0.00  0.00    -0.328 NA
ATOM     36  H   UNL     1       8.200   1.888  27.983  0.00  0.00    +0.118 HD
ATOM     37  H   UNL     1       7.195   2.103  29.249  0.00  0.00    +0.118 HD
ENDBRANCH  34  35
ENDBRANCH  29  34
ENDBRANCH  24  25
ENDBRANCH   4  24
BRANCH   2  38
ATOM     38  O   UNL     1       7.757  -1.819  25.528  0.00  0.00    -0.341 OA
BRANCH  38  39
ATOM     39  C   UNL     1       6.392  -2.038  25.169  0.00  0.00    +0.281 C 
ATOM     40  C   UNL     1       5.418  -1.292  26.106  0.00  0.00    +0.189 C 
ATOM     41  C   UNL     1       5.363  -1.965  27.484  0.00  0.00    +0.116 C 
ATOM     42  C   UNL     1       5.069  -3.470  27.304  0.00  0.00    +0.165 C 
ATOM     43  C   UNL     1       6.108  -4.089  26.357  0.00  0.00    +0.177 C 
ATOM     44  O   UNL     1       6.074  -3.431  25.071  0.00  0.00    -0.341 OA
BRANCH  41  45
ATOM     45  N   UNL     1       4.368  -1.332  28.376  0.00  0.00    -0.323 NA
ATOM     46  H   UNL     1       4.764  -1.209  29.308  0.00  0.00    +0.119 HD
ATOM     47  H   UNL     1       4.180  -0.386  28.033  0.00  0.00    +0.119 HD
ENDBRANCH  41  45
BRANCH  42  48
ATOM     48  O   UNL     1       5.056  -4.119  28.577  0.00  0.00    -0.388 OA
ATOM     49  H   UNL     1       5.947  -4.478  28.743  0.00  0.00    +0.210 HD
ENDBRANCH  42  48
BRANCH  40  50
ATOM     50  O   UNL     1       5.761   0.094  26.196  0.00  0.00    -0.385 OA
ATOM     51  H   UNL     1       6.203   0.328  25.358  0.00  0.00    +0.210 HD
ENDBRANCH  40  50
BRANCH  43  52
ATOM     52  C   UNL     1       5.845  -5.585  26.135  0.00  0.00    +0.190 C 
BRANCH  52  53
ATOM     53  O   UNL     1       6.374  -6.340  27.227  0.00  0.00    -0.392 OA
ATOM     54  H   UNL     1       5.608  -6.640  27.747  0.00  0.00    +0.210 HD
ENDBRANCH  52  53
ENDBRANCH  43  52
ENDBRANCH  38  39
ENDBRANCH   2  38
TORSDOF 20
ENDMDL
MODEL 5
REMARK VINA RESULT:      -6.0      3.207      4.503
REMARK  Name = 
REMARK  20 active torsions:
REMARK  status: ('A' for Active; 'I' for Inactive)
REMARK    1  A    between atoms: N_1  and  C_2
REMARK    2  A    between atoms: C_2  and  C_3
REMARK    3  A    between atoms: C_3  and  C_4
REMARK    4  A    between atoms: C_4  and  O_6
REMARK    5  A    between atoms: C_4  and  C_7
REMARK    6  A    between atoms: N_9  and  C_10
REMARK    7  A    between atoms: C_13  and  N_15
REMARK    8  A    between atoms: C_16  and  O_18
REMARK    9  A    between atoms: O_18  and  C_19
REMARK   10  A    between atoms: C_22  and  C_24
REMARK   11  A    between atoms: C_24  and  N_25
REMARK   12  A    between atoms: C_28  and  N_30
REMARK   13  A    between atoms: C_31  and  O_33
REMARK   14  A    between atoms: C_34  and  O_36
REMARK   15  A    between atoms: O_36  and  C_37
REMARK   16  A    between atoms: C_40  and  C_42
REMARK   17  A    between atoms: C_42  and  O_43
REMARK   18  A    between atoms: C_44  and  O_46
REMARK   19  A    between atoms: C_47  and  N_49
REMARK   20  A    between atoms: C_50  and  O_52
REMARK                            x       y       z     vdW  Elec       q    Type
REMARK                         _______ _______ _______ _____ _____    ______ ____
ROOT
ATOM      1  C   UNL     1       7.200  -2.721  23.706  0.00  0.00    +0.106 C 
ATOM      2  C   UNL     1       7.641  -2.385  25.149  0.00  0.00    +0.173 C 
ATOM      3  C   UNL     1       8.323  -0.994  25.273  0.00  0.00    +0.175 C 
ATOM      4  C   UNL     1       9.357  -0.654  24.159  0.00  0.00    +0.169 C 
ATOM      5  C   UNL     1       8.852  -1.090  22.752  0.00  0.00    +0.084 C 
ATOM      6  C   UNL     1       8.358  -2.530  22.733  0.00  0.00    +0.046 C 
ENDROOT
BRANCH   1   8
ATOM      7  C   UNL     1       5.616  -4.468  22.881  0.00  0.00    +0.242 C 
ATOM      8  N   UNL     1       6.744  -4.111  23.584  0.00  0.00    -0.308 N 
ATOM      9  H   UNL     1       7.241  -4.816  24.118  0.00  0.00    +0.149 HD
ATOM     10  O   UNL     1       4.955  -3.666  22.217  0.00  0.00    -0.273 OA
BRANCH   7  11
ATOM     11  C   UNL     1       5.143  -5.925  23.091  0.00  0.00    +0.201 C 
BRANCH  11  12
ATOM     12  O   UNL     1       5.822  -6.833  22.230  0.00  0.00    -0.383 OA
ATOM     13  H   UNL     1       5.190  -7.053  21.517  0.00  0.00    +0.210 HD
ENDBRANCH  11  12
BRANCH  11  14
ATOM     14  C   UNL     1       5.274  -6.412  24.533  0.00  0.00    +0.056 C 
BRANCH  14  15
ATOM     15  C   UNL     1       4.000  -7.082  25.045  0.00  0.00    +0.080 C 
BRANCH  15  16
ATOM     16  N   UNL     1       3.430  -7.910  23.986  0.00  0.00    -0.330 NA
ATOM     17  H   UNL     1       2.810  -8.609  24.403  0.00  0.00    +0.118 HD
ATOM     18  H   UNL     1       2.830  -7.330  23.399  0.00  0.00    +0.118 HD
ENDBRANCH  15  16
ENDBRANCH  14  15
ENDBRANCH  11  14
ENDBRANCH   7  11
ENDBRANCH   1   8
BRANCH   5  19
ATOM     19  N   UNL     1       9.888  -0.935  21.711  0.00  0.00    -0.325 NA
ATOM     20  H   UNL     1       9.774  -0.041  21.231  0.00  0.00    +0.119 HD
ATOM     21  H   UNL     1      10.809  -0.914  22.143  0.00  0.00    +0.119 HD
ENDBRANCH   5  19
BRANCH   3  22
ATOM     22  O   UNL     1       8.954  -1.032  26.578  0.00  0.00    -0.387 OA
ATOM     23  H   UNL     1       9.132  -0.132  26.888  0.00  0.00    +0.210 HD
ENDBRANCH   3  22
BRANCH   4  24
ATOM     24  O   UNL     1       9.603   0.766  24.023  0.00  0.00    -0.342 OA
BRANCH  24  25
ATOM     25  C   UNL     1       8.568   1.581  23.477  0.00  0.00    +0.268 C 
ATOM     26  C   UNL     1       9.184   2.755  22.654  0.00  0.00    +0.107 C 
ATOM     27  C   UNL     1       9.772   3.823  23.579  0.00  0.00    +0.026 C 
ATOM     28  C   UNL     1       8.741   4.224  24.626  0.00  0.00    +0.034 C 
ATOM     29  C   UNL     1       8.242   2.989  25.381  0.00  0.00    +0.135 C 
ATOM     30  O   UNL     1       7.647   2.051  24.461  0.00  0.00    -0.345 OA
BRANCH  26  31
ATOM     31  N   UNL     1      10.196   2.296  21.688  0.00  0.00    -0.323 NA
ATOM     32  H   UNL     1      10.185   1.279  21.631  0.00  0.00    +0.119 HD
ATOM     33  H   UNL     1       9.908   2.632  20.764  0.00  0.00    +0.119 HD
ENDBRANCH  26  31
BRANCH  29  34
ATOM     34  C   UNL     1       7.186   3.407  26.426  0.00  0.00    +0.109 C 
BRANCH  34  35
ATOM     35  N   UNL     1       6.159   4.276  25.843  0.00  0.00    -0.328 NA
ATOM     36  H   UNL     1       6.177   5.178  26.314  0.00  0.00    +0.118 HD
ATOM     37  H   UNL     1       6.420   4.459  24.872  0.00  0.00    +0.118 HD
ENDBRANCH  34  35
ENDBRANCH  29  34
ENDBRANCH  24  25
ENDBRANCH   4  24
BRANCH   2  38
ATOM     38  O   UNL     1       6.539  -2.384  26.104  0.00  0.00    -0.341 OA
BRANCH  38  39
ATOM     39  C   UNL     1       5.513  -1.422  25.855  0.00  0.00    +0.281 C 
ATOM     40  C   UNL     1       5.119  -0.650  27.132  0.00  0.00    +0.189 C 
ATOM     41  C   UNL     1       4.315  -1.545  28.085  0.00  0.00    +0.116 C 
ATOM     42  C   UNL     1       3.134  -2.175  27.316  0.00  0.00    +0.165 C 
ATOM     43  C   UNL     1       3.661  -2.913  26.075  0.00  0.00    +0.177 C 
ATOM     44  O   UNL     1       4.372  -2.000  25.209  0.00  0.00    -0.341 OA
BRANCH  41  45
ATOM     45  N   UNL     1       3.840  -0.808  29.276  0.00  0.00    -0.323 NA
ATOM     46  H   UNL     1       4.491  -0.939  30.050  0.00  0.00    +0.119 HD
ATOM     47  H   UNL     1       3.862   0.194  29.068  0.00  0.00    +0.119 HD
ENDBRANCH  41  45
BRANCH  42  48
ATOM     48  O   UNL     1       2.399  -3.045  28.179  0.00  0.00    -0.388 OA
ATOM     49  H   UNL     1       2.549  -3.962  27.885  0.00  0.00    +0.210 HD
ENDBRANCH  42  48
BRANCH  40  50
ATOM     50  O   UNL     1       6.274  -0.091  27.764  0.00  0.00    -0.385 OA
ATOM     51  H   UNL     1       6.894   0.150  27.050  0.00  0.00    +0.210 HD
ENDBRANCH  40  50
BRANCH  43  52
ATOM     52  C   UNL     1       2.518  -3.544  25.268  0.00  0.00    +0.190 C 
BRANCH  52  53
ATOM     53  O   UNL     1       1.915  -4.599  26.020  0.00  0.00    -0.392 OA
ATOM     54  H   UNL     1       2.439  -4.686  26.836  0.00  0.00    +0.210 HD
ENDBRANCH  52  53
ENDBRANCH  43  52
ENDBRANCH  38  39
ENDBRANCH   2  38
TORSDOF 20
ENDMDL
MODEL 6
REMARK VINA RESULT:      -6.0      3.058      8.290
REMARK  Name = 
REMARK  20 active torsions:
REMARK  status: ('A' for Active; 'I' for Inactive)
REMARK    1  A    between atoms: N_1  and  C_2
REMARK    2  A    between atoms: C_2  and  C_3
REMARK    3  A    between atoms: C_3  and  C_4
REMARK    4  A    between atoms: C_4  and  O_6
REMARK    5  A    between atoms: C_4  and  C_7
REMARK    6  A    between atoms: N_9  and  C_10
REMARK    7  A    between atoms: C_13  and  N_15
REMARK    8  A    between atoms: C_16  and  O_18
REMARK    9  A    between atoms: O_18  and  C_19
REMARK   10  A    between atoms: C_22  and  C_24
REMARK   11  A    between atoms: C_24  and  N_25
REMARK   12  A    between atoms: C_28  and  N_30
REMARK   13  A    between atoms: C_31  and  O_33
REMARK   14  A    between atoms: C_34  and  O_36
REMARK   15  A    between atoms: O_36  and  C_37
REMARK   16  A    between atoms: C_40  and  C_42
REMARK   17  A    between atoms: C_42  and  O_43
REMARK   18  A    between atoms: C_44  and  O_46
REMARK   19  A    between atoms: C_47  and  N_49
REMARK   20  A    between atoms: C_50  and  O_52
REMARK                            x       y       z     vdW  Elec       q    Type
REMARK                         _______ _______ _______ _____ _____    ______ ____
ROOT
ATOM      1  C   UNL     1       6.940  -3.462  23.439  0.00  0.00    +0.106 C 
ATOM      2  C   UNL     1       5.819  -2.696  24.181  0.00  0.00    +0.173 C 
ATOM      3  C   UNL     1       4.667  -3.618  24.668  0.00  0.00    +0.175 C 
ATOM      4  C   UNL     1       4.185  -4.686  23.642  0.00  0.00    +0.169 C 
ATOM      5  C   UNL     1       5.381  -5.353  22.899  0.00  0.00    +0.084 C 
ATOM      6  C   UNL     1       6.354  -4.330  22.331  0.00  0.00    +0.046 C 
ENDROOT
BRANCH   1   8
ATOM      7  C   UNL     1       9.164  -2.330  23.337  0.00  0.00    +0.242 C 
ATOM      8  N   UNL     1       7.907  -2.548  22.820  0.00  0.00    -0.308 N 
ATOM      9  H   UNL     1       7.592  -1.995  22.031  0.00  0.00    +0.149 HD
ATOM     10  O   UNL     1       9.614  -2.956  24.300  0.00  0.00    -0.273 OA
BRANCH   7  11
ATOM     11  C   UNL     1       9.934  -1.142  22.718  0.00  0.00    +0.201 C 
BRANCH  11  12
ATOM     12  O   UNL     1      10.640  -1.521  21.541  0.00  0.00    -0.383 OA
ATOM     13  H   UNL     1      10.024  -1.370  20.796  0.00  0.00    +0.210 HD
ENDBRANCH  11  12
BRANCH  11  14
ATOM     14  C   UNL     1       9.052   0.065  22.403  0.00  0.00    +0.056 C 
BRANCH  14  15
ATOM     15  C   UNL     1       9.687   1.386  22.834  0.00  0.00    +0.080 C 
BRANCH  15  16
ATOM     16  N   UNL     1      10.029   2.168  21.649  0.00  0.00    -0.330 NA
ATOM     17  H   UNL     1      10.575   1.587  21.009  0.00  0.00    +0.118 HD
ATOM     18  H   UNL     1       9.172   2.397  21.144  0.00  0.00    +0.118 HD
ENDBRANCH  15  16
ENDBRANCH  14  15
ENDBRANCH  11  14
ENDBRANCH   7  11
ENDBRANCH   1   8
BRANCH   5  19
ATOM     19  N   UNL     1       4.936  -6.238  21.804  0.00  0.00    -0.325 NA
ATOM     20  H   UNL     1       4.310  -5.733  21.175  0.00  0.00    +0.119 HD
ATOM     21  H   UNL     1       5.738  -6.522  21.245  0.00  0.00    +0.119 HD
ENDBRANCH   5  19
BRANCH   3  22
ATOM     22  O   UNL     1       3.600  -2.694  25.001  0.00  0.00    -0.387 OA
ATOM     23  H   UNL     1       3.032  -3.075  25.686  0.00  0.00    +0.210 HD
ENDBRANCH   3  22
BRANCH   4  24
ATOM     24  O   UNL     1       3.487  -5.795  24.258  0.00  0.00    -0.342 OA
BRANCH  24  25
ATOM     25  C   UNL     1       2.073  -5.704  24.407  0.00  0.00    +0.268 C 
ATOM     26  C   UNL     1       1.663  -6.015  25.879  0.00  0.00    +0.107 C 
ATOM     27  C   UNL     1       1.770  -7.513  26.174  0.00  0.00    +0.026 C 
ATOM     28  C   UNL     1       1.027  -8.304  25.105  0.00  0.00    +0.034 C 
ATOM     29  C   UNL     1       1.543  -7.930  23.712  0.00  0.00    +0.135 C 
ATOM     30  O   UNL     1       1.359  -6.519  23.476  0.00  0.00    -0.345 OA
BRANCH  26  31
ATOM     31  N   UNL     1       2.447  -5.240  26.857  0.00  0.00    -0.323 NA
ATOM     32  H   UNL     1       1.979  -5.249  27.761  0.00  0.00    +0.119 HD
ATOM     33  H   UNL     1       3.334  -5.734  26.994  0.00  0.00    +0.119 HD
ENDBRANCH  26  31
BRANCH  29  34
ATOM     34  C   UNL     1       0.770  -8.725  22.638  0.00  0.00    +0.109 C 
BRANCH  34  35
ATOM     35  N   UNL     1       1.406  -8.618  21.322  0.00  0.00    -0.328 NA
ATOM     36  H   UNL     1       2.202  -7.987  21.385  0.00  0.00    +0.118 HD
ATOM     37  H   UNL     1       1.790  -9.535  21.086  0.00  0.00    +0.118 HD
ENDBRANCH  34  35
ENDBRANCH  29  34
ENDBRANCH  24  25
ENDBRANCH   4  24
BRANCH   2  38
ATOM     38  O   UNL     1       6.293  -1.980  25.359  0.00  0.00    -0.341 OA
BRANCH  38  39
ATOM     39  C   UNL     1       6.256  -0.555  25.267  0.00  0.00    +0.281 C 
ATOM     40  C   UNL     1       7.347   0.111  26.130  0.00  0.00    +0.189 C 
ATOM     41  C   UNL     1       7.003   0.008  27.622  0.00  0.00    +0.116 C 
ATOM     42  C   UNL     1       5.573   0.544  27.853  0.00  0.00    +0.165 C 
ATOM     43  C   UNL     1       4.589  -0.202  26.939  0.00  0.00    +0.177 C 
ATOM     44  O   UNL     1       4.955  -0.026  25.552  0.00  0.00    -0.341 OA
BRANCH  41  45
ATOM     45  N   UNL     1       7.980   0.720  28.473  0.00  0.00    -0.323 NA
ATOM     46  H   UNL     1       7.523   1.490  28.961  0.00  0.00    +0.119 HD
ATOM     47  H   UNL     1       8.297   0.081  29.209  0.00  0.00    +0.119 HD
ENDBRANCH  41  45
BRANCH  42  48
ATOM     48  O   UNL     1       5.221   0.415  29.231  0.00  0.00    -0.388 OA
ATOM     49  H   UNL     1       4.716   1.207  29.491  0.00  0.00    +0.210 HD
ENDBRANCH  42  48
BRANCH  40  50
ATOM     50  O   UNL     1       8.634  -0.438  25.835  0.00  0.00    -0.385 OA
ATOM     51  H   UNL     1       8.926  -0.913  26.636  0.00  0.00    +0.210 HD
ENDBRANCH  40  50
BRANCH  43  52
ATOM     52  C   UNL     1       3.154   0.310  27.122  0.00  0.00    +0.190 C 
BRANCH  52  53
ATOM     53  O   UNL     1       2.222  -0.709  26.752  0.00  0.00    -0.392 OA
ATOM     54  H   UNL     1       2.464  -0.986  25.852  0.00  0.00    +0.210 HD
ENDBRANCH  52  53
ENDBRANCH  43  52
ENDBRANCH  38  39
ENDBRANCH   2  38
TORSDOF 20
ENDMDL
MODEL 7
REMARK VINA RESULT:      -5.9      3.680      6.072
REMARK  Name = 
REMARK  20 active torsions:
REMARK  status: ('A' for Active; 'I' for Inactive)
REMARK    1  A    between atoms: N_1  and  C_2
REMARK    2  A    between atoms: C_2  and  C_3
REMARK    3  A    between atoms: C_3  and  C_4
REMARK    4  A    between atoms: C_4  and  O_6
REMARK    5  A    between atoms: C_4  and  C_7
REMARK    6  A    between atoms: N_9  and  C_10
REMARK    7  A    between atoms: C_13  and  N_15
REMARK    8  A    between atoms: C_16  and  O_18
REMARK    9  A    between atoms: O_18  and  C_19
REMARK   10  A    between atoms: C_22  and  C_24
REMARK   11  A    between atoms: C_24  and  N_25
REMARK   12  A    between atoms: C_28  and  N_30
REMARK   13  A    between atoms: C_31  and  O_33
REMARK   14  A    between atoms: C_34  and  O_36
REMARK   15  A    between atoms: O_36  and  C_37
REMARK   16  A    between atoms: C_40  and  C_42
REMARK   17  A    between atoms: C_42  and  O_43
REMARK   18  A    between atoms: C_44  and  O_46
REMARK   19  A    between atoms: C_47  and  N_49
REMARK   20  A    between atoms: C_50  and  O_52
REMARK                            x       y       z     vdW  Elec       q    Type
REMARK                         _______ _______ _______ _____ _____    ______ ____
ROOT
ATOM      1  C   UNL     1       7.695  -0.937  23.350  0.00  0.00    +0.106 C 
ATOM      2  C   UNL     1       7.904  -0.412  24.790  0.00  0.00    +0.173 C 
ATOM      3  C   UNL     1       7.749   1.131  24.907  0.00  0.00    +0.175 C 
ATOM      4  C   UNL     1       8.438   1.959  23.784  0.00  0.00    +0.169 C 
ATOM      5  C   UNL     1       8.229   1.315  22.381  0.00  0.00    +0.084 C 
ATOM      6  C   UNL     1       8.570  -0.168  22.366  0.00  0.00    +0.046 C 
ENDROOT
BRANCH   1   8
ATOM      7  C   UNL     1       7.198  -3.288  22.668  0.00  0.00    +0.242 C 
ATOM      8  N   UNL     1       8.042  -2.359  23.233  0.00  0.00    -0.308 N 
ATOM      9  H   UNL     1       8.903  -2.669  23.668  0.00  0.00    +0.149 HD
ATOM     10  O   UNL     1       6.131  -2.988  22.128  0.00  0.00    -0.273 OA
BRANCH   7  11
ATOM     11  C   UNL     1       7.609  -4.763  22.878  0.00  0.00    +0.201 C 
BRANCH  11  12
ATOM     12  O   UNL     1       7.104  -5.286  24.102  0.00  0.00    -0.383 OA
ATOM     13  H   UNL     1       7.053  -6.255  23.982  0.00  0.00    +0.210 HD
ENDBRANCH  11  12
BRANCH  11  14
ATOM     14  C   UNL     1       7.194  -5.686  21.733  0.00  0.00    +0.056 C 
BRANCH  14  15
ATOM     15  C   UNL     1       6.053  -6.626  22.120  0.00  0.00    +0.080 C 
BRANCH  15  16
ATOM     16  N   UNL     1       4.792  -5.890  22.101  0.00  0.00    -0.330 NA
ATOM     17  H   UNL     1       4.099  -6.396  22.657  0.00  0.00    +0.118 HD
ATOM     18  H   UNL     1       4.922  -4.997  22.576  0.00  0.00    +0.118 HD
ENDBRANCH  15  16
ENDBRANCH  14  15
ENDBRANCH  11  14
ENDBRANCH   7  11
ENDBRANCH   1   8
BRANCH   5  19
ATOM     19  N   UNL     1       9.019   1.990  21.330  0.00  0.00    -0.325 NA
ATOM     20  H   UNL     1       9.660   1.327  20.893  0.00  0.00    +0.119 HD
ATOM     21  H   UNL     1       8.400   2.321  20.594  0.00  0.00    +0.119 HD
ENDBRANCH   5  19
BRANCH   3  22
ATOM     22  O   UNL     1       8.316   1.438  26.206  0.00  0.00    -0.387 OA
ATOM     23  H   UNL     1       7.615   1.483  26.872  0.00  0.00    +0.210 HD
ENDBRANCH   3  22
BRANCH   4  24
ATOM     24  O   UNL     1       7.896   3.295  23.645  0.00  0.00    -0.342 OA
BRANCH  24  25
ATOM     25  C   UNL     1       8.123   4.228  24.698  0.00  0.00    +0.268 C 
ATOM     26  C   UNL     1       7.136   5.429  24.577  0.00  0.00    +0.107 C 
ATOM     27  C   UNL     1       7.543   6.360  23.433  0.00  0.00    +0.026 C 
ATOM     28  C   UNL     1       9.015   6.731  23.567  0.00  0.00    +0.034 C 
ATOM     29  C   UNL     1       9.876   5.467  23.644  0.00  0.00    +0.135 C 
ATOM     30  O   UNL     1       9.481   4.665  24.776  0.00  0.00    -0.345 OA
BRANCH  26  31
ATOM     31  N   UNL     1       5.738   4.995  24.415  0.00  0.00    -0.323 NA
ATOM     32  H   UNL     1       5.688   4.228  23.748  0.00  0.00    +0.119 HD
ATOM     33  H   UNL     1       5.434   4.608  25.314  0.00  0.00    +0.119 HD
ENDBRANCH  26  31
BRANCH  29  34
ATOM     34  C   UNL     1      11.362   5.855  23.798  0.00  0.00    +0.109 C 
BRANCH  34  35
ATOM     35  N   UNL     1      12.163   5.400  22.658  0.00  0.00    -0.328 NA
ATOM     36  H   UNL     1      12.784   6.152  22.363  0.00  0.00    +0.118 HD
ATOM     37  H   UNL     1      12.769   4.644  22.983  0.00  0.00    +0.118 HD
ENDBRANCH  34  35
ENDBRANCH  29  34
ENDBRANCH  24  25
ENDBRANCH   4  24
BRANCH   2  38
ATOM     38  O   UNL     1       6.975  -0.988  25.754  0.00  0.00    -0.341 OA
BRANCH  38  39
ATOM     39  C   UNL     1       5.616  -0.567  25.626  0.00  0.00    +0.281 C 
ATOM     40  C   UNL     1       4.981  -0.230  26.991  0.00  0.00    +0.189 C 
ATOM     41  C   UNL     1       4.709  -1.508  27.797  0.00  0.00    +0.116 C 
ATOM     42  C   UNL     1       3.899  -2.494  26.928  0.00  0.00    +0.165 C 
ATOM     43  C   UNL     1       4.639  -2.745  25.605  0.00  0.00    +0.177 C 
ATOM     44  O   UNL     1       4.824  -1.505  24.887  0.00  0.00    -0.341 OA
BRANCH  41  45
ATOM     45  N   UNL     1       4.013  -1.227  29.071  0.00  0.00    -0.323 NA
ATOM     46  H   UNL     1       4.523  -1.649  29.847  0.00  0.00    +0.119 HD
ATOM     47  H   UNL     1       4.043  -0.218  29.242  0.00  0.00    +0.119 HD
ENDBRANCH  41  45
BRANCH  42  48
ATOM     48  O   UNL     1       3.673  -3.706  27.649  0.00  0.00    -0.388 OA
ATOM     49  H   UNL     1       3.990  -3.579  28.562  0.00  0.00    +0.210 HD
ENDBRANCH  42  48
BRANCH  40  50
ATOM     50  O   UNL     1       5.793   0.700  27.713  0.00  0.00    -0.385 OA
ATOM     51  H   UNL     1       6.433   1.068  27.075  0.00  0.00    +0.210 HD
ENDBRANCH  40  50
BRANCH  43  52
ATOM     52  C   UNL     1       3.862  -3.710  24.700  0.00  0.00    +0.190 C 
BRANCH  52  53
ATOM     53  O   UNL     1       4.269  -5.055  24.958  0.00  0.00    -0.392 OA
ATOM     54  H   UNL     1       5.205  -5.111  24.700  0.00  0.00    +0.210 HD
ENDBRANCH  52  53
ENDBRANCH  43  52
ENDBRANCH  38  39
ENDBRANCH   2  38
TORSDOF 20
ENDMDL
MODEL 8
REMARK VINA RESULT:      -5.9      3.695      6.469
REMARK  Name = 
REMARK  20 active torsions:
REMARK  status: ('A' for Active; 'I' for Inactive)
REMARK    1  A    between atoms: N_1  and  C_2
REMARK    2  A    between atoms: C_2  and  C_3
REMARK    3  A    between atoms: C_3  and  C_4
REMARK    4  A    between atoms: C_4  and  O_6
REMARK    5  A    between atoms: C_4  and  C_7
REMARK    6  A    between atoms: N_9  and  C_10
REMARK    7  A    between atoms: C_13  and  N_15
REMARK    8  A    between atoms: C_16  and  O_18
REMARK    9  A    between atoms: O_18  and  C_19
REMARK   10  A    between atoms: C_22  and  C_24
REMARK   11  A    between atoms: C_24  and  N_25
REMARK   12  A    between atoms: C_28  and  N_30
REMARK   13  A    between atoms: C_31  and  O_33
REMARK   14  A    between atoms: C_34  and  O_36
REMARK   15  A    between atoms: O_36  and  C_37
REMARK   16  A    between atoms: C_40  and  C_42
REMARK   17  A    between atoms: C_42  and  O_43
REMARK   18  A    between atoms: C_44  and  O_46
REMARK   19  A    between atoms: C_47  and  N_49
REMARK   20  A    between atoms: C_50  and  O_52
REMARK                            x       y       z     vdW  Elec       q    Type
REMARK                         _______ _______ _______ _____ _____    ______ ____
ROOT
ATOM      1  C   UNL     1       8.499  -1.115  24.130  0.00  0.00    +0.106 C 
ATOM      2  C   UNL     1       8.201  -0.176  25.322  0.00  0.00    +0.173 C 
ATOM      3  C   UNL     1       7.837   1.270  24.886  0.00  0.00    +0.175 C 
ATOM      4  C   UNL     1       8.729   1.875  23.762  0.00  0.00    +0.169 C 
ATOM      5  C   UNL     1       9.028   0.835  22.641  0.00  0.00    +0.084 C 
ATOM      6  C   UNL     1       9.531  -0.490  23.198  0.00  0.00    +0.046 C 
ENDROOT
BRANCH   1   8
ATOM      7  C   UNL     1       8.467  -3.612  24.212  0.00  0.00    +0.242 C 
ATOM      8  N   UNL     1       9.030  -2.409  24.574  0.00  0.00    -0.308 N 
ATOM      9  H   UNL     1       9.790  -2.399  25.245  0.00  0.00    +0.149 HD
ATOM     10  O   UNL     1       7.535  -3.704  23.410  0.00  0.00    -0.273 OA
BRANCH   7  11
ATOM     11  C   UNL     1       8.987  -4.843  24.989  0.00  0.00    +0.201 C 
BRANCH  11  12
ATOM     12  O   UNL     1      10.387  -5.030  24.811  0.00  0.00    -0.383 OA
ATOM     13  H   UNL     1      10.736  -5.304  25.684  0.00  0.00    +0.210 HD
ENDBRANCH  11  12
BRANCH  11  14
ATOM     14  C   UNL     1       8.674  -4.804  26.484  0.00  0.00    +0.056 C 
BRANCH  14  15
ATOM     15  C   UNL     1       7.271  -5.317  26.805  0.00  0.00    +0.080 C 
BRANCH  15  16
ATOM     16  N   UNL     1       7.319  -6.130  28.017  0.00  0.00    -0.330 NA
ATOM     17  H   UNL     1       6.895  -5.609  28.788  0.00  0.00    +0.118 HD
ATOM     18  H   UNL     1       6.730  -6.953  27.887  0.00  0.00    +0.118 HD
ENDBRANCH  15  16
ENDBRANCH  14  15
ENDBRANCH  11  14
ENDBRANCH   7  11
ENDBRANCH   1   8
BRANCH   5  19
ATOM     19  N   UNL     1      10.011   1.335  21.659  0.00  0.00    -0.325 NA
ATOM     20  H   UNL     1      10.434   2.202  21.995  0.00  0.00    +0.119 HD
ATOM     21  H   UNL     1      10.770   0.665  21.560  0.00  0.00    +0.119 HD
ENDBRANCH   5  19
BRANCH   3  22
ATOM     22  O   UNL     1       7.947   2.039  26.110  0.00  0.00    -0.387 OA
ATOM     23  H   UNL     1       7.232   2.691  26.159  0.00  0.00    +0.210 HD
ENDBRANCH   3  22
BRANCH   4  24
ATOM     24  O   UNL     1       8.099   2.976  23.064  0.00  0.00    -0.342 OA
BRANCH  24  25
ATOM     25  C   UNL     1       7.470   3.995  23.838  0.00  0.00    +0.268 C 
ATOM     26  C   UNL     1       6.556   4.875  22.931  0.00  0.00    +0.107 C 
ATOM     27  C   UNL     1       7.391   5.814  22.058  0.00  0.00    +0.026 C 
ATOM     28  C   UNL     1       8.386   6.576  22.924  0.00  0.00    +0.034 C 
ATOM     29  C   UNL     1       9.240   5.599  23.737  0.00  0.00    +0.135 C 
ATOM     30  O   UNL     1       8.399   4.786  24.580  0.00  0.00    -0.345 OA
BRANCH  26  31
ATOM     31  N   UNL     1       5.646   4.070  22.098  0.00  0.00    -0.323 NA
ATOM     32  H   UNL     1       5.984   4.048  21.138  0.00  0.00    +0.119 HD
ATOM     33  H   UNL     1       5.699   3.104  22.437  0.00  0.00    +0.119 HD
ENDBRANCH  26  31
BRANCH  29  34
ATOM     34  C   UNL     1      10.231   6.383  24.623  0.00  0.00    +0.109 C 
BRANCH  34  35
ATOM     35  N   UNL     1      11.621   6.156  24.215  0.00  0.00    -0.328 NA
ATOM     36  H   UNL     1      12.204   6.907  24.580  0.00  0.00    +0.118 HD
ATOM     37  H   UNL     1      11.944   5.300  24.671  0.00  0.00    +0.118 HD
ENDBRANCH  34  35
ENDBRANCH  29  34
ENDBRANCH  24  25
ENDBRANCH   4  24
BRANCH   2  38
ATOM     38  O   UNL     1       7.101  -0.638  26.159  0.00  0.00    -0.341 OA
BRANCH  38  39
ATOM     39  C   UNL     1       5.796  -0.245  25.731  0.00  0.00    +0.281 C 
ATOM     40  C   UNL     1       4.895   0.161  26.915  0.00  0.00    +0.189 C 
ATOM     41  C   UNL     1       4.466  -1.072  27.723  0.00  0.00    +0.116 C 
ATOM     42  C   UNL     1       3.853  -2.118  26.767  0.00  0.00    +0.165 C 
ATOM     43  C   UNL     1       4.850  -2.435  25.642  0.00  0.00    +0.177 C 
ATOM     44  O   UNL     1       5.175  -1.236  24.904  0.00  0.00    -0.341 OA
BRANCH  41  45
ATOM     45  N   UNL     1       3.523  -0.728  28.809  0.00  0.00    -0.323 NA
ATOM     46  H   UNL     1       3.008  -1.559  29.100  0.00  0.00    +0.119 HD
ATOM     47  H   UNL     1       4.064  -0.442  29.631  0.00  0.00    +0.119 HD
ENDBRANCH  41  45
BRANCH  42  48
ATOM     48  O   UNL     1       3.487  -3.289  27.499  0.00  0.00    -0.388 OA
ATOM     49  H   UNL     1       4.273  -3.862  27.568  0.00  0.00    +0.210 HD
ENDBRANCH  42  48
BRANCH  40  50
ATOM     50  O   UNL     1       5.539   1.143  27.731  0.00  0.00    -0.385 OA
ATOM     51  H   UNL     1       6.495   0.948  27.702  0.00  0.00    +0.210 HD
ENDBRANCH  40  50
BRANCH  43  52
ATOM     52  C   UNL     1       4.277  -3.461  24.656  0.00  0.00    +0.190 C 
BRANCH  52  53
ATOM     53  O   UNL     1       4.184  -4.742  25.284  0.00  0.00    -0.392 OA
ATOM     54  H   UNL     1       4.759  -5.338  24.773  0.00  0.00    +0.210 HD
ENDBRANCH  52  53
ENDBRANCH  43  52
ENDBRANCH  38  39
ENDBRANCH   2  38
TORSDOF 20
ENDMDL
MODEL 9
REMARK VINA RESULT:      -5.9      3.290      5.677
REMARK  Name = 
REMARK  20 active torsions:
REMARK  status: ('A' for Active; 'I' for Inactive)
REMARK    1  A    between atoms: N_1  and  C_2
REMARK    2  A    between atoms: C_2  and  C_3
REMARK    3  A    between atoms: C_3  and  C_4
REMARK    4  A    between atoms: C_4  and  O_6
REMARK    5  A    between atoms: C_4  and  C_7
REMARK    6  A    between atoms: N_9  and  C_10
REMARK    7  A    between atoms: C_13  and  N_15
REMARK    8  A    between atoms: C_16  and  O_18
REMARK    9  A    between atoms: O_18  and  C_19
REMARK   10  A    between atoms: C_22  and  C_24
REMARK   11  A    between atoms: C_24  and  N_25
REMARK   12  A    between atoms: C_28  and  N_30
REMARK   13  A    between atoms: C_31  and  O_33
REMARK   14  A    between atoms: C_34  and  O_36
REMARK   15  A    between atoms: O_36  and  C_37
REMARK   16  A    between atoms: C_40  and  C_42
REMARK   17  A    between atoms: C_42  and  O_43
REMARK   18  A    between atoms: C_44  and  O_46
REMARK   19  A    between atoms: C_47  and  N_49
REMARK   20  A    between atoms: C_50  and  O_52
REMARK                            x       y       z     vdW  Elec       q    Type
REMARK                         _______ _______ _______ _____ _____    ______ ____
ROOT
ATOM      1  C   UNL     1       7.903  -1.105  22.861  0.00  0.00    +0.106 C 
ATOM      2  C   UNL     1       7.977  -0.778  24.371  0.00  0.00    +0.173 C 
ATOM      3  C   UNL     1       7.912   0.746  24.671  0.00  0.00    +0.175 C 
ATOM      4  C   UNL     1       8.780   1.648  23.745  0.00  0.00    +0.169 C 
ATOM      5  C   UNL     1       8.693   1.199  22.256  0.00  0.00    +0.084 C 
ATOM      6  C   UNL     1       8.935  -0.294  22.085  0.00  0.00    +0.046 C 
ENDROOT
BRANCH   1   8
ATOM      7  C   UNL     1       7.195  -3.395  22.157  0.00  0.00    +0.242 C 
ATOM      8  N   UNL     1       8.166  -2.525  22.597  0.00  0.00    -0.308 N 
ATOM      9  H   UNL     1       9.084  -2.884  22.837  0.00  0.00    +0.149 HD
ATOM     10  O   UNL     1       6.055  -3.035  21.856  0.00  0.00    -0.273 OA
BRANCH   7  11
ATOM     11  C   UNL     1       7.583  -4.891  22.198  0.00  0.00    +0.201 C 
BRANCH  11  12
ATOM     12  O   UNL     1       8.148  -5.258  23.452  0.00  0.00    -0.383 OA
ATOM     13  H   UNL     1       8.629  -4.470  23.774  0.00  0.00    +0.210 HD
ENDBRANCH  11  12
BRANCH  11  14
ATOM     14  C   UNL     1       6.426  -5.835  21.877  0.00  0.00    +0.056 C 
BRANCH  14  15
ATOM     15  C   UNL     1       5.490  -6.044  23.066  0.00  0.00    +0.080 C 
BRANCH  15  16
ATOM     16  N   UNL     1       4.112  -6.132  22.589  0.00  0.00    -0.330 NA
ATOM     17  H   UNL     1       3.522  -6.507  23.334  0.00  0.00    +0.118 HD
ATOM     18  H   UNL     1       3.762  -5.189  22.413  0.00  0.00    +0.118 HD
ENDBRANCH  15  16
ENDBRANCH  14  15
ENDBRANCH  11  14
ENDBRANCH   7  11
ENDBRANCH   1   8
BRANCH   5  19
ATOM     19  N   UNL     1       9.642   1.931  21.393  0.00  0.00    -0.325 NA
ATOM     20  H   UNL     1      10.233   1.273  20.882  0.00  0.00    +0.119 HD
ATOM     21  H   UNL     1       9.130   2.463  20.693  0.00  0.00    +0.119 HD
ENDBRANCH   5  19
BRANCH   3  22
ATOM     22  O   UNL     1       8.343   0.846  26.052  0.00  0.00    -0.387 OA
ATOM     23  H   UNL     1       7.981   1.648  26.456  0.00  0.00    +0.210 HD
ENDBRANCH   3  22
BRANCH   4  24
ATOM     24  O   UNL     1       8.346   3.029  23.725  0.00  0.00    -0.342 OA
BRANCH  24  25
ATOM     25  C   UNL     1       8.849   3.909  24.727  0.00  0.00    +0.268 C 
ATOM     26  C   UNL     1       8.065   5.257  24.704  0.00  0.00    +0.107 C 
ATOM     27  C   UNL     1       8.478   6.112  23.504  0.00  0.00    +0.026 C 
ATOM     28  C   UNL     1       9.997   6.234  23.456  0.00  0.00    +0.034 C 
ATOM     29  C   UNL     1      10.641   4.845  23.451  0.00  0.00    +0.135 C 
ATOM     30  O   UNL     1      10.259   4.116  24.635  0.00  0.00    -0.345 OA
BRANCH  26  31
ATOM     31  N   UNL     1       6.605   5.060  24.718  0.00  0.00    -0.323 NA
ATOM     32  H   UNL     1       6.281   4.811  23.786  0.00  0.00    +0.119 HD
ATOM     33  H   UNL     1       6.414   4.246  25.310  0.00  0.00    +0.119 HD
ENDBRANCH  26  31
BRANCH  29  34
ATOM     34  C   UNL     1      12.178   4.982  23.420  0.00  0.00    +0.109 C 
BRANCH  34  35
ATOM     35  N   UNL     1      12.646   6.045  24.314  0.00  0.00    -0.328 NA
ATOM     36  H   UNL     1      13.519   6.427  23.953  0.00  0.00    +0.118 HD
ATOM     37  H   UNL     1      11.968   6.808  24.275  0.00  0.00    +0.118 HD
ENDBRANCH  34  35
ENDBRANCH  29  34
ENDBRANCH  24  25
ENDBRANCH   4  24
BRANCH   2  38
ATOM     38  O   UNL     1       6.906  -1.392  25.147  0.00  0.00    -0.341 OA
BRANCH  38  39
ATOM     39  C   UNL     1       7.272  -1.833  26.455  0.00  0.00    +0.281 C 
ATOM     40  C   UNL     1       7.756  -3.298  26.460  0.00  0.00    +0.189 C 
ATOM     41  C   UNL     1       6.580  -4.263  26.255  0.00  0.00    +0.116 C 
ATOM     42  C   UNL     1       5.473  -3.940  27.281  0.00  0.00    +0.165 C 
ATOM     43  C   UNL     1       5.081  -2.458  27.170  0.00  0.00    +0.177 C 
ATOM     44  O   UNL     1       6.228  -1.614  27.413  0.00  0.00    -0.341 OA
BRANCH  41  45
ATOM     45  N   UNL     1       6.995  -5.679  26.349  0.00  0.00    -0.323 NA
ATOM     46  H   UNL     1       7.320  -5.885  27.294  0.00  0.00    +0.119 HD
ATOM     47  H   UNL     1       6.170  -6.269  26.210  0.00  0.00    +0.119 HD
ENDBRANCH  41  45
BRANCH  42  48
ATOM     48  O   UNL     1       4.352  -4.803  27.076  0.00  0.00    -0.388 OA
ATOM     49  H   UNL     1       4.494  -5.291  26.245  0.00  0.00    +0.210 HD
ENDBRANCH  42  48
BRANCH  40  50
ATOM     50  O   UNL     1       8.789  -3.494  25.491  0.00  0.00    -0.385 OA
ATOM     51  H   UNL     1       8.483  -3.072  24.666  0.00  0.00    +0.210 HD
ENDBRANCH  40  50
BRANCH  43  52
ATOM     52  C   UNL     1       3.992  -2.087  28.184  0.00  0.00    +0.190 C 
BRANCH  52  53
ATOM     53  O   UNL     1       4.070  -2.949  29.322  0.00  0.00    -0.392 OA
ATOM     54  H   UNL     1       3.166  -3.273  29.481  0.00  0.00    +0.210 HD
ENDBRANCH  52  53
ENDBRANCH  43  52
ENDBRANCH  38  39
ENDBRANCH   2  38
TORSDOF 20
ENDMDL
