MODEL 1
REMARK VINA RESULT:      -6.2      0.000      0.000
REMARK  Name = 
REMARK  8 active torsions:
REMARK  status: ('A' for Active; 'I' for Inactive)
REMARK    1  A    between atoms: C_1  and  C_2
REMARK    2  A    between atoms: C_2  and  C_3
REMARK    3  A    between atoms: C_2  and  O_4
REMARK    4  A    between atoms: O_4  and  C_5
REMARK    5  A    between atoms: C_5  and  C_7
REMARK    6  A    between atoms: C_12  and  N_13
REMARK    7  A    between atoms: C_14  and  C_16
REMARK    8  A    between atoms: C_17  and  C_18
REMARK                            x       y       z     vdW  Elec       q    Type
REMARK                         _______ _______ _______ _____ _____    ______ ____
ROOT
ATOM      1  C   UNL     1       6.870  -3.209  22.590  0.00  0.00    +0.079 A 
ATOM      2  C   UNL     1       6.930  -1.800  22.579  0.00  0.00    +0.039 A 
ATOM      3  C   UNL     1       7.945  -1.107  23.269  0.00  0.00    +0.035 A 
ATOM      4  C   UNL     1       8.897  -1.852  23.959  0.00  0.00    +0.025 A 
ATOM      5  C   UNL     1       8.857  -3.254  23.961  0.00  0.00    +0.022 A 
ATOM      6  C   UNL     1       7.851  -3.937  23.281  0.00  0.00    +0.055 A 
ATOM      7 CL   UNL     1       7.925  -5.660  23.316  0.00  0.00    -0.083 Cl
ENDROOT
BRANCH   3   8
ATOM      8  N   UNL     1       7.937   0.305  23.254  0.00  0.00    -0.281 N 
ATOM      9  H   UNL     1       7.534   0.776  24.061  0.00  0.00    +0.155 HD
ATOM     10  C   UNL     1       8.478   1.149  22.295  0.00  0.00    +0.258 C 
ATOM     11  O   UNL     1       8.996   0.778  21.246  0.00  0.00    -0.269 OA
BRANCH  10  12
ATOM     12  C   UNL     1       8.367   2.636  22.627  0.00  0.00    +0.107 C 
ATOM     13  S   UNL     1       6.842   3.367  22.212  0.00  0.00    -0.114 S 
ATOM     14  C   UNL     1       7.225   5.118  22.345  0.00  0.00    +0.115 C 
ATOM     15  C   UNL     1       8.228   5.465  23.434  0.00  0.00    +0.239 C 
ATOM     16  O   UNL     1       9.382   4.651  23.539  0.00  0.00    -0.494 OA
ATOM     17  C   UNL     1       9.360   3.303  23.263  0.00  0.00    +0.113 C 
ATOM     18  C   UNL     1      10.643   2.670  23.754  0.00  0.00    +0.087 C 
ENDBRANCH  10  12
ENDBRANCH   3   8
BRANCH   1  19
ATOM     19  C   UNL     1       5.719  -3.903  21.962  0.00  0.00    +0.341 C 
ATOM     20  O   UNL     1       5.771  -4.470  20.885  0.00  0.00    -0.245 OA
BRANCH  19  21
ATOM     21  O   UNL     1       4.630  -3.858  22.777  0.00  0.00    -0.458 OA
BRANCH  21  23
ATOM     22  C   UNL     1       4.665  -5.095  24.865  0.00  0.00    +0.052 C 
ATOM     23  C   UNL     1       4.280  -5.119  23.387  0.00  0.00    +0.171 C 
ATOM     24  C   UNL     1       2.777  -5.316  23.236  0.00  0.00    +0.052 C 
ENDBRANCH  21  23
ENDBRANCH  19  21
ENDBRANCH   1  19
TORSDOF 5
ENDMDL
MODEL 2
REMARK VINA RESULT:      -6.0      3.300      7.925
REMARK  Name = 
REMARK  8 active torsions:
REMARK  status: ('A' for Active; 'I' for Inactive)
REMARK    1  A    between atoms: C_1  and  C_2
REMARK    2  A    between atoms: C_2  and  C_3
REMARK    3  A    between atoms: C_2  and  O_4
REMARK    4  A    between atoms: O_4  and  C_5
REMARK    5  A    between atoms: C_5  and  C_7
REMARK    6  A    between atoms: C_12  and  N_13
REMARK    7  A    between atoms: C_14  and  C_16
REMARK    8  A    between atoms: C_17  and  C_18
REMARK                            x       y       z     vdW  Elec       q    Type
REMARK                         _______ _______ _______ _____ _____    ______ ____
ROOT
ATOM      1  C   UNL     1       8.841   1.819  23.482  0.00  0.00    +0.079 A 
ATOM      2  C   UNL     1       8.227   0.626  23.917  0.00  0.00    +0.039 A 
ATOM      3  C   UNL     1       8.963  -0.372  24.588  0.00  0.00    +0.035 A 
ATOM      4  C   UNL     1      10.317  -0.145  24.819  0.00  0.00    +0.025 A 
ATOM      5  C   UNL     1      10.933   1.045  24.407  0.00  0.00    +0.022 A 
ATOM      6  C   UNL     1      10.204   2.029  23.741  0.00  0.00    +0.055 A 
ATOM      7 CL   UNL     1      11.053   3.470  23.318  0.00  0.00    -0.083 Cl
ENDROOT
BRANCH   3   8
ATOM      8  N   UNL     1       8.307  -1.561  24.970  0.00  0.00    -0.281 N 
ATOM      9  H   UNL     1       7.880  -1.581  25.894  0.00  0.00    +0.155 HD
ATOM     10  C   UNL     1       8.105  -2.704  24.209  0.00  0.00    +0.258 C 
ATOM     11  O   UNL     1       8.548  -2.882  23.079  0.00  0.00    -0.269 OA
BRANCH  10  12
ATOM     12  C   UNL     1       7.279  -3.786  24.903  0.00  0.00    +0.107 C 
ATOM     13  S   UNL     1       5.564  -3.697  24.614  0.00  0.00    -0.114 S 
ATOM     14  C   UNL     1       4.920  -4.805  25.873  0.00  0.00    +0.115 C 
ATOM     15  C   UNL     1       5.812  -5.996  26.183  0.00  0.00    +0.239 C 
ATOM     16  O   UNL     1       7.198  -5.748  26.341  0.00  0.00    -0.494 OA
ATOM     17  C   UNL     1       7.858  -4.776  25.624  0.00  0.00    +0.113 C 
ATOM     18  C   UNL     1       9.350  -4.960  25.787  0.00  0.00    +0.087 C 
ENDBRANCH  10  12
ENDBRANCH   3   8
BRANCH   1  19
ATOM     19  C   UNL     1       8.070   2.790  22.668  0.00  0.00    +0.341 C 
ATOM     20  O   UNL     1       7.706   2.581  21.523  0.00  0.00    -0.245 OA
BRANCH  19  21
ATOM     21  O   UNL     1       7.790   3.907  23.391  0.00  0.00    -0.458 OA
BRANCH  21  23
ATOM     22  C   UNL     1       6.037   5.494  22.844  0.00  0.00    +0.052 C 
ATOM     23  C   UNL     1       7.487   5.078  22.602  0.00  0.00    +0.171 C 
ATOM     24  C   UNL     1       8.434   6.193  23.028  0.00  0.00    +0.052 C 
ENDBRANCH  21  23
ENDBRANCH  19  21
ENDBRANCH   1  19
TORSDOF 5
ENDMDL
MODEL 3
REMARK VINA RESULT:      -6.0      3.329      7.946
REMARK  Name = 
REMARK  8 active torsions:
REMARK  status: ('A' for Active; 'I' for Inactive)
REMARK    1  A    between atoms: C_1  and  C_2
REMARK    2  A    between atoms: C_2  and  C_3
REMARK    3  A    between atoms: C_2  and  O_4
REMARK    4  A    between atoms: O_4  and  C_5
REMARK    5  A    between atoms: C_5  and  C_7
REMARK    6  A    between atoms: C_12  and  N_13
REMARK    7  A    between atoms: C_14  and  C_16
REMARK    8  A    between atoms: C_17  and  C_18
REMARK                            x       y       z     vdW  Elec       q    Type
REMARK                         _______ _______ _______ _____ _____    ______ ____
ROOT
ATOM      1  C   UNL     1       8.447   0.597  23.529  0.00  0.00    +0.079 A 
ATOM      2  C   UNL     1       7.743  -0.548  23.957  0.00  0.00    +0.039 A 
ATOM      3  C   UNL     1       7.827  -1.763  23.247  0.00  0.00    +0.035 A 
ATOM      4  C   UNL     1       8.633  -1.807  22.112  0.00  0.00    +0.025 A 
ATOM      5  C   UNL     1       9.351  -0.679  21.690  0.00  0.00    +0.022 A 
ATOM      6  C   UNL     1       9.264   0.522  22.391  0.00  0.00    +0.055 A 
ATOM      7 CL   UNL     1      10.224   1.832  21.807  0.00  0.00    -0.083 Cl
ENDROOT
BRANCH   3   8
ATOM      8  N   UNL     1       7.074  -2.869  23.697  0.00  0.00    -0.281 N 
ATOM      9  H   UNL     1       6.067  -2.744  23.777  0.00  0.00    +0.155 HD
ATOM     10  C   UNL     1       7.529  -4.148  23.987  0.00  0.00    +0.258 C 
ATOM     11  O   UNL     1       8.706  -4.496  23.963  0.00  0.00    -0.269 OA
BRANCH  10  12
ATOM     12  C   UNL     1       6.431  -5.135  24.375  0.00  0.00    +0.107 C 
ATOM     13  S   UNL     1       6.003  -5.129  26.063  0.00  0.00    -0.114 S 
ATOM     14  C   UNL     1       5.042  -6.640  26.206  0.00  0.00    +0.115 C 
ATOM     15  C   UNL     1       4.217  -6.984  24.975  0.00  0.00    +0.239 C 
ATOM     16  O   UNL     1       4.850  -6.864  23.713  0.00  0.00    -0.494 OA
ATOM     17  C   UNL     1       5.797  -5.899  23.453  0.00  0.00    +0.113 C 
ATOM     18  C   UNL     1       6.051  -5.836  21.964  0.00  0.00    +0.087 C 
ENDBRANCH  10  12
ENDBRANCH   3   8
BRANCH   1  19
ATOM     19  C   UNL     1       8.237   1.892  24.223  0.00  0.00    +0.341 C 
ATOM     20  O   UNL     1       9.112   2.492  24.824  0.00  0.00    -0.245 OA
BRANCH  19  21
ATOM     21  O   UNL     1       6.961   2.329  24.047  0.00  0.00    -0.458 OA
BRANCH  21  23
ATOM     22  C   UNL     1       5.155   3.019  22.581  0.00  0.00    +0.052 C 
ATOM     23  C   UNL     1       6.660   2.792  22.714  0.00  0.00    +0.171 C 
ATOM     24  C   UNL     1       7.413   4.097  22.485  0.00  0.00    +0.052 C 
ENDBRANCH  21  23
ENDBRANCH  19  21
ENDBRANCH   1  19
TORSDOF 5
ENDMDL
MODEL 4
REMARK VINA RESULT:      -5.9      1.149      1.561
REMARK  Name = 
REMARK  8 active torsions:
REMARK  status: ('A' for Active; 'I' for Inactive)
REMARK    1  A    between atoms: C_1  and  C_2
REMARK    2  A    between atoms: C_2  and  C_3
REMARK    3  A    between atoms: C_2  and  O_4
REMARK    4  A    between atoms: O_4  and  C_5
REMARK    5  A    between atoms: C_5  and  C_7
REMARK    6  A    between atoms: C_12  and  N_13
REMARK    7  A    between atoms: C_14  and  C_16
REMARK    8  A    between atoms: C_17  and  C_18
REMARK                            x       y       z     vdW  Elec       q    Type
REMARK                         _______ _______ _______ _____ _____    ______ ____
ROOT
ATOM      1  C   UNL     1       6.943  -2.827  22.834  0.00  0.00    +0.079 A 
ATOM      2  C   UNL     1       7.091  -1.424  22.864  0.00  0.00    +0.039 A 
ATOM      3  C   UNL     1       8.215  -0.823  23.467  0.00  0.00    +0.035 A 
ATOM      4  C   UNL     1       9.183  -1.652  24.027  0.00  0.00    +0.025 A 
ATOM      5  C   UNL     1       9.053  -3.047  23.985  0.00  0.00    +0.022 A 
ATOM      6  C   UNL     1       7.941  -3.640  23.392  0.00  0.00    +0.055 A 
ATOM      7 CL   UNL     1       7.907  -5.365  23.360  0.00  0.00    -0.083 Cl
ENDROOT
BRANCH   3   8
ATOM      8  N   UNL     1       8.296   0.586  23.501  0.00  0.00    -0.281 N 
ATOM      9  H   UNL     1       8.037   1.046  24.372  0.00  0.00    +0.155 HD
ATOM     10  C   UNL     1       8.757   1.436  22.506  0.00  0.00    +0.258 C 
ATOM     11  O   UNL     1       9.104   1.080  21.383  0.00  0.00    -0.269 OA
BRANCH  10  12
ATOM     12  C   UNL     1       8.788   2.912  22.901  0.00  0.00    +0.107 C 
ATOM     13  S   UNL     1      10.317   3.475  23.514  0.00  0.00    -0.114 S 
ATOM     14  C   UNL     1       9.864   5.055  24.240  0.00  0.00    +0.115 C 
ATOM     15  C   UNL     1       8.758   5.795  23.504  0.00  0.00    +0.239 C 
ATOM     16  O   UNL     1       7.627   5.042  23.102  0.00  0.00    -0.494 OA
ATOM     17  C   UNL     1       7.720   3.725  22.714  0.00  0.00    +0.113 C 
ATOM     18  C   UNL     1       6.421   3.302  22.064  0.00  0.00    +0.087 C 
ENDBRANCH  10  12
ENDBRANCH   3   8
BRANCH   1  19
ATOM     19  C   UNL     1       5.690  -3.424  22.308  0.00  0.00    +0.341 C 
ATOM     20  O   UNL     1       5.547  -3.801  21.157  0.00  0.00    -0.245 OA
BRANCH  19  21
ATOM     21  O   UNL     1       4.761  -3.534  23.294  0.00  0.00    -0.458 OA
BRANCH  21  23
ATOM     22  C   UNL     1       4.775  -5.115  25.135  0.00  0.00    +0.052 C 
ATOM     23  C   UNL     1       4.431  -4.890  23.664  0.00  0.00    +0.171 C 
ATOM     24  C   UNL     1       2.938  -5.093  23.434  0.00  0.00    +0.052 C 
ENDBRANCH  21  23
ENDBRANCH  19  21
ENDBRANCH   1  19
TORSDOF 5
ENDMDL
MODEL 5
REMARK VINA RESULT:      -5.8      2.608      3.405
REMARK  Name = 
REMARK  8 active torsions:
REMARK  status: ('A' for Active; 'I' for Inactive)
REMARK    1  A    between atoms: C_1  and  C_2
REMARK    2  A    between atoms: C_2  and  C_3
REMARK    3  A    between atoms: C_2  and  O_4
REMARK    4  A    between atoms: O_4  and  C_5
REMARK    5  A    between atoms: C_5  and  C_7
REMARK    6  A    between atoms: C_12  and  N_13
REMARK    7  A    between atoms: C_14  and  C_16
REMARK    8  A    between atoms: C_17  and  C_18
REMARK                            x       y       z     vdW  Elec       q    Type
REMARK                         _______ _______ _______ _____ _____    ______ ____
ROOT
ATOM      1  C   UNL     1       8.623  -2.432  25.075  0.00  0.00    +0.079 A 
ATOM      2  C   UNL     1       9.090  -1.125  24.820  0.00  0.00    +0.039 A 
ATOM      3  C   UNL     1       8.643  -0.028  25.584  0.00  0.00    +0.035 A 
ATOM      4  C   UNL     1       7.730  -0.269  26.607  0.00  0.00    +0.025 A 
ATOM      5  C   UNL     1       7.273  -1.566  26.880  0.00  0.00    +0.022 A 
ATOM      6  C   UNL     1       7.714  -2.649  26.122  0.00  0.00    +0.055 A 
ATOM      7 CL   UNL     1       7.120  -4.204  26.574  0.00  0.00    -0.083 Cl
ENDROOT
BRANCH   3   8
ATOM      8  N   UNL     1       9.116   1.262  25.263  0.00  0.00    -0.281 N 
ATOM      9  H   UNL     1       9.912   1.611  25.794  0.00  0.00    +0.155 HD
ATOM     10  C   UNL     1       8.672   2.105  24.253  0.00  0.00    +0.258 C 
ATOM     11  O   UNL     1       7.721   1.873  23.514  0.00  0.00    -0.269 OA
BRANCH  10  12
ATOM     12  C   UNL     1       9.461   3.407  24.126  0.00  0.00    +0.107 C 
ATOM     13  S   UNL     1      10.888   3.306  23.134  0.00  0.00    -0.114 S 
ATOM     14  C   UNL     1      11.739   4.831  23.554  0.00  0.00    +0.115 C 
ATOM     15  C   UNL     1      10.820   6.006  23.853  0.00  0.00    +0.239 C 
ATOM     16  O   UNL     1       9.704   5.762  24.691  0.00  0.00    -0.494 OA
ATOM     17  C   UNL     1       9.031   4.562  24.689  0.00  0.00    +0.113 C 
ATOM     18  C   UNL     1       7.731   4.716  25.447  0.00  0.00    +0.087 C 
ENDBRANCH  10  12
ENDBRANCH   3   8
BRANCH   1  19
ATOM     19  C   UNL     1       9.013  -3.543  24.173  0.00  0.00    +0.341 C 
ATOM     20  O   UNL     1       9.781  -4.436  24.486  0.00  0.00    -0.245 OA
BRANCH  19  21
ATOM     21  O   UNL     1       8.359  -3.448  22.984  0.00  0.00    -0.458 OA
BRANCH  21  23
ATOM     22  C   UNL     1       6.019  -3.107  22.442  0.00  0.00    +0.052 C 
ATOM     23  C   UNL     1       7.068  -4.093  22.952  0.00  0.00    +0.171 C 
ATOM     24  C   UNL     1       7.162  -5.294  22.020  0.00  0.00    +0.052 C 
ENDBRANCH  21  23
ENDBRANCH  19  21
ENDBRANCH   1  19
TORSDOF 5
ENDMDL
MODEL 6
REMARK VINA RESULT:      -5.8      3.316      4.520
REMARK  Name = 
REMARK  8 active torsions:
REMARK  status: ('A' for Active; 'I' for Inactive)
REMARK    1  A    between atoms: C_1  and  C_2
REMARK    2  A    between atoms: C_2  and  C_3
REMARK    3  A    between atoms: C_2  and  O_4
REMARK    4  A    between atoms: O_4  and  C_5
REMARK    5  A    between atoms: C_5  and  C_7
REMARK    6  A    between atoms: C_12  and  N_13
REMARK    7  A    between atoms: C_14  and  C_16
REMARK    8  A    between atoms: C_17  and  C_18
REMARK                            x       y       z     vdW  Elec       q    Type
REMARK                         _______ _______ _______ _____ _____    ______ ____
ROOT
ATOM      1  C   UNL     1       6.321  -4.850  26.149  0.00  0.00    +0.079 A 
ATOM      2  C   UNL     1       6.991  -3.673  25.753  0.00  0.00    +0.039 A 
ATOM      3  C   UNL     1       7.024  -3.271  24.402  0.00  0.00    +0.035 A 
ATOM      4  C   UNL     1       6.368  -4.065  23.465  0.00  0.00    +0.025 A 
ATOM      5  C   UNL     1       5.685  -5.226  23.851  0.00  0.00    +0.022 A 
ATOM      6  C   UNL     1       5.655  -5.623  25.186  0.00  0.00    +0.055 A 
ATOM      7 CL   UNL     1       4.748  -7.045  25.552  0.00  0.00    -0.083 Cl
ENDROOT
BRANCH   3   8
ATOM      8  N   UNL     1       7.738  -2.104  24.057  0.00  0.00    -0.281 N 
ATOM      9  H   UNL     1       7.213  -1.233  24.011  0.00  0.00    +0.155 HD
ATOM     10  C   UNL     1       9.102  -1.976  23.834  0.00  0.00    +0.258 C 
ATOM     11  O   UNL     1       9.903  -2.906  23.832  0.00  0.00    -0.269 OA
BRANCH  10  12
ATOM     12  C   UNL     1       9.565  -0.546  23.557  0.00  0.00    +0.107 C 
ATOM     13  S   UNL     1      10.076   0.344  24.964  0.00  0.00    -0.114 S 
ATOM     14  C   UNL     1      10.131   2.026  24.336  0.00  0.00    +0.115 C 
ATOM     15  C   UNL     1      10.553   2.144  22.880  0.00  0.00    +0.239 C 
ATOM     16  O   UNL     1       9.967   1.243  21.957  0.00  0.00    -0.494 OA
ATOM     17  C   UNL     1       9.634  -0.048  22.299  0.00  0.00    +0.113 C 
ATOM     18  C   UNL     1       9.323  -0.834  21.045  0.00  0.00    +0.087 C 
ENDBRANCH  10  12
ENDBRANCH   3   8
BRANCH   1  19
ATOM     19  C   UNL     1       6.412  -5.312  27.556  0.00  0.00    +0.341 C 
ATOM     20  O   UNL     1       7.327  -5.990  27.991  0.00  0.00    -0.245 OA
BRANCH  19  21
ATOM     21  O   UNL     1       5.370  -4.833  28.287  0.00  0.00    -0.458 OA
BRANCH  21  23
ATOM     22  C   UNL     1       4.785  -5.681  30.484  0.00  0.00    +0.052 C 
ATOM     23  C   UNL     1       4.602  -5.843  28.976  0.00  0.00    +0.171 C 
ATOM     24  C   UNL     1       3.137  -5.660  28.600  0.00  0.00    +0.052 C 
ENDBRANCH  21  23
ENDBRANCH  19  21
ENDBRANCH   1  19
TORSDOF 5
ENDMDL
MODEL 7
REMARK VINA RESULT:      -5.7      2.403      2.816
REMARK  Name = 
REMARK  8 active torsions:
REMARK  status: ('A' for Active; 'I' for Inactive)
REMARK    1  A    between atoms: C_1  and  C_2
REMARK    2  A    between atoms: C_2  and  C_3
REMARK    3  A    between atoms: C_2  and  O_4
REMARK    4  A    between atoms: O_4  and  C_5
REMARK    5  A    between atoms: C_5  and  C_7
REMARK    6  A    between atoms: C_12  and  N_13
REMARK    7  A    between atoms: C_14  and  C_16
REMARK    8  A    between atoms: C_17  and  C_18
REMARK                            x       y       z     vdW  Elec       q    Type
REMARK                         _______ _______ _______ _____ _____    ______ ____
ROOT
ATOM      1  C   UNL     1       7.832  -3.685  24.888  0.00  0.00    +0.079 A 
ATOM      2  C   UNL     1       8.224  -2.344  24.694  0.00  0.00    +0.039 A 
ATOM      3  C   UNL     1       7.784  -1.322  25.561  0.00  0.00    +0.035 A 
ATOM      4  C   UNL     1       6.956  -1.674  26.623  0.00  0.00    +0.025 A 
ATOM      5  C   UNL     1       6.575  -3.006  26.834  0.00  0.00    +0.022 A 
ATOM      6  C   UNL     1       7.009  -4.014  25.975  0.00  0.00    +0.055 A 
ATOM      7 CL   UNL     1       6.515  -5.623  26.356  0.00  0.00    -0.083 Cl
ENDROOT
BRANCH   3   8
ATOM      8  N   UNL     1       8.178   0.008  25.300  0.00  0.00    -0.281 N 
ATOM      9  H   UNL     1       8.949   0.381  25.849  0.00  0.00    +0.155 HD
ATOM     10  C   UNL     1       7.686   0.866  24.326  0.00  0.00    +0.258 C 
ATOM     11  O   UNL     1       6.752   0.609  23.572  0.00  0.00    -0.269 OA
BRANCH  10  12
ATOM     12  C   UNL     1       8.393   2.218  24.261  0.00  0.00    +0.107 C 
ATOM     13  S   UNL     1       7.855   3.384  25.436  0.00  0.00    -0.114 S 
ATOM     14  C   UNL     1       8.569   4.905  24.801  0.00  0.00    +0.115 C 
ATOM     15  C   UNL     1       9.918   4.734  24.119  0.00  0.00    +0.239 C 
ATOM     16  O   UNL     1      10.057   3.653  23.214  0.00  0.00    -0.494 OA
ATOM     17  C   UNL     1       9.409   2.453  23.396  0.00  0.00    +0.113 C 
ATOM     18  C   UNL     1       9.990   1.423  22.452  0.00  0.00    +0.087 C 
ENDBRANCH  10  12
ENDBRANCH   3   8
BRANCH   1  19
ATOM     19  C   UNL     1       8.207  -4.714  23.887  0.00  0.00    +0.341 C 
ATOM     20  O   UNL     1       9.023  -5.597  24.090  0.00  0.00    -0.245 OA
BRANCH  19  21
ATOM     21  O   UNL     1       7.480  -4.561  22.747  0.00  0.00    -0.458 OA
BRANCH  21  23
ATOM     22  C   UNL     1       5.092  -4.942  22.960  0.00  0.00    +0.052 C 
ATOM     23  C   UNL     1       6.438  -5.543  22.559  0.00  0.00    +0.171 C 
ATOM     24  C   UNL     1       6.423  -5.940  21.088  0.00  0.00    +0.052 C 
ENDBRANCH  21  23
ENDBRANCH  19  21
ENDBRANCH   1  19
TORSDOF 5
ENDMDL
MODEL 8
REMARK VINA RESULT:      -5.5      2.449      3.178
REMARK  Name = 
REMARK  8 active torsions:
REMARK  status: ('A' for Active; 'I' for Inactive)
REMARK    1  A    between atoms: C_1  and  C_2
REMARK    2  A    between atoms: C_2  and  C_3
REMARK    3  A    between atoms: C_2  and  O_4
REMARK    4  A    between atoms: O_4  and  C_5
REMARK    5  A    between atoms: C_5  and  C_7
REMARK    6  A    between atoms: C_12  and  N_13
REMARK    7  A    between atoms: C_14  and  C_16
REMARK    8  A    between atoms: C_17  and  C_18
REMARK                            x       y       z     vdW  Elec       q    Type
REMARK                         _______ _______ _______ _____ _____    ______ ____
ROOT
ATOM      1  C   UNL     1       6.162  -4.493  24.902  0.00  0.00    +0.079 A 
ATOM      2  C   UNL     1       6.552  -3.140  24.816  0.00  0.00    +0.039 A 
ATOM      3  C   UNL     1       6.306  -2.382  23.653  0.00  0.00    +0.035 A 
ATOM      4  C   UNL     1       5.657  -3.004  22.589  0.00  0.00    +0.025 A 
ATOM      5  C   UNL     1       5.250  -4.343  22.672  0.00  0.00    +0.022 A 
ATOM      6  C   UNL     1       5.497  -5.091  23.822  0.00  0.00    +0.055 A 
ATOM      7 CL   UNL     1       4.913  -6.715  23.829  0.00  0.00    -0.083 Cl
ENDROOT
BRANCH   3   8
ATOM      8  N   UNL     1       6.749  -1.043  23.607  0.00  0.00    -0.281 N 
ATOM      9  H   UNL     1       6.227  -0.362  24.154  0.00  0.00    +0.155 HD
ATOM     10  C   UNL     1       7.864  -0.537  22.955  0.00  0.00    +0.258 C 
ATOM     11  O   UNL     1       8.614  -1.192  22.236  0.00  0.00    -0.269 OA
BRANCH  10  12
ATOM     12  C   UNL     1       8.103   0.955  23.177  0.00  0.00    +0.107 C 
ATOM     13  S   UNL     1       6.955   2.005  22.396  0.00  0.00    -0.114 S 
ATOM     14  C   UNL     1       7.770   3.601  22.520  0.00  0.00    +0.115 C 
ATOM     15  C   UNL     1       8.591   3.795  23.785  0.00  0.00    +0.239 C 
ATOM     16  O   UNL     1       9.431   2.727  24.186  0.00  0.00    -0.494 OA
ATOM     17  C   UNL     1       9.094   1.409  23.982  0.00  0.00    +0.113 C 
ATOM     18  C   UNL     1      10.027   0.524  24.779  0.00  0.00    +0.087 C 
ENDBRANCH  10  12
ENDBRANCH   3   8
BRANCH   1  19
ATOM     19  C   UNL     1       6.550  -5.298  26.088  0.00  0.00    +0.341 C 
ATOM     20  O   UNL     1       7.621  -5.868  26.203  0.00  0.00    -0.245 OA
BRANCH  19  21
ATOM     21  O   UNL     1       5.571  -5.262  27.032  0.00  0.00    -0.458 OA
BRANCH  21  23
ATOM     22  C   UNL     1       5.269  -6.820  28.867  0.00  0.00    +0.052 C 
ATOM     23  C   UNL     1       5.025  -6.551  27.384  0.00  0.00    +0.171 C 
ATOM     24  C   UNL     1       3.530  -6.527  27.090  0.00  0.00    +0.052 C 
ENDBRANCH  21  23
ENDBRANCH  19  21
ENDBRANCH   1  19
TORSDOF 5
ENDMDL
MODEL 9
REMARK VINA RESULT:      -5.4      3.694      8.307
REMARK  Name = 
REMARK  8 active torsions:
REMARK  status: ('A' for Active; 'I' for Inactive)
REMARK    1  A    between atoms: C_1  and  C_2
REMARK    2  A    between atoms: C_2  and  C_3
REMARK    3  A    between atoms: C_2  and  O_4
REMARK    4  A    between atoms: O_4  and  C_5
REMARK    5  A    between atoms: C_5  and  C_7
REMARK    6  A    between atoms: C_12  and  N_13
REMARK    7  A    between atoms: C_14  and  C_16
REMARK    8  A    between atoms: C_17  and  C_18
REMARK                            x       y       z     vdW  Elec       q    Type
REMARK                         _______ _______ _______ _____ _____    ______ ____
ROOT
ATOM      1  C   UNL     1       8.965   3.676  24.673  0.00  0.00    +0.079 A 
ATOM      2  C   UNL     1       8.605   2.325  24.861  0.00  0.00    +0.039 A 
ATOM      3  C   UNL     1       9.328   1.284  24.243  0.00  0.00    +0.035 A 
ATOM      4  C   UNL     1      10.417   1.624  23.445  0.00  0.00    +0.025 A 
ATOM      5  C   UNL     1      10.793   2.963  23.267  0.00  0.00    +0.022 A 
ATOM      6  C   UNL     1      10.076   3.990  23.876  0.00  0.00    +0.055 A 
ATOM      7 CL   UNL     1      10.655   5.596  23.622  0.00  0.00    -0.083 Cl
ENDROOT
BRANCH   3   8
ATOM      8  N   UNL     1       8.902  -0.048  24.437  0.00  0.00    -0.281 N 
ATOM      9  H   UNL     1       9.347  -0.574  25.186  0.00  0.00    +0.155 HD
ATOM     10  C   UNL     1       7.890  -0.724  23.769  0.00  0.00    +0.258 C 
ATOM     11  O   UNL     1       7.245  -0.270  22.829  0.00  0.00    -0.269 OA
BRANCH  10  12
ATOM     12  C   UNL     1       7.631  -2.139  24.283  0.00  0.00    +0.107 C 
ATOM     13  S   UNL     1       8.951  -3.252  24.063  0.00  0.00    -0.114 S 
ATOM     14  C   UNL     1       8.158  -4.833  24.376  0.00  0.00    +0.115 C 
ATOM     15  C   UNL     1       7.060  -4.792  25.428  0.00  0.00    +0.239 C 
ATOM     16  O   UNL     1       6.130  -3.726  25.357  0.00  0.00    -0.494 OA
ATOM     17  C   UNL     1       6.484  -2.468  24.924  0.00  0.00    +0.113 C 
ATOM     18  C   UNL     1       5.372  -1.496  25.249  0.00  0.00    +0.087 C 
ENDBRANCH  10  12
ENDBRANCH   3   8
BRANCH   1  19
ATOM     19  C   UNL     1       8.109   4.751  25.232  0.00  0.00    +0.341 C 
ATOM     20  O   UNL     1       8.338   5.328  26.281  0.00  0.00    -0.245 OA
BRANCH  19  21
ATOM     21  O   UNL     1       7.078   5.029  24.389  0.00  0.00    -0.458 OA
BRANCH  21  23
ATOM     22  C   UNL     1       7.370   6.244  22.309  0.00  0.00    +0.052 C 
ATOM     23  C   UNL     1       7.111   6.352  23.810  0.00  0.00    +0.171 C 
ATOM     24  C   UNL     1       5.762   7.013  24.068  0.00  0.00    +0.052 C 
ENDBRANCH  21  23
ENDBRANCH  19  21
ENDBRANCH   1  19
TORSDOF 5
ENDMDL
