MODEL 1
REMARK VINA RESULT:      -8.2      0.000      0.000
REMARK  Name = 
REMARK  15 active torsions:
REMARK  status: ('A' for Active; 'I' for Inactive)
REMARK    1  A    between atoms: C_1  and  N_2
REMARK    2  A    between atoms: N_4  and  C_5
REMARK    3  A    between atoms: C_8  and  C_10
REMARK    4  A    between atoms: C_10  and  O_11
REMARK    5  A    between atoms: O_11  and  P_12
REMARK    6  A    between atoms: P_12  and  O_13
REMARK    7  A    between atoms: P_12  and  O_15
REMARK    8  A    between atoms: O_15  and  P_16
REMARK    9  A    between atoms: P_16  and  O_17
REMARK   10  A    between atoms: P_16  and  O_19
REMARK   11  A    between atoms: O_19  and  P_20
REMARK   12  A    between atoms: P_20  and  O_21
REMARK   13  A    between atoms: P_20  and  O_22
REMARK   14  A    between atoms: C_24  and  O_26
REMARK   15  A    between atoms: C_27  and  O_29
REMARK                            x       y       z     vdW  Elec       q    Type
REMARK                         _______ _______ _______ _____ _____    ______ ____
ROOT
ATOM      1  C   UNL     1       8.143  -4.493  26.246  0.00  0.00    +0.257 C 
ATOM      2  C   UNL     1       9.138  -4.689  25.101  0.00  0.00    +0.195 C 
ATOM      3  C   UNL     1       9.363  -3.290  24.532  0.00  0.00    +0.178 C 
ATOM      4  C   UNL     1       8.375  -2.393  25.274  0.00  0.00    +0.178 C 
ATOM      5  O   UNL     1       7.881  -3.106  26.425  0.00  0.00    -0.346 OA
ENDROOT
BRANCH   1  19
ATOM      6  C   UNL     1       4.225  -6.907  27.979  0.00  0.00    +0.441 C 
ATOM      7  N   UNL     1       5.167  -6.310  27.050  0.00  0.00    -0.178 N 
ATOM      8  C   UNL     1       5.104  -6.436  25.663  0.00  0.00    +0.316 A 
ATOM      9  C   UNL     1       4.212  -7.173  24.843  0.00  0.00    +0.327 A 
ATOM     10  N   UNL     1       4.516  -6.957  23.514  0.00  0.00    -0.290 N 
ATOM     11  H   UNL     1       3.909  -7.431  22.859  0.00  0.00    +0.172 HD
ATOM     12  C   UNL     1       5.508  -6.124  23.043  0.00  0.00    +0.195 A 
ATOM     13  N   UNL     1       6.342  -5.470  23.806  0.00  0.00    -0.192 NA
ATOM     14  N   UNL     1       5.560  -6.019  21.694  0.00  0.00    -0.329 N 
ATOM     15  H   UNL     1       6.384  -5.556  21.321  0.00  0.00    +0.145 HD
ATOM     16  H   UNL     1       5.228  -6.780  21.113  0.00  0.00    +0.145 HD
ATOM     17  O   UNL     1       3.294  -7.920  25.173  0.00  0.00    -0.260 OA
ATOM     18  C   UNL     1       6.119  -5.672  25.130  0.00  0.00    +0.221 A 
ATOM     19  N   UNL     1       6.862  -5.213  26.212  0.00  0.00    -0.244 N 
ATOM     20  C   UNL     1       6.230  -5.558  27.349  0.00  0.00    +0.412 A 
ENDBRANCH   1  19
BRANCH   2  21
ATOM     21  O   UNL     1      10.367  -5.257  25.602  0.00  0.00    -0.385 OA
ATOM     22  H   UNL     1      11.033  -5.308  24.892  0.00  0.00    +0.210 HD
ENDBRANCH   2  21
BRANCH   3  23
ATOM     23  O   UNL     1       9.085  -3.299  23.130  0.00  0.00    -0.386 OA
ATOM     24  H   UNL     1       8.876  -2.394  22.839  0.00  0.00    +0.210 HD
ENDBRANCH   3  23
BRANCH   4  25
ATOM     25  C   UNL     1       8.994  -1.060  25.723  0.00  0.00    +0.206 C 
BRANCH  25  26
ATOM     26  O   UNL     1      10.099  -0.801  24.872  0.00  0.00    -0.284 OA
BRANCH  26  27
ATOM     27  P   UNL     1       9.914   0.204  23.641  0.00  0.00    +0.483 P 
ATOM     28  O   UNL     1      10.060  -0.372  22.275  0.00  0.00    -0.227 OA
BRANCH  27  29
ATOM     29  O   UNL     1       8.422   0.738  23.882  0.00  0.00    -0.302 OA
ATOM     30  H   UNL     1       8.307   1.630  23.500  0.00  0.00    +0.222 HD
ENDBRANCH  27  29
BRANCH  27  31
ATOM     31  O   UNL     1      10.811   1.461  24.000  0.00  0.00    -0.186 OA
BRANCH  31  32
ATOM     32  P   UNL     1      10.445   2.922  23.489  0.00  0.00    +0.492 P 
ATOM     33  O   UNL     1       9.314   3.595  24.192  0.00  0.00    -0.226 OA
BRANCH  32  34
ATOM     34  O   UNL     1      10.100   2.642  21.946  0.00  0.00    -0.302 OA
ATOM     35  H   UNL     1      10.201   1.699  21.725  0.00  0.00    +0.222 HD
ENDBRANCH  32  34
BRANCH  32  36
ATOM     36  O   UNL     1      11.849   3.650  23.424  0.00  0.00    -0.186 OA
BRANCH  36  37
ATOM     37  P   UNL     1      12.068   5.205  23.274  0.00  0.00    +0.481 P 
ATOM     38  O   UNL     1      12.673   5.943  24.414  0.00  0.00    -0.227 OA
BRANCH  37  39
ATOM     39  O   UNL     1      10.601   5.734  22.919  0.00  0.00    -0.302 OA
ATOM     40  H   UNL     1      10.623   6.642  22.564  0.00  0.00    +0.222 HD
ENDBRANCH  37  39
BRANCH  37  41
ATOM     41  O   UNL     1      12.790   5.411  21.869  0.00  0.00    -0.302 OA
ATOM     42  H   UNL     1      12.804   4.587  21.348  0.00  0.00    +0.222 HD
ENDBRANCH  37  41
ENDBRANCH  36  37
ENDBRANCH  32  36
ENDBRANCH  31  32
ENDBRANCH  27  31
ENDBRANCH  26  27
ENDBRANCH  25  26
ENDBRANCH   4  25
TORSDOF 14
ENDMDL
MODEL 2
REMARK VINA RESULT:      -7.8      2.974      4.820
REMARK  Name = 
REMARK  15 active torsions:
REMARK  status: ('A' for Active; 'I' for Inactive)
REMARK    1  A    between atoms: C_1  and  N_2
REMARK    2  A    between atoms: N_4  and  C_5
REMARK    3  A    between atoms: C_8  and  C_10
REMARK    4  A    between atoms: C_10  and  O_11
REMARK    5  A    between atoms: O_11  and  P_12
REMARK    6  A    between atoms: P_12  and  O_13
REMARK    7  A    between atoms: P_12  and  O_15
REMARK    8  A    between atoms: O_15  and  P_16
REMARK    9  A    between atoms: P_16  and  O_17
REMARK   10  A    between atoms: P_16  and  O_19
REMARK   11  A    between atoms: O_19  and  P_20
REMARK   12  A    between atoms: P_20  and  O_21
REMARK   13  A    between atoms: P_20  and  O_22
REMARK   14  A    between atoms: C_24  and  O_26
REMARK   15  A    between atoms: C_27  and  O_29
REMARK                            x       y       z     vdW  Elec       q    Type
REMARK                         _______ _______ _______ _____ _____    ______ ____
ROOT
ATOM      1  C   UNL     1       6.766  -1.089  25.546  0.00  0.00    +0.257 C 
ATOM      2  C   UNL     1       5.651  -0.414  24.744  0.00  0.00    +0.195 C 
ATOM      3  C   UNL     1       5.528   0.986  25.342  0.00  0.00    +0.178 C 
ATOM      4  C   UNL     1       6.466   0.989  26.547  0.00  0.00    +0.178 C 
ATOM      5  O   UNL     1       7.336  -0.157  26.457  0.00  0.00    -0.346 OA
ENDROOT
BRANCH   1  19
ATOM      6  C   UNL     1       4.434  -4.127  28.630  0.00  0.00    +0.441 C 
ATOM      7  N   UNL     1       5.410  -3.617  27.684  0.00  0.00    -0.178 N 
ATOM      8  C   UNL     1       6.564  -4.292  27.291  0.00  0.00    +0.316 A 
ATOM      9  C   UNL     1       7.097  -5.536  27.719  0.00  0.00    +0.327 A 
ATOM     10  N   UNL     1       8.249  -5.816  27.012  0.00  0.00    -0.290 N 
ATOM     11  H   UNL     1       8.681  -6.700  27.241  0.00  0.00    +0.172 HD
ATOM     12  C   UNL     1       8.788  -5.033  26.014  0.00  0.00    +0.195 A 
ATOM     13  N   UNL     1       8.306  -3.876  25.645  0.00  0.00    -0.192 NA
ATOM     14  N   UNL     1       9.882  -5.560  25.416  0.00  0.00    -0.329 N 
ATOM     15  H   UNL     1      10.395  -4.930  24.805  0.00  0.00    +0.145 HD
ATOM     16  H   UNL     1      10.478  -6.203  25.924  0.00  0.00    +0.145 HD
ATOM     17  O   UNL     1       6.677  -6.302  28.581  0.00  0.00    -0.260 OA
ATOM     18  C   UNL     1       7.190  -3.524  26.332  0.00  0.00    +0.221 A 
ATOM     19  N   UNL     1       6.473  -2.335  26.268  0.00  0.00    -0.244 N 
ATOM     20  C   UNL     1       5.376  -2.446  27.041  0.00  0.00    +0.412 A 
ENDBRANCH   1  19
BRANCH   2  21
ATOM     21  O   UNL     1       6.007  -0.359  23.346  0.00  0.00    -0.385 OA
ATOM     22  H   UNL     1       5.913  -1.239  22.936  0.00  0.00    +0.210 HD
ENDBRANCH   2  21
BRANCH   3  23
ATOM     23  O   UNL     1       4.177   1.210  25.750  0.00  0.00    -0.386 OA
ATOM     24  H   UNL     1       4.002   0.711  26.567  0.00  0.00    +0.210 HD
ENDBRANCH   3  23
BRANCH   4  25
ATOM     25  C   UNL     1       7.310   2.268  26.649  0.00  0.00    +0.206 C 
BRANCH  25  26
ATOM     26  O   UNL     1       7.298   2.884  25.371  0.00  0.00    -0.284 OA
BRANCH  26  27
ATOM     27  P   UNL     1       8.597   2.774  24.442  0.00  0.00    +0.483 P 
ATOM     28  O   UNL     1       9.455   3.987  24.342  0.00  0.00    -0.227 OA
BRANCH  27  29
ATOM     29  O   UNL     1       9.389   1.566  25.138  0.00  0.00    -0.302 OA
ATOM     30  H   UNL     1       9.691   1.819  26.032  0.00  0.00    +0.222 HD
ENDBRANCH  27  29
BRANCH  27  31
ATOM     31  O   UNL     1       8.079   2.134  23.088  0.00  0.00    -0.186 OA
BRANCH  31  32
ATOM     32  P   UNL     1       9.026   1.247  22.167  0.00  0.00    +0.492 P 
ATOM     33  O   UNL     1      10.479   1.579  22.214  0.00  0.00    -0.226 OA
BRANCH  32  34
ATOM     34  O   UNL     1       8.401   1.522  20.713  0.00  0.00    -0.302 OA
ATOM     35  H   UNL     1       8.317   2.477  20.538  0.00  0.00    +0.222 HD
ENDBRANCH  32  34
BRANCH  32  36
ATOM     36  O   UNL     1       8.567  -0.233  22.488  0.00  0.00    -0.186 OA
BRANCH  36  37
ATOM     37  P   UNL     1       9.509  -1.397  22.983  0.00  0.00    +0.481 P 
ATOM     38  O   UNL     1      10.228  -1.220  24.273  0.00  0.00    -0.227 OA
BRANCH  37  39
ATOM     39  O   UNL     1      10.512  -1.585  21.751  0.00  0.00    -0.302 OA
ATOM     40  H   UNL     1      10.177  -1.151  20.945  0.00  0.00    +0.222 HD
ENDBRANCH  37  39
BRANCH  37  41
ATOM     41  O   UNL     1       8.654  -2.735  22.858  0.00  0.00    -0.302 OA
ATOM     42  H   UNL     1       7.776  -2.565  22.471  0.00  0.00    +0.222 HD
ENDBRANCH  37  41
ENDBRANCH  36  37
ENDBRANCH  32  36
ENDBRANCH  31  32
ENDBRANCH  27  31
ENDBRANCH  26  27
ENDBRANCH  25  26
ENDBRANCH   4  25
TORSDOF 14
ENDMDL
MODEL 3
REMARK VINA RESULT:      -7.7      1.243      1.860
REMARK  Name = 
REMARK  15 active torsions:
REMARK  status: ('A' for Active; 'I' for Inactive)
REMARK    1  A    between atoms: C_1  and  N_2
REMARK    2  A    between atoms: N_4  and  C_5
REMARK    3  A    between atoms: C_8  and  C_10
REMARK    4  A    between atoms: C_10  and  O_11
REMARK    5  A    between atoms: O_11  and  P_12
REMARK    6  A    between atoms: P_12  and  O_13
REMARK    7  A    between atoms: P_12  and  O_15
REMARK    8  A    between atoms: O_15  and  P_16
REMARK    9  A    between atoms: P_16  and  O_17
REMARK   10  A    between atoms: P_16  and  O_19
REMARK   11  A    between atoms: O_19  and  P_20
REMARK   12  A    between atoms: P_20  and  O_21
REMARK   13  A    between atoms: P_20  and  O_22
REMARK   14  A    between atoms: C_24  and  O_26
REMARK   15  A    between atoms: C_27  and  O_29
REMARK                            x       y       z     vdW  Elec       q    Type
REMARK                         _______ _______ _______ _____ _____    ______ ____
ROOT
ATOM      1  C   UNL     1       8.316  -4.326  26.021  0.00  0.00    +0.257 C 
ATOM      2  C   UNL     1       9.230  -4.477  24.803  0.00  0.00    +0.195 C 
ATOM      3  C   UNL     1       9.403  -3.061  24.262  0.00  0.00    +0.178 C 
ATOM      4  C   UNL     1       8.463  -2.196  25.098  0.00  0.00    +0.178 C 
ATOM      5  O   UNL     1       8.056  -2.947  26.259  0.00  0.00    -0.346 OA
ENDROOT
BRANCH   1  19
ATOM      6  C   UNL     1       4.483  -6.713  27.965  0.00  0.00    +0.441 C 
ATOM      7  N   UNL     1       5.387  -6.141  26.985  0.00  0.00    -0.178 N 
ATOM      8  C   UNL     1       5.279  -6.314  25.607  0.00  0.00    +0.316 A 
ATOM      9  C   UNL     1       4.367  -7.087  24.842  0.00  0.00    +0.327 A 
ATOM     10  N   UNL     1       4.625  -6.914  23.497  0.00  0.00    -0.290 N 
ATOM     11  H   UNL     1       4.001  -7.416  22.879  0.00  0.00    +0.172 HD
ATOM     12  C   UNL     1       5.592  -6.089  22.965  0.00  0.00    +0.195 A 
ATOM     13  N   UNL     1       6.445  -5.402  23.677  0.00  0.00    -0.192 NA
ATOM     14  N   UNL     1       5.599  -6.030  21.613  0.00  0.00    -0.329 N 
ATOM     15  H   UNL     1       6.405  -5.573  21.197  0.00  0.00    +0.145 HD
ATOM     16  H   UNL     1       5.255  -6.813  21.069  0.00  0.00    +0.145 HD
ATOM     17  O   UNL     1       3.469  -7.830  25.229  0.00  0.00    -0.260 OA
ATOM     18  C   UNL     1       6.269  -5.560  25.013  0.00  0.00    +0.221 A 
ATOM     19  N   UNL     1       7.042  -5.058  26.054  0.00  0.00    -0.244 N 
ATOM     20  C   UNL     1       6.452  -5.369  27.223  0.00  0.00    +0.412 A 
ENDBRANCH   1  19
BRANCH   2  21
ATOM     21  O   UNL     1      10.496  -5.047  25.201  0.00  0.00    -0.385 OA
ATOM     22  H   UNL     1      11.174  -4.350  25.278  0.00  0.00    +0.210 HD
ENDBRANCH   2  21
BRANCH   3  23
ATOM     23  O   UNL     1       9.028  -3.031  22.884  0.00  0.00    -0.386 OA
ATOM     24  H   UNL     1       8.060  -3.102  22.813  0.00  0.00    +0.210 HD
ENDBRANCH   3  23
BRANCH   4  25
ATOM     25  C   UNL     1       9.100  -0.870  25.543  0.00  0.00    +0.206 C 
BRANCH  25  26
ATOM     26  O   UNL     1      10.141  -0.575  24.626  0.00  0.00    -0.284 OA
BRANCH  26  27
ATOM     27  P   UNL     1       9.936   0.613  23.572  0.00  0.00    +0.483 P 
ATOM     28  O   UNL     1      10.869   1.769  23.674  0.00  0.00    -0.227 OA
BRANCH  27  29
ATOM     29  O   UNL     1      10.125  -0.156  22.178  0.00  0.00    -0.302 OA
ATOM     30  H   UNL     1       9.913   0.431  21.427  0.00  0.00    +0.222 HD
ENDBRANCH  27  29
BRANCH  27  31
ATOM     31  O   UNL     1       8.383   0.925  23.605  0.00  0.00    -0.186 OA
BRANCH  31  32
ATOM     32  P   UNL     1       7.767   2.181  22.847  0.00  0.00    +0.492 P 
ATOM     33  O   UNL     1       6.444   1.964  22.193  0.00  0.00    -0.226 OA
BRANCH  32  34
ATOM     34  O   UNL     1       8.916   2.497  21.772  0.00  0.00    -0.302 OA
ATOM     35  H   UNL     1       9.396   1.689  21.517  0.00  0.00    +0.222 HD
ENDBRANCH  32  34
BRANCH  32  36
ATOM     36  O   UNL     1       7.918   3.354  23.899  0.00  0.00    -0.186 OA
BRANCH  36  37
ATOM     37  P   UNL     1       8.480   4.795  23.590  0.00  0.00    +0.481 P 
ATOM     38  O   UNL     1       8.185   5.888  24.553  0.00  0.00    -0.227 OA
BRANCH  37  39
ATOM     39  O   UNL     1       7.893   5.096  22.132  0.00  0.00    -0.302 OA
ATOM     40  H   UNL     1       8.590   5.391  21.518  0.00  0.00    +0.222 HD
ENDBRANCH  37  39
BRANCH  37  41
ATOM     41  O   UNL     1      10.021   4.596  23.237  0.00  0.00    -0.302 OA
ATOM     42  H   UNL     1      10.525   4.267  24.004  0.00  0.00    +0.222 HD
ENDBRANCH  37  41
ENDBRANCH  36  37
ENDBRANCH  32  36
ENDBRANCH  31  32
ENDBRANCH  27  31
ENDBRANCH  26  27
ENDBRANCH  25  26
ENDBRANCH   4  25
TORSDOF 14
ENDMDL
MODEL 4
REMARK VINA RESULT:      -7.6      2.149      3.460
REMARK  Name = 
REMARK  15 active torsions:
REMARK  status: ('A' for Active; 'I' for Inactive)
REMARK    1  A    between atoms: C_1  and  N_2
REMARK    2  A    between atoms: N_4  and  C_5
REMARK    3  A    between atoms: C_8  and  C_10
REMARK    4  A    between atoms: C_10  and  O_11
REMARK    5  A    between atoms: O_11  and  P_12
REMARK    6  A    between atoms: P_12  and  O_13
REMARK    7  A    between atoms: P_12  and  O_15
REMARK    8  A    between atoms: O_15  and  P_16
REMARK    9  A    between atoms: P_16  and  O_17
REMARK   10  A    between atoms: P_16  and  O_19
REMARK   11  A    between atoms: O_19  and  P_20
REMARK   12  A    between atoms: P_20  and  O_21
REMARK   13  A    between atoms: P_20  and  O_22
REMARK   14  A    between atoms: C_24  and  O_26
REMARK   15  A    between atoms: C_27  and  O_29
REMARK                            x       y       z     vdW  Elec       q    Type
REMARK                         _______ _______ _______ _____ _____    ______ ____
ROOT
ATOM      1  C   UNL     1       6.276  -5.333  24.084  0.00  0.00    +0.257 C 
ATOM      2  C   UNL     1       6.366  -5.308  22.557  0.00  0.00    +0.195 C 
ATOM      3  C   UNL     1       6.600  -3.842  22.201  0.00  0.00    +0.178 C 
ATOM      4  C   UNL     1       6.479  -3.085  23.522  0.00  0.00    +0.178 C 
ATOM      5  O   UNL     1       6.541  -4.035  24.604  0.00  0.00    -0.346 OA
ENDROOT
BRANCH   1  19
ATOM      6  C   UNL     1       1.506  -6.418  24.587  0.00  0.00    +0.441 C 
ATOM      7  N   UNL     1       2.919  -6.273  24.889  0.00  0.00    -0.178 N 
ATOM      8  C   UNL     1       3.496  -6.528  26.132  0.00  0.00    +0.316 A 
ATOM      9  C   UNL     1       2.904  -6.908  27.365  0.00  0.00    +0.327 A 
ATOM     10  N   UNL     1       3.888  -7.088  28.317  0.00  0.00    -0.290 N 
ATOM     11  H   UNL     1       3.550  -7.383  29.223  0.00  0.00    +0.172 HD
ATOM     12  C   UNL     1       5.243  -6.957  28.104  0.00  0.00    +0.195 A 
ATOM     13  N   UNL     1       5.778  -6.581  26.974  0.00  0.00    -0.192 NA
ATOM     14  N   UNL     1       6.011  -7.261  29.177  0.00  0.00    -0.329 N 
ATOM     15  H   UNL     1       6.992  -7.007  29.101  0.00  0.00    +0.145 HD
ATOM     16  H   UNL     1       5.639  -7.156  30.113  0.00  0.00    +0.145 HD
ATOM     17  O   UNL     1       1.717  -7.064  27.637  0.00  0.00    -0.260 OA
ATOM     18  C   UNL     1       4.857  -6.350  26.003  0.00  0.00    +0.221 A 
ATOM     19  N   UNL     1       5.057  -5.854  24.720  0.00  0.00    -0.244 N 
ATOM     20  C   UNL     1       3.887  -5.881  24.056  0.00  0.00    +0.412 A 
ENDBRANCH   1  19
BRANCH   2  21
ATOM     21  O   UNL     1       7.459  -6.139  22.110  0.00  0.00    -0.385 OA
ATOM     22  H   UNL     1       8.313  -5.705  22.292  0.00  0.00    +0.210 HD
ENDBRANCH   2  21
BRANCH   3  23
ATOM     23  O   UNL     1       5.598  -3.413  21.277  0.00  0.00    -0.386 OA
ATOM     24  H   UNL     1       4.772  -3.231  21.761  0.00  0.00    +0.210 HD
ENDBRANCH   3  23
BRANCH   4  25
ATOM     25  C   UNL     1       7.572  -2.022  23.708  0.00  0.00    +0.206 C 
BRANCH  25  26
ATOM     26  O   UNL     1       8.037  -1.666  22.416  0.00  0.00    -0.284 OA
BRANCH  26  27
ATOM     27  P   UNL     1       9.513  -1.065  22.259  0.00  0.00    +0.483 P 
ATOM     28  O   UNL     1      10.647  -2.014  22.442  0.00  0.00    -0.227 OA
BRANCH  27  29
ATOM     29  O   UNL     1       9.473  -0.500  20.760  0.00  0.00    -0.302 OA
ATOM     30  H   UNL     1       9.383   0.472  20.758  0.00  0.00    +0.222 HD
ENDBRANCH  27  29
BRANCH  27  31
ATOM     31  O   UNL     1       9.516   0.251  23.142  0.00  0.00    -0.186 OA
BRANCH  31  32
ATOM     32  P   UNL     1       8.945   1.629  22.589  0.00  0.00    +0.492 P 
ATOM     33  O   UNL     1       7.650   1.551  21.854  0.00  0.00    -0.226 OA
BRANCH  32  34
ATOM     34  O   UNL     1      10.143   2.107  21.632  0.00  0.00    -0.302 OA
ATOM     35  H   UNL     1      10.354   3.048  21.770  0.00  0.00    +0.222 HD
ENDBRANCH  32  34
BRANCH  32  36
ATOM     36  O   UNL     1       9.063   2.600  23.834  0.00  0.00    -0.186 OA
BRANCH  36  37
ATOM     37  P   UNL     1       8.971   4.173  23.779  0.00  0.00    +0.481 P 
ATOM     38  O   UNL     1       8.372   4.884  24.940  0.00  0.00    -0.227 OA
BRANCH  37  39
ATOM     39  O   UNL     1       8.158   4.431  22.426  0.00  0.00    -0.302 OA
ATOM     40  H   UNL     1       7.201   4.517  22.593  0.00  0.00    +0.222 HD
ENDBRANCH  37  39
BRANCH  37  41
ATOM     41  O   UNL     1      10.417   4.681  23.342  0.00  0.00    -0.302 OA
ATOM     42  H   UNL     1      11.121   4.116  23.708  0.00  0.00    +0.222 HD
ENDBRANCH  37  41
ENDBRANCH  36  37
ENDBRANCH  32  36
ENDBRANCH  31  32
ENDBRANCH  27  31
ENDBRANCH  26  27
ENDBRANCH  25  26
ENDBRANCH   4  25
TORSDOF 14
ENDMDL
MODEL 5
REMARK VINA RESULT:      -7.5      0.839      2.262
REMARK  Name = 
REMARK  15 active torsions:
REMARK  status: ('A' for Active; 'I' for Inactive)
REMARK    1  A    between atoms: C_1  and  N_2
REMARK    2  A    between atoms: N_4  and  C_5
REMARK    3  A    between atoms: C_8  and  C_10
REMARK    4  A    between atoms: C_10  and  O_11
REMARK    5  A    between atoms: O_11  and  P_12
REMARK    6  A    between atoms: P_12  and  O_13
REMARK    7  A    between atoms: P_12  and  O_15
REMARK    8  A    between atoms: O_15  and  P_16
REMARK    9  A    between atoms: P_16  and  O_17
REMARK   10  A    between atoms: P_16  and  O_19
REMARK   11  A    between atoms: O_19  and  P_20
REMARK   12  A    between atoms: P_20  and  O_21
REMARK   13  A    between atoms: P_20  and  O_22
REMARK   14  A    between atoms: C_24  and  O_26
REMARK   15  A    between atoms: C_27  and  O_29
REMARK                            x       y       z     vdW  Elec       q    Type
REMARK                         _______ _______ _______ _____ _____    ______ ____
ROOT
ATOM      1  C   UNL     1       7.672  -4.341  26.160  0.00  0.00    +0.257 C 
ATOM      2  C   UNL     1       9.073  -4.569  25.588  0.00  0.00    +0.195 C 
ATOM      3  C   UNL     1       9.503  -3.208  25.046  0.00  0.00    +0.178 C 
ATOM      4  C   UNL     1       8.276  -2.313  25.196  0.00  0.00    +0.178 C 
ATOM      5  O   UNL     1       7.336  -2.962  26.075  0.00  0.00    -0.346 OA
ENDROOT
BRANCH   1  19
ATOM      6  C   UNL     1       4.425  -6.024  22.873  0.00  0.00    +0.441 C 
ATOM      7  N   UNL     1       5.115  -5.807  24.131  0.00  0.00    -0.178 N 
ATOM      8  C   UNL     1       4.692  -6.300  25.365  0.00  0.00    +0.316 A 
ATOM      9  C   UNL     1       3.531  -7.036  25.716  0.00  0.00    +0.327 A 
ATOM     10  N   UNL     1       3.563  -7.341  27.062  0.00  0.00    -0.290 N 
ATOM     11  H   UNL     1       2.779  -7.887  27.391  0.00  0.00    +0.172 HD
ATOM     12  C   UNL     1       4.580  -7.017  27.934  0.00  0.00    +0.195 A 
ATOM     13  N   UNL     1       5.633  -6.315  27.608  0.00  0.00    -0.192 NA
ATOM     14  N   UNL     1       4.416  -7.493  29.190  0.00  0.00    -0.329 N 
ATOM     15  H   UNL     1       5.057  -7.124  29.887  0.00  0.00    +0.145 HD
ATOM     16  H   UNL     1       3.485  -7.665  29.550  0.00  0.00    +0.145 HD
ATOM     17  O   UNL     1       2.590  -7.382  25.007  0.00  0.00    -0.260 OA
ATOM     18  C   UNL     1       5.642  -5.951  26.300  0.00  0.00    +0.221 A 
ATOM     19  N   UNL     1       6.549  -5.133  25.637  0.00  0.00    -0.244 N 
ATOM     20  C   UNL     1       6.243  -5.118  24.326  0.00  0.00    +0.412 A 
ENDBRANCH   1  19
BRANCH   2  21
ATOM     21  O   UNL     1       9.965  -5.028  26.626  0.00  0.00    -0.385 OA
ATOM     22  H   UNL     1       9.893  -4.458  27.414  0.00  0.00    +0.210 HD
ENDBRANCH   2  21
BRANCH   3  23
ATOM     23  O   UNL     1       9.871  -3.340  23.672  0.00  0.00    -0.386 OA
ATOM     24  H   UNL     1      10.121  -4.264  23.493  0.00  0.00    +0.210 HD
ENDBRANCH   3  23
BRANCH   4  25
ATOM     25  C   UNL     1       8.612  -0.917  25.743  0.00  0.00    +0.206 C 
BRANCH  25  26
ATOM     26  O   UNL     1       9.842  -0.521  25.157  0.00  0.00    -0.284 OA
BRANCH  26  27
ATOM     27  P   UNL     1       9.819   0.322  23.796  0.00  0.00    +0.483 P 
ATOM     28  O   UNL     1      10.060  -0.433  22.535  0.00  0.00    -0.227 OA
BRANCH  27  29
ATOM     29  O   UNL     1       8.339   0.937  23.823  0.00  0.00    -0.302 OA
ATOM     30  H   UNL     1       7.872   0.754  22.984  0.00  0.00    +0.222 HD
ENDBRANCH  27  29
BRANCH  27  31
ATOM     31  O   UNL     1      10.739   1.581  24.078  0.00  0.00    -0.186 OA
BRANCH  31  32
ATOM     32  P   UNL     1      10.468   2.986  23.384  0.00  0.00    +0.492 P 
ATOM     33  O   UNL     1       9.163   3.632  23.705  0.00  0.00    -0.226 OA
BRANCH  32  34
ATOM     34  O   UNL     1      10.571   2.597  21.830  0.00  0.00    -0.302 OA
ATOM     35  H   UNL     1      10.237   1.697  21.666  0.00  0.00    +0.222 HD
ENDBRANCH  32  34
BRANCH  32  36
ATOM     36  O   UNL     1      11.807   3.789  23.649  0.00  0.00    -0.186 OA
BRANCH  36  37
ATOM     37  P   UNL     1      12.051   5.306  23.290  0.00  0.00    +0.481 P 
ATOM     38  O   UNL     1      12.812   6.144  24.254  0.00  0.00    -0.227 OA
BRANCH  37  39
ATOM     39  O   UNL     1      10.567   5.854  23.051  0.00  0.00    -0.302 OA
ATOM     40  H   UNL     1       9.897   5.257  23.434  0.00  0.00    +0.222 HD
ENDBRANCH  37  39
BRANCH  37  41
ATOM     41  O   UNL     1      12.601   5.318  21.795  0.00  0.00    -0.302 OA
ATOM     42  H   UNL     1      12.234   6.063  21.284  0.00  0.00    +0.222 HD
ENDBRANCH  37  41
ENDBRANCH  36  37
ENDBRANCH  32  36
ENDBRANCH  31  32
ENDBRANCH  27  31
ENDBRANCH  26  27
ENDBRANCH  25  26
ENDBRANCH   4  25
TORSDOF 14
ENDMDL
MODEL 6
REMARK VINA RESULT:      -7.5      1.654      3.024
REMARK  Name = 
REMARK  15 active torsions:
REMARK  status: ('A' for Active; 'I' for Inactive)
REMARK    1  A    between atoms: C_1  and  N_2
REMARK    2  A    between atoms: N_4  and  C_5
REMARK    3  A    between atoms: C_8  and  C_10
REMARK    4  A    between atoms: C_10  and  O_11
REMARK    5  A    between atoms: O_11  and  P_12
REMARK    6  A    between atoms: P_12  and  O_13
REMARK    7  A    between atoms: P_12  and  O_15
REMARK    8  A    between atoms: O_15  and  P_16
REMARK    9  A    between atoms: P_16  and  O_17
REMARK   10  A    between atoms: P_16  and  O_19
REMARK   11  A    between atoms: O_19  and  P_20
REMARK   12  A    between atoms: P_20  and  O_21
REMARK   13  A    between atoms: P_20  and  O_22
REMARK   14  A    between atoms: C_24  and  O_26
REMARK   15  A    between atoms: C_27  and  O_29
REMARK                            x       y       z     vdW  Elec       q    Type
REMARK                         _______ _______ _______ _____ _____    ______ ____
ROOT
ATOM      1  C   UNL     1       8.138  -4.252  25.494  0.00  0.00    +0.257 C 
ATOM      2  C   UNL     1       9.323  -4.337  24.530  0.00  0.00    +0.195 C 
ATOM      3  C   UNL     1       9.638  -2.889  24.163  0.00  0.00    +0.178 C 
ATOM      4  C   UNL     1       8.527  -2.064  24.809  0.00  0.00    +0.178 C 
ATOM      5  O   UNL     1       7.839  -2.889  25.770  0.00  0.00    -0.346 OA
ENDROOT
BRANCH   1  19
ATOM      6  C   UNL     1       4.214  -5.526  22.819  0.00  0.00    +0.441 C 
ATOM      7  N   UNL     1       5.150  -5.439  23.926  0.00  0.00    -0.178 N 
ATOM      8  C   UNL     1       4.949  -6.007  25.183  0.00  0.00    +0.316 A 
ATOM      9  C   UNL     1       3.838  -6.715  25.710  0.00  0.00    +0.327 A 
ATOM     10  N   UNL     1       4.115  -7.124  26.998  0.00  0.00    -0.290 N 
ATOM     11  H   UNL     1       3.379  -7.658  27.440  0.00  0.00    +0.172 HD
ATOM     12  C   UNL     1       5.301  -6.915  27.668  0.00  0.00    +0.195 A 
ATOM     13  N   UNL     1       6.309  -6.239  27.186  0.00  0.00    -0.192 NA
ATOM     14  N   UNL     1       5.359  -7.480  28.897  0.00  0.00    -0.329 N 
ATOM     15  H   UNL     1       6.145  -7.195  29.475  0.00  0.00    +0.145 HD
ATOM     16  H   UNL     1       4.508  -7.637  29.424  0.00  0.00    +0.145 HD
ATOM     17  O   UNL     1       2.757  -6.962  25.181  0.00  0.00    -0.260 OA
ATOM     18  C   UNL     1       6.083  -5.774  25.930  0.00  0.00    +0.221 A 
ATOM     19  N   UNL     1       6.889  -4.949  25.155  0.00  0.00    -0.244 N 
ATOM     20  C   UNL     1       6.333  -4.819  23.936  0.00  0.00    +0.412 A 
ENDBRANCH   1  19
BRANCH   2  21
ATOM     21  O   UNL     1      10.447  -4.971  25.180  0.00  0.00    -0.385 OA
ATOM     22  H   UNL     1      10.733  -4.449  25.953  0.00  0.00    +0.210 HD
ENDBRANCH   2  21
BRANCH   3  23
ATOM     23  O   UNL     1       9.615  -2.745  22.742  0.00  0.00    -0.386 OA
ATOM     24  H   UNL     1       8.969  -2.059  22.499  0.00  0.00    +0.210 HD
ENDBRANCH   3  23
BRANCH   4  25
ATOM     25  C   UNL     1       9.046  -0.794  25.501  0.00  0.00    +0.206 C 
BRANCH  25  26
ATOM     26  O   UNL     1      10.217  -0.388  24.811  0.00  0.00    -0.284 OA
BRANCH  26  27
ATOM     27  P   UNL     1      10.143   0.875  23.830  0.00  0.00    +0.483 P 
ATOM     28  O   UNL     1      11.262   1.855  23.911  0.00  0.00    -0.227 OA
BRANCH  27  29
ATOM     29  O   UNL     1      10.104   0.165  22.393  0.00  0.00    -0.302 OA
ATOM     30  H   UNL     1      10.631  -0.658  22.399  0.00  0.00    +0.222 HD
ENDBRANCH  27  29
BRANCH  27  31
ATOM     31  O   UNL     1       8.671   1.437  23.996  0.00  0.00    -0.186 OA
BRANCH  31  32
ATOM     32  P   UNL     1       7.836   1.973  22.753  0.00  0.00    +0.492 P 
ATOM     33  O   UNL     1       7.014   0.959  22.031  0.00  0.00    -0.226 OA
BRANCH  32  34
ATOM     34  O   UNL     1       9.001   2.565  21.820  0.00  0.00    -0.302 OA
ATOM     35  H   UNL     1       8.980   3.538  21.799  0.00  0.00    +0.222 HD
ENDBRANCH  32  34
BRANCH  32  36
ATOM     36  O   UNL     1       7.128   3.271  23.320  0.00  0.00    -0.186 OA
BRANCH  36  37
ATOM     37  P   UNL     1       7.829   4.661  23.571  0.00  0.00    +0.481 P 
ATOM     38  O   UNL     1       7.182   5.617  24.508  0.00  0.00    -0.227 OA
BRANCH  37  39
ATOM     39  O   UNL     1       7.965   5.259  22.093  0.00  0.00    -0.302 OA
ATOM     40  H   UNL     1       8.355   6.153  22.102  0.00  0.00    +0.222 HD
ENDBRANCH  37  39
BRANCH  37  41
ATOM     41  O   UNL     1       9.356   4.330  23.884  0.00  0.00    -0.302 OA
ATOM     42  H   UNL     1       9.456   3.451  24.293  0.00  0.00    +0.222 HD
ENDBRANCH  37  41
ENDBRANCH  36  37
ENDBRANCH  32  36
ENDBRANCH  31  32
ENDBRANCH  27  31
ENDBRANCH  26  27
ENDBRANCH  25  26
ENDBRANCH   4  25
TORSDOF 14
ENDMDL
MODEL 7
REMARK VINA RESULT:      -7.4      2.278      3.723
REMARK  Name = 
REMARK  15 active torsions:
REMARK  status: ('A' for Active; 'I' for Inactive)
REMARK    1  A    between atoms: C_1  and  N_2
REMARK    2  A    between atoms: N_4  and  C_5
REMARK    3  A    between atoms: C_8  and  C_10
REMARK    4  A    between atoms: C_10  and  O_11
REMARK    5  A    between atoms: O_11  and  P_12
REMARK    6  A    between atoms: P_12  and  O_13
REMARK    7  A    between atoms: P_12  and  O_15
REMARK    8  A    between atoms: O_15  and  P_16
REMARK    9  A    between atoms: P_16  and  O_17
REMARK   10  A    between atoms: P_16  and  O_19
REMARK   11  A    between atoms: O_19  and  P_20
REMARK   12  A    between atoms: P_20  and  O_21
REMARK   13  A    between atoms: P_20  and  O_22
REMARK   14  A    between atoms: C_24  and  O_26
REMARK   15  A    between atoms: C_27  and  O_29
REMARK                            x       y       z     vdW  Elec       q    Type
REMARK                         _______ _______ _______ _____ _____    ______ ____
ROOT
ATOM      1  C   UNL     1       7.604  -4.892  25.600  0.00  0.00    +0.257 C 
ATOM      2  C   UNL     1       8.628  -4.811  24.467  0.00  0.00    +0.195 C 
ATOM      3  C   UNL     1       8.932  -3.323  24.315  0.00  0.00    +0.178 C 
ATOM      4  C   UNL     1       7.958  -2.619  25.257  0.00  0.00    +0.178 C 
ATOM      5  O   UNL     1       7.394  -3.598  26.152  0.00  0.00    -0.346 OA
ENDROOT
BRANCH   1  19
ATOM      6  C   UNL     1       3.572  -6.125  23.070  0.00  0.00    +0.441 C 
ATOM      7  N   UNL     1       4.515  -5.989  24.165  0.00  0.00    -0.178 N 
ATOM      8  C   UNL     1       4.268  -6.378  25.480  0.00  0.00    +0.316 A 
ATOM      9  C   UNL     1       3.099  -6.914  26.080  0.00  0.00    +0.327 A 
ATOM     10  N   UNL     1       3.343  -7.186  27.411  0.00  0.00    -0.290 N 
ATOM     11  H   UNL     1       2.564  -7.594  27.909  0.00  0.00    +0.172 HD
ATOM     12  C   UNL     1       4.546  -7.004  28.060  0.00  0.00    +0.195 A 
ATOM     13  N   UNL     1       5.609  -6.485  27.507  0.00  0.00    -0.192 NA
ATOM     14  N   UNL     1       4.557  -7.418  29.349  0.00  0.00    -0.329 N 
ATOM     15  H   UNL     1       5.367  -7.136  29.894  0.00  0.00    +0.145 HD
ATOM     16  H   UNL     1       3.697  -7.432  29.884  0.00  0.00    +0.145 HD
ATOM     17  O   UNL     1       1.999  -7.126  25.578  0.00  0.00    -0.260 OA
ATOM     18  C   UNL     1       5.421  -6.159  26.202  0.00  0.00    +0.221 A 
ATOM     19  N   UNL     1       6.296  -5.510  25.338  0.00  0.00    -0.244 N 
ATOM     20  C   UNL     1       5.750  -5.481  24.108  0.00  0.00    +0.412 A 
ENDBRANCH   1  19
BRANCH   2  21
ATOM     21  O   UNL     1       9.815  -5.557  24.816  0.00  0.00    -0.385 OA
ATOM     22  H   UNL     1       9.855  -5.702  25.779  0.00  0.00    +0.210 HD
ENDBRANCH   2  21
BRANCH   3  23
ATOM     23  O   UNL     1       8.702  -2.928  22.961  0.00  0.00    -0.386 OA
ATOM     24  H   UNL     1       7.901  -2.376  22.919  0.00  0.00    +0.210 HD
ENDBRANCH   3  23
BRANCH   4  25
ATOM     25  C   UNL     1       8.615  -1.496  26.073  0.00  0.00    +0.206 C 
BRANCH  25  26
ATOM     26  O   UNL     1       7.573  -0.674  26.574  0.00  0.00    -0.284 OA
BRANCH  26  27
ATOM     27  P   UNL     1       7.490   0.853  26.098  0.00  0.00    +0.483 P 
ATOM     28  O   UNL     1       7.065   1.852  27.117  0.00  0.00    -0.227 OA
BRANCH  27  29
ATOM     29  O   UNL     1       8.997   1.124  25.622  0.00  0.00    -0.302 OA
ATOM     30  H   UNL     1       9.320   0.394  25.059  0.00  0.00    +0.222 HD
ENDBRANCH  27  29
BRANCH  27  31
ATOM     31  O   UNL     1       6.682   0.814  24.735  0.00  0.00    -0.186 OA
BRANCH  31  32
ATOM     32  P   UNL     1       7.315   1.338  23.373  0.00  0.00    +0.492 P 
ATOM     33  O   UNL     1       7.920   2.700  23.416  0.00  0.00    -0.226 OA
BRANCH  32  34
ATOM     34  O   UNL     1       6.044   1.284  22.392  0.00  0.00    -0.302 OA
ATOM     35  H   UNL     1       6.128   0.563  21.742  0.00  0.00    +0.222 HD
ENDBRANCH  32  34
BRANCH  32  36
ATOM     36  O   UNL     1       8.202   0.120  22.889  0.00  0.00    -0.186 OA
BRANCH  36  37
ATOM     37  P   UNL     1       9.670   0.225  22.322  0.00  0.00    +0.481 P 
ATOM     38  O   UNL     1      10.801   0.210  23.288  0.00  0.00    -0.227 OA
BRANCH  37  39
ATOM     39  O   UNL     1       9.622   1.578  21.469  0.00  0.00    -0.302 OA
ATOM     40  H   UNL     1      10.472   1.752  21.023  0.00  0.00    +0.222 HD
ENDBRANCH  37  39
BRANCH  37  41
ATOM     41  O   UNL     1       9.764  -0.847  21.147  0.00  0.00    -0.302 OA
ATOM     42  H   UNL     1      10.155  -1.684  21.457  0.00  0.00    +0.222 HD
ENDBRANCH  37  41
ENDBRANCH  36  37
ENDBRANCH  32  36
ENDBRANCH  31  32
ENDBRANCH  27  31
ENDBRANCH  26  27
ENDBRANCH  25  26
ENDBRANCH   4  25
TORSDOF 14
ENDMDL
MODEL 8
REMARK VINA RESULT:      -7.4      2.565      3.861
REMARK  Name = 
REMARK  15 active torsions:
REMARK  status: ('A' for Active; 'I' for Inactive)
REMARK    1  A    between atoms: C_1  and  N_2
REMARK    2  A    between atoms: N_4  and  C_5
REMARK    3  A    between atoms: C_8  and  C_10
REMARK    4  A    between atoms: C_10  and  O_11
REMARK    5  A    between atoms: O_11  and  P_12
REMARK    6  A    between atoms: P_12  and  O_13
REMARK    7  A    between atoms: P_12  and  O_15
REMARK    8  A    between atoms: O_15  and  P_16
REMARK    9  A    between atoms: P_16  and  O_17
REMARK   10  A    between atoms: P_16  and  O_19
REMARK   11  A    between atoms: O_19  and  P_20
REMARK   12  A    between atoms: P_20  and  O_21
REMARK   13  A    between atoms: P_20  and  O_22
REMARK   14  A    between atoms: C_24  and  O_26
REMARK   15  A    between atoms: C_27  and  O_29
REMARK                            x       y       z     vdW  Elec       q    Type
REMARK                         _______ _______ _______ _____ _____    ______ ____
ROOT
ATOM      1  C   UNL     1       7.002  -1.665  24.369  0.00  0.00    +0.257 C 
ATOM      2  C   UNL     1       8.244  -2.139  25.125  0.00  0.00    +0.195 C 
ATOM      3  C   UNL     1       9.382  -2.044  24.112  0.00  0.00    +0.178 C 
ATOM      4  C   UNL     1       8.711  -1.671  22.792  0.00  0.00    +0.178 C 
ATOM      5  O   UNL     1       7.369  -1.223  23.068  0.00  0.00    -0.346 OA
ENDROOT
BRANCH   1  19
ATOM      6  C   UNL     1       2.613  -3.615  25.424  0.00  0.00    +0.441 C 
ATOM      7  N   UNL     1       3.907  -3.409  24.800  0.00  0.00    -0.178 N 
ATOM      8  C   UNL     1       4.488  -4.270  23.871  0.00  0.00    +0.316 A 
ATOM      9  C   UNL     1       4.043  -5.519  23.365  0.00  0.00    +0.327 A 
ATOM     10  N   UNL     1       4.939  -5.985  22.424  0.00  0.00    -0.290 N 
ATOM     11  H   UNL     1       4.683  -6.864  21.996  0.00  0.00    +0.172 HD
ATOM     12  C   UNL     1       6.077  -5.330  22.006  0.00  0.00    +0.195 A 
ATOM     13  N   UNL     1       6.493  -4.193  22.496  0.00  0.00    -0.192 NA
ATOM     14  N   UNL     1       6.754  -5.957  21.015  0.00  0.00    -0.329 N 
ATOM     15  H   UNL     1       7.679  -5.587  20.813  0.00  0.00    +0.145 HD
ATOM     16  H   UNL     1       6.692  -6.963  20.917  0.00  0.00    +0.145 HD
ATOM     17  O   UNL     1       3.041  -6.162  23.665  0.00  0.00    -0.260 OA
ATOM     18  C   UNL     1       5.672  -3.698  23.457  0.00  0.00    +0.221 A 
ATOM     19  N   UNL     1       5.849  -2.570  24.250  0.00  0.00    -0.244 N 
ATOM     20  C   UNL     1       4.745  -2.388  24.999  0.00  0.00    +0.412 A 
ENDBRANCH   1  19
BRANCH   2  21
ATOM     21  O   UNL     1       8.485  -1.289  26.267  0.00  0.00    -0.385 OA
ATOM     22  H   UNL     1       8.238  -0.367  26.064  0.00  0.00    +0.210 HD
ENDBRANCH   2  21
BRANCH   3  23
ATOM     23  O   UNL     1      10.032  -3.313  24.009  0.00  0.00    -0.386 OA
ATOM     24  H   UNL     1      10.979  -3.174  23.833  0.00  0.00    +0.210 HD
ENDBRANCH   3  23
BRANCH   4  25
ATOM     25  C   UNL     1       9.468  -0.580  22.019  0.00  0.00    +0.206 C 
BRANCH  25  26
ATOM     26  O   UNL     1       8.807   0.650  22.272  0.00  0.00    -0.284 OA
BRANCH  26  27
ATOM     27  P   UNL     1       9.639   1.864  22.902  0.00  0.00    +0.483 P 
ATOM     28  O   UNL     1      10.607   1.527  23.983  0.00  0.00    -0.227 OA
BRANCH  27  29
ATOM     29  O   UNL     1      10.396   2.440  21.612  0.00  0.00    -0.302 OA
ATOM     30  H   UNL     1      10.881   1.729  21.149  0.00  0.00    +0.222 HD
ENDBRANCH  27  29
BRANCH  27  31
ATOM     31  O   UNL     1       8.559   2.981  23.215  0.00  0.00    -0.186 OA
BRANCH  31  32
ATOM     32  P   UNL     1       7.751   3.002  24.585  0.00  0.00    +0.492 P 
ATOM     33  O   UNL     1       8.377   3.768  25.701  0.00  0.00    -0.226 OA
BRANCH  32  34
ATOM     34  O   UNL     1       7.657   1.434  24.922  0.00  0.00    -0.302 OA
ATOM     35  H   UNL     1       8.528   1.069  25.158  0.00  0.00    +0.222 HD
ENDBRANCH  32  34
BRANCH  32  36
ATOM     36  O   UNL     1       6.278   3.368  24.136  0.00  0.00    -0.186 OA
BRANCH  36  37
ATOM     37  P   UNL     1       5.614   2.971  22.762  0.00  0.00    +0.481 P 
ATOM     38  O   UNL     1       4.142   3.126  22.620  0.00  0.00    -0.227 OA
BRANCH  37  39
ATOM     39  O   UNL     1       6.085   1.454  22.569  0.00  0.00    -0.302 OA
ATOM     40  H   UNL     1       6.880   1.255  23.097  0.00  0.00    +0.222 HD
ENDBRANCH  37  39
BRANCH  37  41
ATOM     41  O   UNL     1       6.486   3.683  21.634  0.00  0.00    -0.302 OA
ATOM     42  H   UNL     1       6.538   4.646  21.775  0.00  0.00    +0.222 HD
ENDBRANCH  37  41
ENDBRANCH  36  37
ENDBRANCH  32  36
ENDBRANCH  31  32
ENDBRANCH  27  31
ENDBRANCH  26  27
ENDBRANCH  25  26
ENDBRANCH   4  25
TORSDOF 14
ENDMDL
MODEL 9
REMARK VINA RESULT:      -7.4      2.840      4.737
REMARK  Name = 
REMARK  15 active torsions:
REMARK  status: ('A' for Active; 'I' for Inactive)
REMARK    1  A    between atoms: C_1  and  N_2
REMARK    2  A    between atoms: N_4  and  C_5
REMARK    3  A    between atoms: C_8  and  C_10
REMARK    4  A    between atoms: C_10  and  O_11
REMARK    5  A    between atoms: O_11  and  P_12
REMARK    6  A    between atoms: P_12  and  O_13
REMARK    7  A    between atoms: P_12  and  O_15
REMARK    8  A    between atoms: O_15  and  P_16
REMARK    9  A    between atoms: P_16  and  O_17
REMARK   10  A    between atoms: P_16  and  O_19
REMARK   11  A    between atoms: O_19  and  P_20
REMARK   12  A    between atoms: P_20  and  O_21
REMARK   13  A    between atoms: P_20  and  O_22
REMARK   14  A    between atoms: C_24  and  O_26
REMARK   15  A    between atoms: C_27  and  O_29
REMARK                            x       y       z     vdW  Elec       q    Type
REMARK                         _______ _______ _______ _____ _____    ______ ____
ROOT
ATOM      1  C   UNL     1       7.708  -1.554  23.566  0.00  0.00    +0.257 C 
ATOM      2  C   UNL     1       9.200  -1.752  23.842  0.00  0.00    +0.195 C 
ATOM      3  C   UNL     1       9.911  -0.923  22.776  0.00  0.00    +0.178 C 
ATOM      4  C   UNL     1       8.802  -0.419  21.855  0.00  0.00    +0.178 C 
ATOM      5  O   UNL     1       7.534  -0.613  22.513  0.00  0.00    -0.346 OA
ENDROOT
BRANCH   1  19
ATOM      6  C   UNL     1       6.178  -5.616  21.256  0.00  0.00    +0.441 C 
ATOM      7  N   UNL     1       6.227  -4.507  22.191  0.00  0.00    -0.178 N 
ATOM      8  C   UNL     1       5.227  -4.198  23.111  0.00  0.00    +0.316 A 
ATOM      9  C   UNL     1       3.959  -4.794  23.332  0.00  0.00    +0.327 A 
ATOM     10  N   UNL     1       3.329  -4.169  24.389  0.00  0.00    -0.290 N 
ATOM     11  H   UNL     1       2.423  -4.551  24.627  0.00  0.00    +0.172 HD
ATOM     12  C   UNL     1       3.858  -3.147  25.147  0.00  0.00    +0.195 A 
ATOM     13  N   UNL     1       5.015  -2.586  24.921  0.00  0.00    -0.192 NA
ATOM     14  N   UNL     1       3.077  -2.752  26.180  0.00  0.00    -0.329 N 
ATOM     15  H   UNL     1       3.361  -1.892  26.642  0.00  0.00    +0.145 HD
ATOM     16  H   UNL     1       2.072  -2.869  26.130  0.00  0.00    +0.145 HD
ATOM     17  O   UNL     1       3.419  -5.713  22.722  0.00  0.00    -0.260 OA
ATOM     18  C   UNL     1       5.671  -3.132  23.865  0.00  0.00    +0.221 A 
ATOM     19  N   UNL     1       6.871  -2.730  23.289  0.00  0.00    -0.244 N 
ATOM     20  C   UNL     1       7.209  -3.612  22.330  0.00  0.00    +0.412 A 
ENDBRANCH   1  19
BRANCH   2  21
ATOM     21  O   UNL     1       9.525  -1.290  25.171  0.00  0.00    -0.385 OA
ATOM     22  H   UNL     1      10.291  -0.688  25.145  0.00  0.00    +0.210 HD
ENDBRANCH   2  21
BRANCH   3  23
ATOM     23  O   UNL     1      10.826  -1.755  22.060  0.00  0.00    -0.386 OA
ATOM     24  H   UNL     1      11.669  -1.797  22.545  0.00  0.00    +0.210 HD
ENDBRANCH   3  23
BRANCH   4  25
ATOM     25  C   UNL     1       8.961   1.060  21.474  0.00  0.00    +0.206 C 
BRANCH  25  26
ATOM     26  O   UNL     1      10.156   1.525  22.081  0.00  0.00    -0.284 OA
BRANCH  26  27
ATOM     27  P   UNL     1      10.067   2.664  23.202  0.00  0.00    +0.483 P 
ATOM     28  O   UNL     1      11.303   3.455  23.457  0.00  0.00    -0.227 OA
BRANCH  27  29
ATOM     29  O   UNL     1       8.899   3.596  22.621  0.00  0.00    -0.302 OA
ATOM     30  H   UNL     1       9.085   4.538  22.801  0.00  0.00    +0.222 HD
ENDBRANCH  27  29
BRANCH  27  31
ATOM     31  O   UNL     1       9.383   1.961  24.447  0.00  0.00    -0.186 OA
BRANCH  31  32
ATOM     32  P   UNL     1       8.091   2.571  25.146  0.00  0.00    +0.492 P 
ATOM     33  O   UNL     1       8.185   4.003  25.553  0.00  0.00    -0.226 OA
BRANCH  32  34
ATOM     34  O   UNL     1       7.931   1.603  26.417  0.00  0.00    -0.302 OA
ATOM     35  H   UNL     1       8.021   0.667  26.164  0.00  0.00    +0.222 HD
ENDBRANCH  32  34
BRANCH  32  36
ATOM     36  O   UNL     1       6.910   2.121  24.193  0.00  0.00    -0.186 OA
BRANCH  36  37
ATOM     37  P   UNL     1       5.412   1.903  24.633  0.00  0.00    +0.481 P 
ATOM     38  O   UNL     1       4.972   2.465  25.937  0.00  0.00    -0.227 OA
BRANCH  37  39
ATOM     39  O   UNL     1       5.256   0.312  24.575  0.00  0.00    -0.302 OA
ATOM     40  H   UNL     1       6.108  -0.138  24.721  0.00  0.00    +0.222 HD
ENDBRANCH  37  39
BRANCH  37  41
ATOM     41  O   UNL     1       4.523   2.320  23.378  0.00  0.00    -0.302 OA
ATOM     42  H   UNL     1       3.621   1.958  23.441  0.00  0.00    +0.222 HD
ENDBRANCH  37  41
ENDBRANCH  36  37
ENDBRANCH  32  36
ENDBRANCH  31  32
ENDBRANCH  27  31
ENDBRANCH  26  27
ENDBRANCH  25  26
ENDBRANCH   4  25
TORSDOF 14
ENDMDL
