MODEL 1
REMARK VINA RESULT:      -3.5      0.000      0.000
REMARK  Name = 
REMARK  5 active torsions:
REMARK  status: ('A' for Active; 'I' for Inactive)
REMARK    1  A    between atoms: S_1  and  C_2
REMARK    2  A    between atoms: C_3  and  C_4
REMARK    3  A    between atoms: C_4  and  S_5
REMARK    4  A    between atoms: S_5  and  C_7
REMARK    5  A    between atoms: C_7  and  C_8
REMARK                            x       y       z     vdW  Elec       q    Type
REMARK                         _______ _______ _______ _____ _____    ______ ____
ROOT
ATOM      1  C   UNL     1       8.093  -2.502  22.493  0.00  0.00    +0.131 C 
ENDROOT
BRANCH   1   3
ATOM      2  C   UNL     1       9.468  -0.493  21.881  0.00  0.00    +0.034 C 
ATOM      3  C   UNL     1       8.421  -1.041  22.512  0.00  0.00    -0.007 C 
BRANCH   2   4
ATOM      4  S   UNL     1       9.782   1.204  21.967  0.00  0.00    -0.151 S 
ATOM      5  H   UNL     1       9.205   1.462  23.150  0.00  0.00    +0.107 HD
ENDBRANCH   2   4
ENDBRANCH   1   3
BRANCH   1   6
ATOM      6  S   UNL     1       8.567  -3.281  24.074  0.00  0.00    +0.030 S 
ATOM      7  O   UNL     1      10.065  -3.404  24.087  0.00  0.00    -0.257 OA
BRANCH   6   8
ATOM      8  C   UNL     1       7.877  -4.921  23.670  0.00  0.00    +0.130 C 
BRANCH   8   9
ATOM      9  C   UNL     1       7.197  -4.889  22.336  0.00  0.00    -0.021 C 
ATOM     10  C   UNL     1       6.866  -5.970  21.615  0.00  0.00    +0.005 C 
ENDBRANCH   8   9
ENDBRANCH   6   8
ENDBRANCH   1   6
TORSDOF 5
ENDMDL
MODEL 2
REMARK VINA RESULT:      -3.4      1.835      4.713
REMARK  Name = 
REMARK  5 active torsions:
REMARK  status: ('A' for Active; 'I' for Inactive)
REMARK    1  A    between atoms: S_1  and  C_2
REMARK    2  A    between atoms: C_3  and  C_4
REMARK    3  A    between atoms: C_4  and  S_5
REMARK    4  A    between atoms: S_5  and  C_7
REMARK    5  A    between atoms: C_7  and  C_8
REMARK                            x       y       z     vdW  Elec       q    Type
REMARK                         _______ _______ _______ _____ _____    ______ ____
ROOT
ATOM      1  C   UNL     1       7.753  -2.001  23.016  0.00  0.00    +0.131 C 
ENDROOT
BRANCH   1   3
ATOM      2  C   UNL     1       7.421  -4.481  22.824  0.00  0.00    +0.034 C 
ATOM      3  C   UNL     1       7.394  -3.257  22.283  0.00  0.00    -0.007 C 
BRANCH   2   4
ATOM      4  S   UNL     1       7.004  -5.881  21.901  0.00  0.00    -0.151 S 
ATOM      5  H   UNL     1       6.321  -5.284  20.914  0.00  0.00    +0.107 HD
ENDBRANCH   2   4
ENDBRANCH   1   3
BRANCH   1   6
ATOM      6  S   UNL     1       9.440  -2.124  23.702  0.00  0.00    +0.030 S 
ATOM      7  O   UNL     1       9.541  -1.140  24.833  0.00  0.00    -0.257 OA
BRANCH   6   8
ATOM      8  C   UNL     1      10.269  -1.392  22.250  0.00  0.00    +0.130 C 
BRANCH   8   9
ATOM      9  C   UNL     1       9.493  -0.215  21.742  0.00  0.00    -0.021 C 
ATOM     10  C   UNL     1       9.851   1.067  21.899  0.00  0.00    +0.005 C 
ENDBRANCH   8   9
ENDBRANCH   6   8
ENDBRANCH   1   6
TORSDOF 5
ENDMDL
MODEL 3
REMARK VINA RESULT:      -3.4      1.788      1.797
REMARK  Name = 
REMARK  5 active torsions:
REMARK  status: ('A' for Active; 'I' for Inactive)
REMARK    1  A    between atoms: S_1  and  C_2
REMARK    2  A    between atoms: C_3  and  C_4
REMARK    3  A    between atoms: C_4  and  S_5
REMARK    4  A    between atoms: S_5  and  C_7
REMARK    5  A    between atoms: C_7  and  C_8
REMARK                            x       y       z     vdW  Elec       q    Type
REMARK                         _______ _______ _______ _____ _____    ______ ____
ROOT
ATOM      1  C   UNL     1       8.606  -3.153  23.527  0.00  0.00    +0.131 C 
ENDROOT
BRANCH   1   3
ATOM      2  C   UNL     1       9.897  -1.018  23.800  0.00  0.00    +0.034 C 
ATOM      3  C   UNL     1       9.118  -1.982  24.308  0.00  0.00    -0.007 C 
BRANCH   2   4
ATOM      4  S   UNL     1      10.457   0.293  24.777  0.00  0.00    -0.151 S 
ATOM      5  H   UNL     1      11.164  -0.406  25.677  0.00  0.00    +0.107 HD
ENDBRANCH   2   4
ENDBRANCH   1   3
BRANCH   1   6
ATOM      6  S   UNL     1       8.258  -4.557  24.640  0.00  0.00    +0.030 S 
ATOM      7  O   UNL     1       9.375  -5.549  24.479  0.00  0.00    -0.257 OA
BRANCH   6   8
ATOM      8  C   UNL     1       6.824  -5.173  23.693  0.00  0.00    +0.130 C 
BRANCH   8   9
ATOM      9  C   UNL     1       7.261  -5.683  22.354  0.00  0.00    -0.021 C 
ATOM     10  C   UNL     1       6.480  -5.754  21.267  0.00  0.00    +0.005 C 
ENDBRANCH   8   9
ENDBRANCH   6   8
ENDBRANCH   1   6
TORSDOF 5
ENDMDL
MODEL 4
REMARK VINA RESULT:      -3.3      2.511      5.263
REMARK  Name = 
REMARK  5 active torsions:
REMARK  status: ('A' for Active; 'I' for Inactive)
REMARK    1  A    between atoms: S_1  and  C_2
REMARK    2  A    between atoms: C_3  and  C_4
REMARK    3  A    between atoms: C_4  and  S_5
REMARK    4  A    between atoms: S_5  and  C_7
REMARK    5  A    between atoms: C_7  and  C_8
REMARK                            x       y       z     vdW  Elec       q    Type
REMARK                         _______ _______ _______ _____ _____    ______ ____
ROOT
ATOM      1  C   UNL     1       8.677  -3.142  23.838  0.00  0.00    +0.131 C 
ENDROOT
BRANCH   1   3
ATOM      2  C   UNL     1       7.452  -5.126  22.909  0.00  0.00    +0.034 C 
ATOM      3  C   UNL     1       7.706  -3.811  22.915  0.00  0.00    -0.007 C 
BRANCH   2   4
ATOM      4  S   UNL     1       6.325  -5.819  21.798  0.00  0.00    -0.151 S 
ATOM      5  H   UNL     1       7.002  -6.934  21.484  0.00  0.00    +0.107 HD
ENDBRANCH   2   4
ENDBRANCH   1   3
BRANCH   1   6
ATOM      6  S   UNL     1       9.284  -1.586  23.104  0.00  0.00    +0.030 S 
ATOM      7  O   UNL     1      10.624  -1.870  22.485  0.00  0.00    -0.257 OA
BRANCH   6   8
ATOM      8  C   UNL     1       9.573  -0.746  24.698  0.00  0.00    +0.130 C 
BRANCH   8   9
ATOM      9  C   UNL     1      10.659   0.277  24.562  0.00  0.00    -0.021 C 
ATOM     10  C   UNL     1      10.476   1.543  24.161  0.00  0.00    +0.005 C 
ENDBRANCH   8   9
ENDBRANCH   6   8
ENDBRANCH   1   6
TORSDOF 5
ENDMDL
MODEL 5
REMARK VINA RESULT:      -3.3      2.075      5.090
REMARK  Name = 
REMARK  5 active torsions:
REMARK  status: ('A' for Active; 'I' for Inactive)
REMARK    1  A    between atoms: S_1  and  C_2
REMARK    2  A    between atoms: C_3  and  C_4
REMARK    3  A    between atoms: C_4  and  S_5
REMARK    4  A    between atoms: S_5  and  C_7
REMARK    5  A    between atoms: C_7  and  C_8
REMARK                            x       y       z     vdW  Elec       q    Type
REMARK                         _______ _______ _______ _____ _____    ______ ____
ROOT
ATOM      1  C   UNL     1       8.094  -1.202  22.760  0.00  0.00    +0.131 C 
ENDROOT
BRANCH   1   3
ATOM      2  C   UNL     1       7.376  -3.580  22.399  0.00  0.00    +0.034 C 
ATOM      3  C   UNL     1       7.982  -2.646  23.143  0.00  0.00    -0.007 C 
BRANCH   2   4
ATOM      4  S   UNL     1       7.278  -5.223  22.923  0.00  0.00    -0.151 S 
ATOM      5  H   UNL     1       5.958  -5.291  23.148  0.00  0.00    +0.107 HD
ENDBRANCH   2   4
ENDBRANCH   1   3
BRANCH   1   6
ATOM      6  S   UNL     1       9.585  -0.928  21.744  0.00  0.00    +0.030 S 
ATOM      7  O   UNL     1      10.657  -1.849  22.254  0.00  0.00    -0.257 OA
BRANCH   6   8
ATOM      8  C   UNL     1       9.930   0.743  22.393  0.00  0.00    +0.130 C 
BRANCH   8   9
ATOM      9  C   UNL     1       9.786   0.765  23.884  0.00  0.00    -0.021 C 
ATOM     10  C   UNL     1      10.791   0.604  24.756  0.00  0.00    +0.005 C 
ENDBRANCH   8   9
ENDBRANCH   6   8
ENDBRANCH   1   6
TORSDOF 5
ENDMDL
MODEL 6
REMARK VINA RESULT:      -3.2      3.057      5.609
REMARK  Name = 
REMARK  5 active torsions:
REMARK  status: ('A' for Active; 'I' for Inactive)
REMARK    1  A    between atoms: S_1  and  C_2
REMARK    2  A    between atoms: C_3  and  C_4
REMARK    3  A    between atoms: C_4  and  S_5
REMARK    4  A    between atoms: S_5  and  C_7
REMARK    5  A    between atoms: C_7  and  C_8
REMARK                            x       y       z     vdW  Elec       q    Type
REMARK                         _______ _______ _______ _____ _____    ______ ____
ROOT
ATOM      1  C   UNL     1       9.643  -1.459  23.555  0.00  0.00    +0.131 C 
ENDROOT
BRANCH   1   3
ATOM      2  C   UNL     1       9.000  -3.499  24.867  0.00  0.00    +0.034 C 
ATOM      3  C   UNL     1       9.833  -2.866  24.031  0.00  0.00    -0.007 C 
BRANCH   2   4
ATOM      4  S   UNL     1       9.302  -5.122  25.379  0.00  0.00    -0.151 S 
ATOM      5  H   UNL     1       9.706  -4.872  26.633  0.00  0.00    +0.107 HD
ENDBRANCH   2   4
ENDBRANCH   1   3
BRANCH   1   6
ATOM      6  S   UNL     1       9.617  -0.306  24.970  0.00  0.00    +0.030 S 
ATOM      7  O   UNL     1       8.305   0.427  24.931  0.00  0.00    -0.257 OA
BRANCH   6   8
ATOM      8  C   UNL     1      10.899   0.809  24.306  0.00  0.00    +0.130 C 
BRANCH   8   9
ATOM      9  C   UNL     1      10.273   1.906  23.500  0.00  0.00    -0.021 C 
ATOM     10  C   UNL     1      10.091   1.877  22.172  0.00  0.00    +0.005 C 
ENDBRANCH   8   9
ENDBRANCH   6   8
ENDBRANCH   1   6
TORSDOF 5
ENDMDL
MODEL 7
REMARK VINA RESULT:      -3.2      2.304      5.143
REMARK  Name = 
REMARK  5 active torsions:
REMARK  status: ('A' for Active; 'I' for Inactive)
REMARK    1  A    between atoms: S_1  and  C_2
REMARK    2  A    between atoms: C_3  and  C_4
REMARK    3  A    between atoms: C_4  and  S_5
REMARK    4  A    between atoms: S_5  and  C_7
REMARK    5  A    between atoms: C_7  and  C_8
REMARK                            x       y       z     vdW  Elec       q    Type
REMARK                         _______ _______ _______ _____ _____    ______ ____
ROOT
ATOM      1  C   UNL     1       8.375  -2.403  23.107  0.00  0.00    +0.131 C 
ENDROOT
BRANCH   1   3
ATOM      2  C   UNL     1       7.932  -3.715  25.201  0.00  0.00    +0.034 C 
ATOM      3  C   UNL     1       8.520  -3.594  24.004  0.00  0.00    -0.007 C 
BRANCH   2   4
ATOM      4  S   UNL     1       8.165  -5.120  26.179  0.00  0.00    -0.151 S 
ATOM      5  H   UNL     1       7.902  -6.060  25.259  0.00  0.00    +0.107 HD
ENDBRANCH   2   4
ENDBRANCH   1   3
BRANCH   1   6
ATOM      6  S   UNL     1       9.995  -1.605  22.842  0.00  0.00    +0.030 S 
ATOM      7  O   UNL     1      10.262  -0.719  24.026  0.00  0.00    -0.257 OA
BRANCH   6   8
ATOM      8  C   UNL     1       9.439  -0.544  21.465  0.00  0.00    +0.130 C 
BRANCH   8   9
ATOM      9  C   UNL     1       9.678   0.899  21.787  0.00  0.00    -0.021 C 
ATOM     10  C   UNL     1       8.732   1.849  21.810  0.00  0.00    +0.005 C 
ENDBRANCH   8   9
ENDBRANCH   6   8
ENDBRANCH   1   6
TORSDOF 5
ENDMDL
MODEL 8
REMARK VINA RESULT:      -3.0      2.597      3.071
REMARK  Name = 
REMARK  5 active torsions:
REMARK  status: ('A' for Active; 'I' for Inactive)
REMARK    1  A    between atoms: S_1  and  C_2
REMARK    2  A    between atoms: C_3  and  C_4
REMARK    3  A    between atoms: C_4  and  S_5
REMARK    4  A    between atoms: S_5  and  C_7
REMARK    5  A    between atoms: C_7  and  C_8
REMARK                            x       y       z     vdW  Elec       q    Type
REMARK                         _______ _______ _______ _____ _____    ______ ____
ROOT
ATOM      1  C   UNL     1       8.867  -2.870  23.917  0.00  0.00    +0.131 C 
ENDROOT
BRANCH   1   3
ATOM      2  C   UNL     1      10.125  -0.703  23.768  0.00  0.00    +0.034 C 
ATOM      3  C   UNL     1       9.401  -1.584  24.470  0.00  0.00    -0.007 C 
BRANCH   2   4
ATOM      4  S   UNL     1      10.715   0.752  24.489  0.00  0.00    -0.151 S 
ATOM      5  H   UNL     1      10.126   1.641  23.674  0.00  0.00    +0.107 HD
ENDBRANCH   2   4
ENDBRANCH   1   3
BRANCH   1   6
ATOM      6  S   UNL     1       9.436  -4.280  24.926  0.00  0.00    +0.030 S 
ATOM      7  O   UNL     1       8.943  -5.537  24.264  0.00  0.00    -0.257 OA
BRANCH   6   8
ATOM      8  C   UNL     1       8.342  -3.930  26.343  0.00  0.00    +0.130 C 
BRANCH   8   9
ATOM      9  C   UNL     1       7.745  -5.199  26.871  0.00  0.00    -0.021 C 
ATOM     10  C   UNL     1       6.438  -5.496  26.862  0.00  0.00    +0.005 C 
ENDBRANCH   8   9
ENDBRANCH   6   8
ENDBRANCH   1   6
TORSDOF 5
ENDMDL
MODEL 9
REMARK VINA RESULT:      -3.0      1.921      2.115
REMARK  Name = 
REMARK  5 active torsions:
REMARK  status: ('A' for Active; 'I' for Inactive)
REMARK    1  A    between atoms: S_1  and  C_2
REMARK    2  A    between atoms: C_3  and  C_4
REMARK    3  A    between atoms: C_4  and  S_5
REMARK    4  A    between atoms: S_5  and  C_7
REMARK    5  A    between atoms: C_7  and  C_8
REMARK                            x       y       z     vdW  Elec       q    Type
REMARK                         _______ _______ _______ _____ _____    ______ ____
ROOT
ATOM      1  C   UNL     1      10.036  -1.633  22.640  0.00  0.00    +0.131 C 
ENDROOT
BRANCH   1   3
ATOM      2  C   UNL     1      10.423   0.621  23.674  0.00  0.00    +0.034 C 
ATOM      3  C   UNL     1      10.036  -0.136  22.639  0.00  0.00    -0.007 C 
BRANCH   2   4
ATOM      4  S   UNL     1      10.378   2.346  23.592  0.00  0.00    -0.151 S 
ATOM      5  H   UNL     1      11.524   2.614  24.236  0.00  0.00    +0.107 HD
ENDBRANCH   2   4
ENDBRANCH   1   3
BRANCH   1   6
ATOM      6  S   UNL     1       8.340  -2.269  22.410  0.00  0.00    +0.030 S 
ATOM      7  O   UNL     1       7.389  -1.192  22.852  0.00  0.00    -0.257 OA
BRANCH   6   8
ATOM      8  C   UNL     1       8.440  -3.509  23.746  0.00  0.00    +0.130 C 
BRANCH   8   9
ATOM      9  C   UNL     1       7.416  -4.583  23.540  0.00  0.00    -0.021 C 
ATOM     10  C   UNL     1       7.311  -5.345  22.442  0.00  0.00    +0.005 C 
ENDBRANCH   8   9
ENDBRANCH   6   8
ENDBRANCH   1   6
TORSDOF 5
ENDMDL
