MODEL 1
REMARK VINA RESULT:      -8.3      0.000      0.000
REMARK  Name = 
REMARK  6 active torsions:
REMARK  status: ('A' for Active; 'I' for Inactive)
REMARK    1  A    between atoms: C_1  and  C_2
REMARK    2  A    between atoms: C_2  and  C_3
REMARK    3  A    between atoms: C_2  and  N_4
REMARK    4  A    between atoms: N_8  and  C_9
REMARK    5  A    between atoms: C_25  and  N_26
REMARK    6  A    between atoms: N_26  and  C_27
REMARK                            x       y       z     vdW  Elec       q    Type
REMARK                         _______ _______ _______ _____ _____    ______ ____
ROOT
ATOM      1  N   UNL     1       7.569  -4.055  22.716  0.00  0.00    -0.279 NA
ATOM      2  C   UNL     1       7.311  -4.159  23.983  0.00  0.00    +0.082 A 
ATOM      3  C   UNL     1       8.408  -3.917  24.988  0.00  0.00    +0.059 A 
ATOM      4  C   UNL     1       8.161  -4.194  26.279  0.00  0.00    +0.055 A 
ATOM      5  C   UNL     1       6.903  -4.793  26.782  0.00  0.00    +0.090 A 
ATOM      6  C   UNL     1       5.816  -5.074  25.791  0.00  0.00    +0.075 A 
ATOM      7  N   UNL     1       4.646  -5.739  26.255  0.00  0.00    -0.306 N 
ATOM      8  C   UNL     1       4.560  -6.002  27.677  0.00  0.00    +0.073 A 
ATOM      9  C   UNL     1       3.487  -6.696  28.266  0.00  0.00    +0.028 A 
ATOM     10  C   UNL     1       3.378  -6.839  29.654  0.00  0.00    +0.002 A 
ATOM     11  C   UNL     1       4.378  -6.351  30.485  0.00  0.00    +0.002 A 
ATOM     12  C   UNL     1       5.499  -5.746  29.921  0.00  0.00    +0.030 A 
ATOM     13  C   UNL     1       5.606  -5.577  28.532  0.00  0.00    +0.088 A 
ATOM     14  N   UNL     1       6.804  -5.015  28.056  0.00  0.00    -0.244 NA
ATOM     15  C   UNL     1       6.014  -4.584  24.559  0.00  0.00    +0.057 A 
ENDROOT
BRANCH   7  16
ATOM     16  C   UNL     1       3.626  -6.127  25.304  0.00  0.00    +0.047 A 
ATOM     17  C   UNL     1       2.758  -5.189  24.731  0.00  0.00    +0.027 A 
ATOM     18  C   UNL     1       1.814  -5.566  23.768  0.00  0.00    +0.022 A 
ATOM     19  C   UNL     1       1.785  -6.875  23.299  0.00  0.00    +0.041 A 
ATOM     20 CL   UNL     1       0.699  -7.314  22.041  0.00  0.00    -0.084 Cl
ATOM     21  C   UNL     1       2.642  -7.827  23.835  0.00  0.00    +0.022 A 
ATOM     22  C   UNL     1       3.512  -7.466  24.869  0.00  0.00    +0.027 A 
ENDBRANCH   7  16
BRANCH   1  24
ATOM     23  C   UNL     1       6.255  -5.954  21.891  0.00  0.00    +0.032 C 
ATOM     24  C   UNL     1       6.584  -4.480  21.705  0.00  0.00    +0.100 C 
ATOM     25  C   UNL     1       5.319  -3.632  21.847  0.00  0.00    +0.032 C 
ENDBRANCH   1  24
BRANCH   3  26
ATOM     26  N   UNL     1       9.611  -3.434  24.487  0.00  0.00    -0.313 N 
ATOM     27  H   UNL     1      10.408  -3.811  25.007  0.00  0.00    +0.152 HD
BRANCH  26  28
ATOM     28  C   UNL     1       9.849  -2.120  24.018  0.00  0.00    +0.031 A 
ATOM     29  C   UNL     1      10.084  -1.913  22.652  0.00  0.00    +0.024 A 
ATOM     30  C   UNL     1      10.231  -0.619  22.130  0.00  0.00    +0.022 A 
ATOM     31  C   UNL     1      10.157   0.480  22.979  0.00  0.00    +0.041 A 
ATOM     32 CL   UNL     1      10.265   2.075  22.339  0.00  0.00    -0.084 Cl
ATOM     33  C   UNL     1       9.972   0.298  24.344  0.00  0.00    +0.022 A 
ATOM     34  C   UNL     1       9.826  -0.995  24.858  0.00  0.00    +0.024 A 
ENDBRANCH  26  28
ENDBRANCH   3  26
TORSDOF 4
ENDMDL
MODEL 2
REMARK VINA RESULT:      -8.2      3.422      5.978
REMARK  Name = 
REMARK  6 active torsions:
REMARK  status: ('A' for Active; 'I' for Inactive)
REMARK    1  A    between atoms: C_1  and  C_2
REMARK    2  A    between atoms: C_2  and  C_3
REMARK    3  A    between atoms: C_2  and  N_4
REMARK    4  A    between atoms: N_8  and  C_9
REMARK    5  A    between atoms: C_25  and  N_26
REMARK    6  A    between atoms: N_26  and  C_27
REMARK                            x       y       z     vdW  Elec       q    Type
REMARK                         _______ _______ _______ _____ _____    ______ ____
ROOT
ATOM      1  N   UNL     1       7.045   0.889  26.661  0.00  0.00    -0.279 NA
ATOM      2  C   UNL     1       7.104   0.097  25.636  0.00  0.00    +0.082 A 
ATOM      3  C   UNL     1       7.180   0.679  24.248  0.00  0.00    +0.059 A 
ATOM      4  C   UNL     1       7.070  -0.154  23.200  0.00  0.00    +0.055 A 
ATOM      5  C   UNL     1       6.805  -1.608  23.310  0.00  0.00    +0.090 A 
ATOM      6  C   UNL     1       6.691  -2.197  24.682  0.00  0.00    +0.075 A 
ATOM      7  N   UNL     1       6.338  -3.572  24.790  0.00  0.00    -0.306 N 
ATOM      8  C   UNL     1       6.218  -4.318  23.554  0.00  0.00    +0.073 A 
ATOM      9  C   UNL     1       5.827  -5.669  23.508  0.00  0.00    +0.028 A 
ATOM     10  C   UNL     1       5.825  -6.392  22.310  0.00  0.00    +0.002 A 
ATOM     11  C   UNL     1       6.148  -5.763  21.115  0.00  0.00    +0.002 A 
ATOM     12  C   UNL     1       6.443  -4.402  21.120  0.00  0.00    +0.030 A 
ATOM     13  C   UNL     1       6.471  -3.673  22.319  0.00  0.00    +0.088 A 
ATOM     14  N   UNL     1       6.715  -2.292  22.212  0.00  0.00    -0.244 NA
ATOM     15  C   UNL     1       7.023  -1.381  25.693  0.00  0.00    +0.057 A 
ENDROOT
BRANCH   7  16
ATOM     16  C   UNL     1       6.108  -4.145  26.099  0.00  0.00    +0.047 A 
ATOM     17  C   UNL     1       4.891  -3.975  26.774  0.00  0.00    +0.027 A 
ATOM     18  C   UNL     1       4.658  -4.582  28.013  0.00  0.00    +0.022 A 
ATOM     19  C   UNL     1       5.607  -5.441  28.557  0.00  0.00    +0.041 A 
ATOM     20 CL   UNL     1       5.278  -6.269  30.026  0.00  0.00    -0.084 Cl
ATOM     21  C   UNL     1       6.818  -5.642  27.907  0.00  0.00    +0.022 A 
ATOM     22  C   UNL     1       7.085  -4.953  26.720  0.00  0.00    +0.027 A 
ENDBRANCH   7  16
BRANCH   1  24
ATOM     23  C   UNL     1       7.480   1.212  29.053  0.00  0.00    +0.032 C 
ATOM     24  C   UNL     1       6.766   0.364  28.010  0.00  0.00    +0.100 C 
ATOM     25  C   UNL     1       5.257   0.382  28.254  0.00  0.00    +0.032 C 
ENDBRANCH   1  24
BRANCH   3  26
ATOM     26  N   UNL     1       7.344   2.057  24.163  0.00  0.00    -0.313 N 
ATOM     27  H   UNL     1       6.537   2.502  23.717  0.00  0.00    +0.152 HD
BRANCH  26  28
ATOM     28  C   UNL     1       8.554   2.734  23.879  0.00  0.00    +0.031 A 
ATOM     29  C   UNL     1       8.592   4.133  23.963  0.00  0.00    +0.024 A 
ATOM     30  C   UNL     1       9.791   4.838  23.783  0.00  0.00    +0.022 A 
ATOM     31  C   UNL     1      10.963   4.145  23.501  0.00  0.00    +0.041 A 
ATOM     32 CL   UNL     1      12.454   4.993  23.348  0.00  0.00    -0.084 Cl
ATOM     33  C   UNL     1      10.943   2.761  23.366  0.00  0.00    +0.022 A 
ATOM     34  C   UNL     1       9.743   2.065  23.548  0.00  0.00    +0.024 A 
ENDBRANCH  26  28
ENDBRANCH   3  26
TORSDOF 4
ENDMDL
MODEL 3
REMARK VINA RESULT:      -8.1      4.614      9.648
REMARK  Name = 
REMARK  6 active torsions:
REMARK  status: ('A' for Active; 'I' for Inactive)
REMARK    1  A    between atoms: C_1  and  C_2
REMARK    2  A    between atoms: C_2  and  C_3
REMARK    3  A    between atoms: C_2  and  N_4
REMARK    4  A    between atoms: N_8  and  C_9
REMARK    5  A    between atoms: C_25  and  N_26
REMARK    6  A    between atoms: N_26  and  C_27
REMARK                            x       y       z     vdW  Elec       q    Type
REMARK                         _______ _______ _______ _____ _____    ______ ____
ROOT
ATOM      1  N   UNL     1       6.500  -0.893  25.850  0.00  0.00    -0.279 NA
ATOM      2  C   UNL     1       7.394  -0.171  25.248  0.00  0.00    +0.082 A 
ATOM      3  C   UNL     1       8.646  -0.824  24.723  0.00  0.00    +0.059 A 
ATOM      4  C   UNL     1       9.628  -0.035  24.256  0.00  0.00    +0.055 A 
ATOM      5  C   UNL     1       9.599   1.446  24.287  0.00  0.00    +0.090 A 
ATOM      6  C   UNL     1       8.376   2.111  24.839  0.00  0.00    +0.075 A 
ATOM      7  N   UNL     1       8.386   3.530  24.961  0.00  0.00    -0.306 N 
ATOM      8  C   UNL     1       9.546   4.225  24.443  0.00  0.00    +0.073 A 
ATOM      9  C   UNL     1       9.713   5.619  24.542  0.00  0.00    +0.028 A 
ATOM     10  C   UNL     1      10.791   6.274  23.937  0.00  0.00    +0.002 A 
ATOM     11  C   UNL     1      11.769   5.543  23.276  0.00  0.00    +0.002 A 
ATOM     12  C   UNL     1      11.680   4.153  23.248  0.00  0.00    +0.030 A 
ATOM     13  C   UNL     1      10.590   3.488  23.831  0.00  0.00    +0.088 A 
ATOM     14  N   UNL     1      10.623   2.083  23.808  0.00  0.00    -0.244 NA
ATOM     15  C   UNL     1       7.338   1.300  25.088  0.00  0.00    +0.057 A 
ENDROOT
BRANCH   7  16
ATOM     16  C   UNL     1       7.268   4.194  25.595  0.00  0.00    +0.047 A 
ATOM     17  C   UNL     1       7.213   4.383  26.983  0.00  0.00    +0.027 A 
ATOM     18  C   UNL     1       6.156   5.079  27.580  0.00  0.00    +0.022 A 
ATOM     19  C   UNL     1       5.180   5.674  26.787  0.00  0.00    +0.041 A 
ATOM     20 CL   UNL     1       3.940   6.619  27.512  0.00  0.00    -0.084 Cl
ATOM     21  C   UNL     1       5.213   5.519  25.407  0.00  0.00    +0.022 A 
ATOM     22  C   UNL     1       6.215   4.737  24.826  0.00  0.00    +0.027 A 
ENDBRANCH   7  16
BRANCH   1  24
ATOM     23  C   UNL     1       4.191  -1.230  26.605  0.00  0.00    +0.032 C 
ATOM     24  C   UNL     1       5.366  -0.264  26.553  0.00  0.00    +0.100 C 
ATOM     25  C   UNL     1       5.802   0.120  27.967  0.00  0.00    +0.032 C 
ENDBRANCH   1  24
BRANCH   3  26
ATOM     26  N   UNL     1       8.692  -2.212  24.780  0.00  0.00    -0.313 N 
ATOM     27  H   UNL     1       9.596  -2.541  25.128  0.00  0.00    +0.152 HD
BRANCH  26  28
ATOM     28  C   UNL     1       8.125  -3.102  23.836  0.00  0.00    +0.031 A 
ATOM     29  C   UNL     1       8.226  -4.484  24.052  0.00  0.00    +0.024 A 
ATOM     30  C   UNL     1       7.599  -5.399  23.194  0.00  0.00    +0.022 A 
ATOM     31  C   UNL     1       6.875  -4.935  22.100  0.00  0.00    +0.041 A 
ATOM     32 CL   UNL     1       6.042  -6.045  21.081  0.00  0.00    -0.084 Cl
ATOM     33  C   UNL     1       6.800  -3.572  21.838  0.00  0.00    +0.022 A 
ATOM     34  C   UNL     1       7.428  -2.665  22.699  0.00  0.00    +0.024 A 
ENDBRANCH  26  28
ENDBRANCH   3  26
TORSDOF 4
ENDMDL
MODEL 4
REMARK VINA RESULT:      -8.1      2.889      3.329
REMARK  Name = 
REMARK  6 active torsions:
REMARK  status: ('A' for Active; 'I' for Inactive)
REMARK    1  A    between atoms: C_1  and  C_2
REMARK    2  A    between atoms: C_2  and  C_3
REMARK    3  A    between atoms: C_2  and  N_4
REMARK    4  A    between atoms: N_8  and  C_9
REMARK    5  A    between atoms: C_25  and  N_26
REMARK    6  A    between atoms: N_26  and  C_27
REMARK                            x       y       z     vdW  Elec       q    Type
REMARK                         _______ _______ _______ _____ _____    ______ ____
ROOT
ATOM      1  N   UNL     1       7.086  -3.976  22.283  0.00  0.00    -0.279 NA
ATOM      2  C   UNL     1       6.469  -3.136  23.055  0.00  0.00    +0.082 A 
ATOM      3  C   UNL     1       7.078  -1.783  23.319  0.00  0.00    +0.059 A 
ATOM      4  C   UNL     1       6.508  -0.999  24.249  0.00  0.00    +0.055 A 
ATOM      5  C   UNL     1       5.358  -1.400  25.093  0.00  0.00    +0.090 A 
ATOM      6  C   UNL     1       4.764  -2.756  24.869  0.00  0.00    +0.075 A 
ATOM      7  N   UNL     1       3.725  -3.182  25.743  0.00  0.00    -0.306 N 
ATOM      8  C   UNL     1       3.256  -2.223  26.722  0.00  0.00    +0.073 A 
ATOM      9  C   UNL     1       2.271  -2.524  27.681  0.00  0.00    +0.028 A 
ATOM     10  C   UNL     1       1.761  -1.545  28.541  0.00  0.00    +0.002 A 
ATOM     11  C   UNL     1       2.272  -0.254  28.511  0.00  0.00    +0.002 A 
ATOM     12  C   UNL     1       3.316   0.045  27.638  0.00  0.00    +0.030 A 
ATOM     13  C   UNL     1       3.818  -0.923  26.755  0.00  0.00    +0.088 A 
ATOM     14  N   UNL     1       4.914  -0.543  25.960  0.00  0.00    -0.244 NA
ATOM     15  C   UNL     1       5.215  -3.415  23.792  0.00  0.00    +0.057 A 
ENDROOT
BRANCH   7  16
ATOM     16  C   UNL     1       3.207  -4.529  25.627  0.00  0.00    +0.047 A 
ATOM     17  C   UNL     1       2.095  -4.824  24.827  0.00  0.00    +0.027 A 
ATOM     18  C   UNL     1       1.639  -6.139  24.675  0.00  0.00    +0.022 A 
ATOM     19  C   UNL     1       2.344  -7.190  25.252  0.00  0.00    +0.041 A 
ATOM     20 CL   UNL     1       1.846  -8.812  24.978  0.00  0.00    -0.084 Cl
ATOM     21  C   UNL     1       3.459  -6.933  26.039  0.00  0.00    +0.022 A 
ATOM     22  C   UNL     1       3.848  -5.610  26.269  0.00  0.00    +0.027 A 
ENDBRANCH   7  16
BRANCH   1  24
ATOM     23  C   UNL     1       6.163  -5.645  20.741  0.00  0.00    +0.032 C 
ATOM     24  C   UNL     1       6.630  -5.372  22.164  0.00  0.00    +0.100 C 
ATOM     25  C   UNL     1       7.778  -6.310  22.535  0.00  0.00    +0.032 C 
ENDBRANCH   1  24
BRANCH   3  26
ATOM     26  N   UNL     1       8.207  -1.456  22.578  0.00  0.00    -0.313 N 
ATOM     27  H   UNL     1       8.759  -2.288  22.352  0.00  0.00    +0.152 HD
BRANCH  26  28
ATOM     28  C   UNL     1       9.017  -0.309  22.758  0.00  0.00    +0.031 A 
ATOM     29  C   UNL     1       8.999   0.701  21.785  0.00  0.00    +0.024 A 
ATOM     30  C   UNL     1       9.712   1.895  21.968  0.00  0.00    +0.022 A 
ATOM     31  C   UNL     1      10.463   2.080  23.124  0.00  0.00    +0.041 A 
ATOM     32 CL   UNL     1      11.285   3.570  23.391  0.00  0.00    -0.084 Cl
ATOM     33  C   UNL     1      10.535   1.075  24.080  0.00  0.00    +0.022 A 
ATOM     34  C   UNL     1       9.820  -0.113  23.892  0.00  0.00    +0.024 A 
ENDBRANCH  26  28
ENDBRANCH   3  26
TORSDOF 4
ENDMDL
MODEL 5
REMARK VINA RESULT:      -8.0      3.542      5.839
REMARK  Name = 
REMARK  6 active torsions:
REMARK  status: ('A' for Active; 'I' for Inactive)
REMARK    1  A    between atoms: C_1  and  C_2
REMARK    2  A    between atoms: C_2  and  C_3
REMARK    3  A    between atoms: C_2  and  N_4
REMARK    4  A    between atoms: N_8  and  C_9
REMARK    5  A    between atoms: C_25  and  N_26
REMARK    6  A    between atoms: N_26  and  C_27
REMARK                            x       y       z     vdW  Elec       q    Type
REMARK                         _______ _______ _______ _____ _____    ______ ____
ROOT
ATOM      1  N   UNL     1       7.568   0.947  26.836  0.00  0.00    -0.279 NA
ATOM      2  C   UNL     1       7.729  -0.006  25.972  0.00  0.00    +0.082 A 
ATOM      3  C   UNL     1       8.482   0.267  24.696  0.00  0.00    +0.059 A 
ATOM      4  C   UNL     1       8.492  -0.683  23.746  0.00  0.00    +0.055 A 
ATOM      5  C   UNL     1       7.748  -1.962  23.832  0.00  0.00    +0.090 A 
ATOM      6  C   UNL     1       6.964  -2.233  25.079  0.00  0.00    +0.075 A 
ATOM      7  N   UNL     1       6.169  -3.413  25.125  0.00  0.00    -0.306 N 
ATOM      8  C   UNL     1       6.265  -4.312  23.993  0.00  0.00    +0.073 A 
ATOM      9  C   UNL     1       5.500  -5.488  23.880  0.00  0.00    +0.028 A 
ATOM     10  C   UNL     1       5.693  -6.391  22.829  0.00  0.00    +0.002 A 
ATOM     11  C   UNL     1       6.608  -6.107  21.824  0.00  0.00    +0.002 A 
ATOM     12  C   UNL     1       7.308  -4.903  21.860  0.00  0.00    +0.030 A 
ATOM     13  C   UNL     1       7.139  -4.001  22.923  0.00  0.00    +0.088 A 
ATOM     14  N   UNL     1       7.840  -2.785  22.835  0.00  0.00    -0.244 NA
ATOM     15  C   UNL     1       7.157  -1.367  26.085  0.00  0.00    +0.057 A 
ENDROOT
BRANCH   7  16
ATOM     16  C   UNL     1       5.312  -3.648  26.267  0.00  0.00    +0.047 A 
ATOM     17  C   UNL     1       3.986  -3.196  26.298  0.00  0.00    +0.027 A 
ATOM     18  C   UNL     1       3.148  -3.479  27.383  0.00  0.00    +0.022 A 
ATOM     19  C   UNL     1       3.599  -4.296  28.414  0.00  0.00    +0.041 A 
ATOM     20 CL   UNL     1       2.536  -4.732  29.693  0.00  0.00    -0.084 Cl
ATOM     21  C   UNL     1       4.903  -4.774  28.406  0.00  0.00    +0.022 A 
ATOM     22  C   UNL     1       5.765  -4.403  27.371  0.00  0.00    +0.027 A 
ENDBRANCH   7  16
BRANCH   1  24
ATOM     23  C   UNL     1       7.250   1.487  29.208  0.00  0.00    +0.032 C 
ATOM     24  C   UNL     1       6.669   0.778  27.992  0.00  0.00    +0.100 C 
ATOM     25  C   UNL     1       5.295   1.353  27.649  0.00  0.00    +0.032 C 
ENDBRANCH   1  24
BRANCH   3  26
ATOM     26  N   UNL     1       9.105   1.506  24.596  0.00  0.00    -0.313 N 
ATOM     27  H   UNL     1       9.629   1.728  25.447  0.00  0.00    +0.152 HD
BRANCH  26  28
ATOM     28  C   UNL     1       8.566   2.661  23.981  0.00  0.00    +0.031 A 
ATOM     29  C   UNL     1       8.959   3.926  24.438  0.00  0.00    +0.024 A 
ATOM     30  C   UNL     1       8.524   5.095  23.798  0.00  0.00    +0.022 A 
ATOM     31  C   UNL     1       7.677   5.005  22.698  0.00  0.00    +0.041 A 
ATOM     32 CL   UNL     1       7.193   6.430  21.860  0.00  0.00    -0.084 Cl
ATOM     33  C   UNL     1       7.236   3.764  22.254  0.00  0.00    +0.022 A 
ATOM     34  C   UNL     1       7.675   2.602  22.898  0.00  0.00    +0.024 A 
ENDBRANCH  26  28
ENDBRANCH   3  26
TORSDOF 4
ENDMDL
MODEL 6
REMARK VINA RESULT:      -7.6      3.851      5.015
REMARK  Name = 
REMARK  6 active torsions:
REMARK  status: ('A' for Active; 'I' for Inactive)
REMARK    1  A    between atoms: C_1  and  C_2
REMARK    2  A    between atoms: C_2  and  C_3
REMARK    3  A    between atoms: C_2  and  N_4
REMARK    4  A    between atoms: N_8  and  C_9
REMARK    5  A    between atoms: C_25  and  N_26
REMARK    6  A    between atoms: N_26  and  C_27
REMARK                            x       y       z     vdW  Elec       q    Type
REMARK                         _______ _______ _______ _____ _____    ______ ____
ROOT
ATOM      1  N   UNL     1       8.573   0.622  23.721  0.00  0.00    -0.279 NA
ATOM      2  C   UNL     1       7.681   0.436  24.644  0.00  0.00    +0.082 A 
ATOM      3  C   UNL     1       7.546   1.440  25.760  0.00  0.00    +0.059 A 
ATOM      4  C   UNL     1       6.736   1.144  26.789  0.00  0.00    +0.055 A 
ATOM      5  C   UNL     1       6.015  -0.142  26.945  0.00  0.00    +0.090 A 
ATOM      6  C   UNL     1       6.168  -1.165  25.862  0.00  0.00    +0.075 A 
ATOM      7  N   UNL     1       5.557  -2.437  26.056  0.00  0.00    -0.306 N 
ATOM      8  C   UNL     1       4.749  -2.603  27.247  0.00  0.00    +0.073 A 
ATOM      9  C   UNL     1       4.130  -3.818  27.591  0.00  0.00    +0.028 A 
ATOM     10  C   UNL     1       3.267  -3.918  28.688  0.00  0.00    +0.002 A 
ATOM     11  C   UNL     1       3.056  -2.819  29.511  0.00  0.00    +0.002 A 
ATOM     12  C   UNL     1       3.734  -1.631  29.250  0.00  0.00    +0.030 A 
ATOM     13  C   UNL     1       4.583  -1.514  28.138  0.00  0.00    +0.088 A 
ATOM     14  N   UNL     1       5.272  -0.297  27.996  0.00  0.00    -0.244 NA
ATOM     15  C   UNL     1       6.801  -0.749  24.756  0.00  0.00    +0.057 A 
ENDROOT
BRANCH   7  16
ATOM     16  C   UNL     1       5.779  -3.486  25.084  0.00  0.00    +0.047 A 
ATOM     17  C   UNL     1       4.882  -3.718  24.033  0.00  0.00    +0.027 A 
ATOM     18  C   UNL     1       5.136  -4.697  23.065  0.00  0.00    +0.022 A 
ATOM     19  C   UNL     1       6.337  -5.398  23.084  0.00  0.00    +0.041 A 
ATOM     20 CL   UNL     1       6.696  -6.524  21.835  0.00  0.00    -0.084 Cl
ATOM     21  C   UNL     1       7.255  -5.181  24.104  0.00  0.00    +0.022 A 
ATOM     22  C   UNL     1       6.949  -4.276  25.124  0.00  0.00    +0.027 A 
ENDBRANCH   7  16
BRANCH   1  24
ATOM     23  C   UNL     1       9.281   0.199  21.411  0.00  0.00    +0.032 C 
ATOM     24  C   UNL     1       8.872  -0.432  22.734  0.00  0.00    +0.100 C 
ATOM     25  C   UNL     1       9.998  -1.317  23.270  0.00  0.00    +0.032 C 
ENDBRANCH   1  24
BRANCH   3  26
ATOM     26  N   UNL     1       8.295   2.606  25.639  0.00  0.00    -0.313 N 
ATOM     27  H   UNL     1       8.701   2.882  26.537  0.00  0.00    +0.152 HD
BRANCH  26  28
ATOM     28  C   UNL     1       7.972   3.721  24.830  0.00  0.00    +0.031 A 
ATOM     29  C   UNL     1       9.005   4.540  24.351  0.00  0.00    +0.024 A 
ATOM     30  C   UNL     1       8.740   5.599  23.470  0.00  0.00    +0.022 A 
ATOM     31  C   UNL     1       7.432   5.856  23.073  0.00  0.00    +0.041 A 
ATOM     32 CL   UNL     1       7.103   7.108  21.937  0.00  0.00    -0.084 Cl
ATOM     33  C   UNL     1       6.386   5.087  23.571  0.00  0.00    +0.022 A 
ATOM     34  C   UNL     1       6.658   4.032  24.448  0.00  0.00    +0.024 A 
ENDBRANCH  26  28
ENDBRANCH   3  26
TORSDOF 4
ENDMDL
MODEL 7
REMARK VINA RESULT:      -7.6      4.207      9.126
REMARK  Name = 
REMARK  6 active torsions:
REMARK  status: ('A' for Active; 'I' for Inactive)
REMARK    1  A    between atoms: C_1  and  C_2
REMARK    2  A    between atoms: C_2  and  C_3
REMARK    3  A    between atoms: C_2  and  N_4
REMARK    4  A    between atoms: N_8  and  C_9
REMARK    5  A    between atoms: C_25  and  N_26
REMARK    6  A    between atoms: N_26  and  C_27
REMARK                            x       y       z     vdW  Elec       q    Type
REMARK                         _______ _______ _______ _____ _____    ______ ____
ROOT
ATOM      1  N   UNL     1       7.099  -1.752  24.291  0.00  0.00    -0.279 NA
ATOM      2  C   UNL     1       7.999  -0.861  24.012  0.00  0.00    +0.082 A 
ATOM      3  C   UNL     1       9.456  -1.243  24.032  0.00  0.00    +0.059 A 
ATOM      4  C   UNL     1      10.373  -0.270  23.905  0.00  0.00    +0.055 A 
ATOM      5  C   UNL     1      10.053   1.175  23.819  0.00  0.00    +0.090 A 
ATOM      6  C   UNL     1       8.610   1.575  23.835  0.00  0.00    +0.075 A 
ATOM      7  N   UNL     1       8.304   2.966  23.853  0.00  0.00    -0.306 N 
ATOM      8  C   UNL     1       9.419   3.885  23.752  0.00  0.00    +0.073 A 
ATOM      9  C   UNL     1       9.269   5.283  23.807  0.00  0.00    +0.028 A 
ATOM     10  C   UNL     1      10.350   6.146  23.598  0.00  0.00    +0.002 A 
ATOM     11  C   UNL     1      11.624   5.633  23.396  0.00  0.00    +0.002 A 
ATOM     12  C   UNL     1      11.816   4.254  23.434  0.00  0.00    +0.030 A 
ATOM     13  C   UNL     1      10.735   3.378  23.620  0.00  0.00    +0.088 A 
ATOM     14  N   UNL     1      11.040   2.009  23.708  0.00  0.00    -0.244 NA
ATOM     15  C   UNL     1       7.729   0.570  23.740  0.00  0.00    +0.057 A 
ENDROOT
BRANCH   7  16
ATOM     16  C   UNL     1       6.925   3.387  23.983  0.00  0.00    +0.047 A 
ATOM     17  C   UNL     1       6.323   3.560  25.236  0.00  0.00    +0.027 A 
ATOM     18  C   UNL     1       5.008   4.024  25.351  0.00  0.00    +0.022 A 
ATOM     19  C   UNL     1       4.303   4.406  24.214  0.00  0.00    +0.041 A 
ATOM     20 CL   UNL     1       2.727   5.075  24.363  0.00  0.00    -0.084 Cl
ATOM     21  C   UNL     1       4.876   4.260  22.958  0.00  0.00    +0.022 A 
ATOM     22  C   UNL     1       6.153   3.701  22.844  0.00  0.00    +0.027 A 
ENDBRANCH   7  16
BRANCH   1  24
ATOM     23  C   UNL     1       4.811  -2.615  24.481  0.00  0.00    +0.032 C 
ATOM     24  C   UNL     1       5.688  -1.371  24.481  0.00  0.00    +0.100 C 
ATOM     25  C   UNL     1       5.544  -0.619  25.804  0.00  0.00    +0.032 C 
ENDBRANCH   1  24
BRANCH   3  26
ATOM     26  N   UNL     1       9.740  -2.594  24.197  0.00  0.00    -0.313 N 
ATOM     27  H   UNL     1      10.257  -2.967  23.396  0.00  0.00    +0.152 HD
BRANCH  26  28
ATOM     28  C   UNL     1       8.883  -3.559  24.778  0.00  0.00    +0.031 A 
ATOM     29  C   UNL     1       8.671  -3.540  26.164  0.00  0.00    +0.024 A 
ATOM     30  C   UNL     1       7.759  -4.416  26.770  0.00  0.00    +0.022 A 
ATOM     31  C   UNL     1       7.059  -5.331  25.990  0.00  0.00    +0.041 A 
ATOM     32 CL   UNL     1       5.884  -6.362  26.712  0.00  0.00    -0.084 Cl
ATOM     33  C   UNL     1       7.286  -5.401  24.621  0.00  0.00    +0.022 A 
ATOM     34  C   UNL     1       8.198  -4.523  24.024  0.00  0.00    +0.024 A 
ENDBRANCH  26  28
ENDBRANCH   3  26
TORSDOF 4
ENDMDL
MODEL 8
REMARK VINA RESULT:      -7.5      3.169      8.679
REMARK  Name = 
REMARK  6 active torsions:
REMARK  status: ('A' for Active; 'I' for Inactive)
REMARK    1  A    between atoms: C_1  and  C_2
REMARK    2  A    between atoms: C_2  and  C_3
REMARK    3  A    between atoms: C_2  and  N_4
REMARK    4  A    between atoms: N_8  and  C_9
REMARK    5  A    between atoms: C_25  and  N_26
REMARK    6  A    between atoms: N_26  and  C_27
REMARK                            x       y       z     vdW  Elec       q    Type
REMARK                         _______ _______ _______ _____ _____    ______ ____
ROOT
ATOM      1  N   UNL     1       4.830  -3.909  26.430  0.00  0.00    -0.279 NA
ATOM      2  C   UNL     1       5.522  -3.344  25.490  0.00  0.00    +0.082 A 
ATOM      3  C   UNL     1       6.206  -4.198  24.454  0.00  0.00    +0.059 A 
ATOM      4  C   UNL     1       7.050  -3.603  23.594  0.00  0.00    +0.055 A 
ATOM      5  C   UNL     1       7.416  -2.168  23.637  0.00  0.00    +0.090 A 
ATOM      6  C   UNL     1       6.773  -1.312  24.685  0.00  0.00    +0.075 A 
ATOM      7  N   UNL     1       7.196   0.043  24.792  0.00  0.00    -0.306 N 
ATOM      8  C   UNL     1       8.149   0.513  23.806  0.00  0.00    +0.073 A 
ATOM      9  C   UNL     1       8.691   1.810  23.821  0.00  0.00    +0.028 A 
ATOM     10  C   UNL     1       9.524   2.270  22.795  0.00  0.00    +0.002 A 
ATOM     11  C   UNL     1       9.891   1.419  21.761  0.00  0.00    +0.002 A 
ATOM     12  C   UNL     1       9.447   0.099  21.774  0.00  0.00    +0.030 A 
ATOM     13  C   UNL     1       8.592  -0.365  22.787  0.00  0.00    +0.088 A 
ATOM     14  N   UNL     1       8.252  -1.729  22.749  0.00  0.00    -0.244 NA
ATOM     15  C   UNL     1       5.779  -1.890  25.375  0.00  0.00    +0.057 A 
ENDROOT
BRANCH   7  16
ATOM     16  C   UNL     1       6.679   0.865  25.864  0.00  0.00    +0.047 A 
ATOM     17  C   UNL     1       7.271   0.877  27.134  0.00  0.00    +0.027 A 
ATOM     18  C   UNL     1       6.799   1.720  28.147  0.00  0.00    +0.022 A 
ATOM     19  C   UNL     1       5.781   2.629  27.877  0.00  0.00    +0.041 A 
ATOM     20 CL   UNL     1       5.274   3.737  29.089  0.00  0.00    -0.084 Cl
ATOM     21  C   UNL     1       5.183   2.653  26.624  0.00  0.00    +0.022 A 
ATOM     22  C   UNL     1       5.591   1.738  25.649  0.00  0.00    +0.027 A 
ENDBRANCH   7  16
BRANCH   1  24
ATOM     23  C   UNL     1       2.856  -2.776  27.344  0.00  0.00    +0.032 C 
ATOM     24  C   UNL     1       4.320  -3.127  27.571  0.00  0.00    +0.100 C 
ATOM     25  C   UNL     1       4.478  -3.944  28.853  0.00  0.00    +0.032 C 
ENDBRANCH   1  24
BRANCH   3  26
ATOM     26  N   UNL     1       5.916  -5.557  24.481  0.00  0.00    -0.313 N 
ATOM     27  H   UNL     1       6.661  -6.106  24.045  0.00  0.00    +0.152 HD
BRANCH  26  28
ATOM     28  C   UNL     1       4.640  -6.139  24.290  0.00  0.00    +0.031 A 
ATOM     29  C   UNL     1       3.854  -5.724  23.205  0.00  0.00    +0.024 A 
ATOM     30  C   UNL     1       2.626  -6.339  22.922  0.00  0.00    +0.022 A 
ATOM     31  C   UNL     1       2.167  -7.369  23.736  0.00  0.00    +0.041 A 
ATOM     32 CL   UNL     1       0.695  -8.179  23.358  0.00  0.00    -0.084 Cl
ATOM     33  C   UNL     1       2.905  -7.767  24.845  0.00  0.00    +0.022 A 
ATOM     34  C   UNL     1       4.130  -7.149  25.120  0.00  0.00    +0.024 A 
ENDBRANCH  26  28
ENDBRANCH   3  26
TORSDOF 4
ENDMDL
MODEL 9
REMARK VINA RESULT:      -7.3      3.451      8.001
REMARK  Name = 
REMARK  6 active torsions:
REMARK  status: ('A' for Active; 'I' for Inactive)
REMARK    1  A    between atoms: C_1  and  C_2
REMARK    2  A    between atoms: C_2  and  C_3
REMARK    3  A    between atoms: C_2  and  N_4
REMARK    4  A    between atoms: N_8  and  C_9
REMARK    5  A    between atoms: C_25  and  N_26
REMARK    6  A    between atoms: N_26  and  C_27
REMARK                            x       y       z     vdW  Elec       q    Type
REMARK                         _______ _______ _______ _____ _____    ______ ____
ROOT
ATOM      1  N   UNL     1       6.229  -4.911  24.429  0.00  0.00    -0.279 NA
ATOM      2  C   UNL     1       5.650  -3.988  25.133  0.00  0.00    +0.082 A 
ATOM      3  C   UNL     1       4.371  -4.301  25.864  0.00  0.00    +0.059 A 
ATOM      4  C   UNL     1       3.705  -3.290  26.446  0.00  0.00    +0.055 A 
ATOM      5  C   UNL     1       4.102  -1.865  26.358  0.00  0.00    +0.090 A 
ATOM      6  C   UNL     1       5.352  -1.532  25.604  0.00  0.00    +0.075 A 
ATOM      7  N   UNL     1       5.682  -0.157  25.433  0.00  0.00    -0.306 N 
ATOM      8  C   UNL     1       4.829   0.809  26.095  0.00  0.00    +0.073 A 
ATOM      9  C   UNL     1       5.007   2.199  25.973  0.00  0.00    +0.028 A 
ATOM     10  C   UNL     1       4.236   3.106  26.710  0.00  0.00    +0.002 A 
ATOM     11  C   UNL     1       3.220   2.645  27.537  0.00  0.00    +0.002 A 
ATOM     12  C   UNL     1       2.960   1.279  27.601  0.00  0.00    +0.030 A 
ATOM     13  C   UNL     1       3.742   0.360  26.884  0.00  0.00    +0.088 A 
ATOM     14  N   UNL     1       3.359  -0.990  26.962  0.00  0.00    -0.244 NA
ATOM     15  C   UNL     1       6.100  -2.580  25.230  0.00  0.00    +0.057 A 
ENDROOT
BRANCH   7  16
ATOM     16  C   UNL     1       6.819   0.203  24.614  0.00  0.00    +0.047 A 
ATOM     17  C   UNL     1       6.701   0.388  23.230  0.00  0.00    +0.027 A 
ATOM     18  C   UNL     1       7.794   0.794  22.456  0.00  0.00    +0.022 A 
ATOM     19  C   UNL     1       9.003   1.106  23.070  0.00  0.00    +0.041 A 
ATOM     20 CL   UNL     1      10.314   1.706  22.134  0.00  0.00    -0.084 Cl
ATOM     21  C   UNL     1       9.149   0.948  24.442  0.00  0.00    +0.022 A 
ATOM     22  C   UNL     1       8.083   0.445  25.194  0.00  0.00    +0.027 A 
ENDBRANCH   7  16
BRANCH   1  24
ATOM     23  C   UNL     1       8.674  -4.795  24.283  0.00  0.00    +0.032 C 
ATOM     24  C   UNL     1       7.361  -4.589  23.541  0.00  0.00    +0.100 C 
ATOM     25  C   UNL     1       7.302  -5.488  22.306  0.00  0.00    +0.032 C 
ENDBRANCH   1  24
BRANCH   3  26
ATOM     26  N   UNL     1       3.968  -5.632  25.865  0.00  0.00    -0.313 N 
ATOM     27  H   UNL     1       4.730  -6.251  26.154  0.00  0.00    +0.152 HD
BRANCH  26  28
ATOM     28  C   UNL     1       3.110  -6.242  24.920  0.00  0.00    +0.031 A 
ATOM     29  C   UNL     1       2.582  -5.469  23.876  0.00  0.00    +0.024 A 
ATOM     30  C   UNL     1       1.804  -6.051  22.865  0.00  0.00    +0.022 A 
ATOM     31  C   UNL     1       1.537  -7.416  22.899  0.00  0.00    +0.041 A 
ATOM     32 CL   UNL     1       0.644  -8.154  21.625  0.00  0.00    -0.084 Cl
ATOM     33  C   UNL     1       2.010  -8.195  23.948  0.00  0.00    +0.022 A 
ATOM     34  C   UNL     1       2.786  -7.607  24.953  0.00  0.00    +0.024 A 
ENDBRANCH  26  28
ENDBRANCH   3  26
TORSDOF 4
ENDMDL
