MODEL 1
REMARK VINA RESULT:      -7.2      0.000      0.000
REMARK  Name = 
REMARK  7 active torsions:
REMARK  status: ('A' for Active; 'I' for Inactive)
REMARK    1  A    between atoms: C_1  and  C_2
REMARK    2  A    between atoms: C_2  and  C_3
REMARK    3  A    between atoms: C_3  and  C_4
REMARK    4  A    between atoms: C_4  and  N_5
REMARK    5  A    between atoms: C_6  and  C_7
REMARK    6  A    between atoms: C_7  and  C_8
REMARK    7  A    between atoms: C_19  and  N_20
REMARK                            x       y       z     vdW  Elec       q    Type
REMARK                         _______ _______ _______ _____ _____    ______ ____
ROOT
ATOM      1  N   UNL     1       7.759  -2.427  23.569  0.00  0.00    -0.312 N 
ATOM      2  C   UNL     1       7.684  -3.581  24.302  0.00  0.00    +0.168 A 
ATOM      3  C   UNL     1       8.991  -3.951  24.536  0.00  0.00    +0.148 A 
ATOM      4  C   UNL     1       9.173  -5.054  25.389  0.00  0.00    +0.150 A 
ATOM      5  N   UNL     1       8.083  -5.715  25.843  0.00  0.00    -0.185 NA
ATOM      6  C   UNL     1       6.862  -5.266  25.490  0.00  0.00    +0.313 A 
ATOM      7  F   UNL     1       5.812  -5.971  25.941  0.00  0.00    -0.161 F 
ATOM      8  N   UNL     1       9.853  -3.123  23.836  0.00  0.00    -0.227 NA
ATOM      9  N   UNL     1       6.569  -4.192  24.736  0.00  0.00    -0.182 NA
ATOM     10  C   UNL     1       9.085  -2.244  23.202  0.00  0.00    +0.116 A 
ENDROOT
BRANCH   4  11
ATOM     11  N   UNL     1      10.413  -5.514  25.803  0.00  0.00    -0.341 N 
ATOM     12  H   UNL     1      10.867  -4.884  26.450  0.00  0.00    +0.144 HD
ATOM     13  H   UNL     1      10.451  -6.509  25.988  0.00  0.00    +0.144 HD
ENDBRANCH   4  11
BRANCH   1  14
ATOM     14  C   UNL     1       6.596  -1.620  23.248  0.00  0.00    +0.125 C 
BRANCH  14  15
ATOM     15  C   UNL     1       5.985  -0.938  24.481  0.00  0.00    +0.021 C 
BRANCH  15  17
ATOM     16  C   UNL     1       7.674   0.299  25.902  0.00  0.00    +0.004 C 
ATOM     17  C   UNL     1       6.682   0.394  24.755  0.00  0.00    -0.002 C 
ENDBRANCH  15  17
ENDBRANCH  14  15
ENDBRANCH   1  14
BRANCH  10  18
ATOM     18  C   UNL     1       9.502  -1.270  22.129  0.00  0.00    +0.109 C 
BRANCH  18  19
ATOM     19  C   UNL     1       9.625   0.208  22.447  0.00  0.00    -0.036 A 
ATOM     20  C   UNL     1      10.467   0.713  23.462  0.00  0.00    +0.008 A 
ATOM     21  C   UNL     1      10.362   2.044  23.891  0.00  0.00    +0.050 A 
ATOM     22  C   UNL     1       9.394   2.838  23.316  0.00  0.00    +0.166 A 
ATOM     23  O   UNL     1       9.084   4.113  23.678  0.00  0.00    -0.453 OA
ATOM     24  C   UNL     1       7.904   4.334  22.879  0.00  0.00    +0.466 C 
ATOM     25  O   UNL     1       7.677   3.297  21.902  0.00  0.00    -0.453 OA
ATOM     26  C   UNL     1       8.593   2.373  22.304  0.00  0.00    +0.166 A 
ATOM     27  C   UNL     1       8.697   1.082  21.836  0.00  0.00    +0.053 A 
ENDBRANCH  18  19
ENDBRANCH  10  18
TORSDOF 6
ENDMDL
MODEL 2
REMARK VINA RESULT:      -6.9      4.332      7.222
REMARK  Name = 
REMARK  7 active torsions:
REMARK  status: ('A' for Active; 'I' for Inactive)
REMARK    1  A    between atoms: C_1  and  C_2
REMARK    2  A    between atoms: C_2  and  C_3
REMARK    3  A    between atoms: C_3  and  C_4
REMARK    4  A    between atoms: C_4  and  N_5
REMARK    5  A    between atoms: C_6  and  C_7
REMARK    6  A    between atoms: C_7  and  C_8
REMARK    7  A    between atoms: C_19  and  N_20
REMARK                            x       y       z     vdW  Elec       q    Type
REMARK                         _______ _______ _______ _____ _____    ______ ____
ROOT
ATOM      1  N   UNL     1       8.702  -2.538  23.927  0.00  0.00    -0.312 N 
ATOM      2  C   UNL     1       9.368  -1.363  23.702  0.00  0.00    +0.168 A 
ATOM      3  C   UNL     1       8.864  -0.880  22.513  0.00  0.00    +0.148 A 
ATOM      4  C   UNL     1       9.309   0.398  22.132  0.00  0.00    +0.150 A 
ATOM      5  N   UNL     1      10.244   1.017  22.891  0.00  0.00    -0.185 NA
ATOM      6  C   UNL     1      10.684   0.398  24.005  0.00  0.00    +0.313 A 
ATOM      7  F   UNL     1      11.631   1.038  24.709  0.00  0.00    -0.161 F 
ATOM      8  N   UNL     1       8.010  -1.810  21.944  0.00  0.00    -0.227 NA
ATOM      9  N   UNL     1      10.284  -0.788  24.497  0.00  0.00    -0.182 NA
ATOM     10  C   UNL     1       7.975  -2.839  22.784  0.00  0.00    +0.116 A 
ENDROOT
BRANCH   4  11
ATOM     11  N   UNL     1       8.847   1.077  21.015  0.00  0.00    -0.341 N 
ATOM     12  H   UNL     1       7.849   1.235  21.040  0.00  0.00    +0.144 HD
ATOM     13  H   UNL     1       9.449   1.828  20.702  0.00  0.00    +0.144 HD
ENDBRANCH   4  11
BRANCH   1  14
ATOM     14  C   UNL     1       8.825  -3.288  25.164  0.00  0.00    +0.125 C 
BRANCH  14  15
ATOM     15  C   UNL     1       7.804  -2.858  26.226  0.00  0.00    +0.021 C 
BRANCH  15  17
ATOM     16  C   UNL     1       7.760  -5.378  26.448  0.00  0.00    +0.004 C 
ATOM     17  C   UNL     1       7.051  -4.072  26.768  0.00  0.00    -0.002 C 
ENDBRANCH  15  17
ENDBRANCH  14  15
ENDBRANCH   1  14
BRANCH  10  18
ATOM     18  C   UNL     1       7.382  -4.203  22.536  0.00  0.00    +0.109 C 
BRANCH  18  19
ATOM     19  C   UNL     1       6.022  -4.559  23.109  0.00  0.00    -0.036 A 
ATOM     20  C   UNL     1       5.126  -3.598  23.627  0.00  0.00    +0.008 A 
ATOM     21  C   UNL     1       4.003  -3.986  24.371  0.00  0.00    +0.050 A 
ATOM     22  C   UNL     1       3.814  -5.330  24.610  0.00  0.00    +0.166 A 
ATOM     23  O   UNL     1       2.843  -5.876  25.392  0.00  0.00    -0.453 OA
ATOM     24  C   UNL     1       3.266  -7.254  25.413  0.00  0.00    +0.466 C 
ATOM     25  O   UNL     1       4.320  -7.539  24.469  0.00  0.00    -0.453 OA
ATOM     26  C   UNL     1       4.656  -6.277  24.084  0.00  0.00    +0.166 A 
ATOM     27  C   UNL     1       5.746  -5.929  23.318  0.00  0.00    +0.053 A 
ENDBRANCH  18  19
ENDBRANCH  10  18
TORSDOF 6
ENDMDL
MODEL 3
REMARK VINA RESULT:      -6.6      4.693      7.692
REMARK  Name = 
REMARK  7 active torsions:
REMARK  status: ('A' for Active; 'I' for Inactive)
REMARK    1  A    between atoms: C_1  and  C_2
REMARK    2  A    between atoms: C_2  and  C_3
REMARK    3  A    between atoms: C_3  and  C_4
REMARK    4  A    between atoms: C_4  and  N_5
REMARK    5  A    between atoms: C_6  and  C_7
REMARK    6  A    between atoms: C_7  and  C_8
REMARK    7  A    between atoms: C_19  and  N_20
REMARK                            x       y       z     vdW  Elec       q    Type
REMARK                         _______ _______ _______ _____ _____    ______ ____
ROOT
ATOM      1  N   UNL     1       8.009  -4.032  25.044  0.00  0.00    -0.312 N 
ATOM      2  C   UNL     1       8.573  -2.785  24.986  0.00  0.00    +0.168 A 
ATOM      3  C   UNL     1       8.177  -2.151  26.143  0.00  0.00    +0.148 A 
ATOM      4  C   UNL     1       8.743  -0.885  26.373  0.00  0.00    +0.150 A 
ATOM      5  N   UNL     1       9.548  -0.348  25.427  0.00  0.00    -0.185 NA
ATOM      6  C   UNL     1       9.808  -1.067  24.317  0.00  0.00    +0.313 A 
ATOM      7  F   UNL     1      10.589  -0.481  23.395  0.00  0.00    -0.161 F 
ATOM      8  N   UNL     1       7.268  -2.938  26.832  0.00  0.00    -0.227 NA
ATOM      9  N   UNL     1       9.376  -2.306  24.022  0.00  0.00    -0.182 NA
ATOM     10  C   UNL     1       7.128  -4.048  26.116  0.00  0.00    +0.116 A 
ENDROOT
BRANCH   4  11
ATOM     11  N   UNL     1       8.528  -0.138  27.522  0.00  0.00    -0.341 N 
ATOM     12  H   UNL     1       9.191   0.617  27.626  0.00  0.00    +0.144 HD
ATOM     13  H   UNL     1       7.553   0.040  27.730  0.00  0.00    +0.144 HD
ENDBRANCH   4  11
BRANCH   1  14
ATOM     14  C   UNL     1       8.312  -5.079  24.085  0.00  0.00    +0.125 C 
BRANCH  14  15
ATOM     15  C   UNL     1       7.677  -4.831  22.710  0.00  0.00    +0.021 C 
BRANCH  15  17
ATOM     16  C   UNL     1       6.021  -5.898  21.120  0.00  0.00    +0.004 C 
ATOM     17  C   UNL     1       7.133  -6.136  22.129  0.00  0.00    -0.002 C 
ENDBRANCH  15  17
ENDBRANCH  14  15
ENDBRANCH   1  14
BRANCH  10  18
ATOM     18  C   UNL     1       6.093  -5.130  26.297  0.00  0.00    +0.109 C 
BRANCH  18  19
ATOM     19  C   UNL     1       5.110  -5.438  25.183  0.00  0.00    -0.036 A 
ATOM     20  C   UNL     1       4.500  -4.441  24.391  0.00  0.00    +0.008 A 
ATOM     21  C   UNL     1       3.418  -4.746  23.553  0.00  0.00    +0.050 A 
ATOM     22  C   UNL     1       2.946  -6.041  23.546  0.00  0.00    +0.166 A 
ATOM     23  O   UNL     1       1.850  -6.490  22.877  0.00  0.00    -0.453 OA
ATOM     24  C   UNL     1       1.755  -7.831  23.398  0.00  0.00    +0.466 C 
ATOM     25  O   UNL     1       2.909  -8.224  24.168  0.00  0.00    -0.453 OA
ATOM     26  C   UNL     1       3.550  -7.028  24.282  0.00  0.00    +0.166 A 
ATOM     27  C   UNL     1       4.638  -6.768  25.085  0.00  0.00    +0.053 A 
ENDBRANCH  18  19
ENDBRANCH  10  18
TORSDOF 6
ENDMDL
MODEL 4
REMARK VINA RESULT:      -6.6      1.830      2.923
REMARK  Name = 
REMARK  7 active torsions:
REMARK  status: ('A' for Active; 'I' for Inactive)
REMARK    1  A    between atoms: C_1  and  C_2
REMARK    2  A    between atoms: C_2  and  C_3
REMARK    3  A    between atoms: C_3  and  C_4
REMARK    4  A    between atoms: C_4  and  N_5
REMARK    5  A    between atoms: C_6  and  C_7
REMARK    6  A    between atoms: C_7  and  C_8
REMARK    7  A    between atoms: C_19  and  N_20
REMARK                            x       y       z     vdW  Elec       q    Type
REMARK                         _______ _______ _______ _____ _____    ______ ____
ROOT
ATOM      1  N   UNL     1       7.253  -4.500  24.210  0.00  0.00    -0.312 N 
ATOM      2  C   UNL     1       6.455  -5.359  24.918  0.00  0.00    +0.168 A 
ATOM      3  C   UNL     1       6.990  -5.392  26.188  0.00  0.00    +0.148 A 
ATOM      4  C   UNL     1       6.258  -6.118  27.143  0.00  0.00    +0.150 A 
ATOM      5  N   UNL     1       5.154  -6.792  26.745  0.00  0.00    -0.185 NA
ATOM      6  C   UNL     1       4.777  -6.708  25.453  0.00  0.00    +0.313 A 
ATOM      7  F   UNL     1       3.692  -7.416  25.101  0.00  0.00    -0.161 F 
ATOM      8  N   UNL     1       8.179  -4.681  26.223  0.00  0.00    -0.227 NA
ATOM      9  N   UNL     1       5.360  -5.996  24.473  0.00  0.00    -0.182 NA
ATOM     10  C   UNL     1       8.356  -4.201  24.997  0.00  0.00    +0.116 A 
ENDROOT
BRANCH   4  11
ATOM     11  N   UNL     1       6.597  -6.191  28.485  0.00  0.00    -0.341 N 
ATOM     12  H   UNL     1       6.931  -5.310  28.851  0.00  0.00    +0.144 HD
ATOM     13  H   UNL     1       5.962  -6.741  29.050  0.00  0.00    +0.144 HD
ENDBRANCH   4  11
BRANCH   1  14
ATOM     14  C   UNL     1       6.937  -4.061  22.863  0.00  0.00    +0.125 C 
BRANCH  14  15
ATOM     15  C   UNL     1       5.786  -3.046  22.820  0.00  0.00    +0.021 C 
BRANCH  15  17
ATOM     16  C   UNL     1       5.684  -1.326  24.674  0.00  0.00    +0.004 C 
ATOM     17  C   UNL     1       6.261  -1.679  23.313  0.00  0.00    -0.002 C 
ENDBRANCH  15  17
ENDBRANCH  14  15
ENDBRANCH   1  14
BRANCH  10  18
ATOM     18  C   UNL     1       9.599  -3.553  24.438  0.00  0.00    +0.109 C 
BRANCH  18  19
ATOM     19  C   UNL     1       9.677  -2.044  24.306  0.00  0.00    -0.036 A 
ATOM     20  C   UNL     1       9.279  -1.156  25.329  0.00  0.00    +0.008 A 
ATOM     21  C   UNL     1       9.129   0.215  25.077  0.00  0.00    +0.050 A 
ATOM     22  C   UNL     1       9.350   0.669  23.795  0.00  0.00    +0.166 A 
ATOM     23  O   UNL     1       9.154   1.939  23.350  0.00  0.00    -0.453 OA
ATOM     24  C   UNL     1       9.357   1.756  21.934  0.00  0.00    +0.466 C 
ATOM     25  O   UNL     1       9.894   0.459  21.600  0.00  0.00    -0.453 OA
ATOM     26  C   UNL     1       9.772  -0.175  22.799  0.00  0.00    +0.166 A 
ATOM     27  C   UNL     1       9.965  -1.520  23.025  0.00  0.00    +0.053 A 
ENDBRANCH  18  19
ENDBRANCH  10  18
TORSDOF 6
ENDMDL
MODEL 5
REMARK VINA RESULT:      -6.5      1.992      3.410
REMARK  Name = 
REMARK  7 active torsions:
REMARK  status: ('A' for Active; 'I' for Inactive)
REMARK    1  A    between atoms: C_1  and  C_2
REMARK    2  A    between atoms: C_2  and  C_3
REMARK    3  A    between atoms: C_3  and  C_4
REMARK    4  A    between atoms: C_4  and  N_5
REMARK    5  A    between atoms: C_6  and  C_7
REMARK    6  A    between atoms: C_7  and  C_8
REMARK    7  A    between atoms: C_19  and  N_20
REMARK                            x       y       z     vdW  Elec       q    Type
REMARK                         _______ _______ _______ _____ _____    ______ ____
ROOT
ATOM      1  N   UNL     1       8.094  -3.138  23.999  0.00  0.00    -0.312 N 
ATOM      2  C   UNL     1       7.312  -4.217  23.688  0.00  0.00    +0.168 A 
ATOM      3  C   UNL     1       6.458  -4.371  24.760  0.00  0.00    +0.148 A 
ATOM      4  C   UNL     1       5.461  -5.351  24.615  0.00  0.00    +0.150 A 
ATOM      5  N   UNL     1       5.458  -6.119  23.500  0.00  0.00    -0.185 NA
ATOM      6  C   UNL     1       6.390  -5.887  22.554  0.00  0.00    +0.313 A 
ATOM      7  F   UNL     1       6.363  -6.693  21.480  0.00  0.00    -0.161 F 
ATOM      8  N   UNL     1       6.805  -3.494  25.775  0.00  0.00    -0.227 NA
ATOM      9  N   UNL     1       7.345  -4.941  22.557  0.00  0.00    -0.182 NA
ATOM     10  C   UNL     1       7.842  -2.798  25.321  0.00  0.00    +0.116 A 
ENDROOT
BRANCH   4  11
ATOM     11  N   UNL     1       4.466  -5.586  25.551  0.00  0.00    -0.341 N 
ATOM     12  H   UNL     1       3.777  -4.847  25.582  0.00  0.00    +0.144 HD
ATOM     13  H   UNL     1       4.149  -6.547  25.594  0.00  0.00    +0.144 HD
ENDBRANCH   4  11
BRANCH   1  14
ATOM     14  C   UNL     1       9.024  -2.541  23.057  0.00  0.00    +0.125 C 
BRANCH  14  15
ATOM     15  C   UNL     1       8.385  -1.432  22.210  0.00  0.00    +0.021 C 
BRANCH  15  17
ATOM     16  C   UNL     1       8.941   0.821  21.198  0.00  0.00    +0.004 C 
ATOM     17  C   UNL     1       9.465  -0.556  21.575  0.00  0.00    -0.002 C 
ENDBRANCH  15  17
ENDBRANCH  14  15
ENDBRANCH   1  14
BRANCH  10  18
ATOM     18  C   UNL     1       8.742  -1.878  26.107  0.00  0.00    +0.109 C 
BRANCH  18  19
ATOM     19  C   UNL     1       8.816  -0.403  25.757  0.00  0.00    -0.036 A 
ATOM     20  C   UNL     1       7.685   0.442  25.723  0.00  0.00    +0.008 A 
ATOM     21  C   UNL     1       7.757   1.722  25.154  0.00  0.00    +0.050 A 
ATOM     22  C   UNL     1       8.954   2.121  24.601  0.00  0.00    +0.166 A 
ATOM     23  O   UNL     1       9.176   3.278  23.921  0.00  0.00    -0.453 OA
ATOM     24  C   UNL     1      10.513   3.046  23.434  0.00  0.00    +0.466 C 
ATOM     25  O   UNL     1      11.137   1.884  24.020  0.00  0.00    -0.453 OA
ATOM     26  C   UNL     1      10.071   1.326  24.657  0.00  0.00    +0.166 A 
ATOM     27  C   UNL     1      10.042   0.080  25.243  0.00  0.00    +0.053 A 
ENDBRANCH  18  19
ENDBRANCH  10  18
TORSDOF 6
ENDMDL
MODEL 6
REMARK VINA RESULT:      -6.5      4.291      6.964
REMARK  Name = 
REMARK  7 active torsions:
REMARK  status: ('A' for Active; 'I' for Inactive)
REMARK    1  A    between atoms: C_1  and  C_2
REMARK    2  A    between atoms: C_2  and  C_3
REMARK    3  A    between atoms: C_3  and  C_4
REMARK    4  A    between atoms: C_4  and  N_5
REMARK    5  A    between atoms: C_6  and  C_7
REMARK    6  A    between atoms: C_7  and  C_8
REMARK    7  A    between atoms: C_19  and  N_20
REMARK                            x       y       z     vdW  Elec       q    Type
REMARK                         _______ _______ _______ _____ _____    ______ ____
ROOT
ATOM      1  N   UNL     1       8.617  -0.596  24.940  0.00  0.00    -0.312 N 
ATOM      2  C   UNL     1       8.813   0.726  24.641  0.00  0.00    +0.168 A 
ATOM      3  C   UNL     1       9.458   0.733  23.423  0.00  0.00    +0.148 A 
ATOM      4  C   UNL     1       9.656   1.997  22.841  0.00  0.00    +0.150 A 
ATOM      5  N   UNL     1       9.289   3.100  23.535  0.00  0.00    -0.185 NA
ATOM      6  C   UNL     1       8.711   2.940  24.743  0.00  0.00    +0.313 A 
ATOM      7  F   UNL     1       8.390   4.064  25.404  0.00  0.00    -0.161 F 
ATOM      8  N   UNL     1       9.785  -0.560  23.049  0.00  0.00    -0.227 NA
ATOM      9  N   UNL     1       8.417   1.785  25.365  0.00  0.00    -0.182 NA
ATOM     10  C   UNL     1       9.324  -1.349  24.013  0.00  0.00    +0.116 A 
ENDROOT
BRANCH   4  11
ATOM     11  N   UNL     1      10.210   2.192  21.585  0.00  0.00    -0.341 N 
ATOM     12  H   UNL     1       9.511   2.259  20.857  0.00  0.00    +0.144 HD
ATOM     13  H   UNL     1      10.993   2.834  21.566  0.00  0.00    +0.144 HD
ENDBRANCH   4  11
BRANCH   1  14
ATOM     14  C   UNL     1       7.822  -1.039  26.072  0.00  0.00    +0.125 C 
BRANCH  14  15
ATOM     15  C   UNL     1       6.337  -1.216  25.725  0.00  0.00    +0.021 C 
BRANCH  15  17
ATOM     16  C   UNL     1       4.313  -2.664  26.184  0.00  0.00    +0.004 C 
ATOM     17  C   UNL     1       5.684  -2.223  26.671  0.00  0.00    -0.002 C 
ENDBRANCH  15  17
ENDBRANCH  14  15
ENDBRANCH   1  14
BRANCH  10  18
ATOM     18  C   UNL     1       9.612  -2.817  24.211  0.00  0.00    +0.109 C 
BRANCH  18  19
ATOM     19  C   UNL     1       8.479  -3.826  24.179  0.00  0.00    -0.036 A 
ATOM     20  C   UNL     1       7.517  -3.876  23.147  0.00  0.00    +0.008 A 
ATOM     21  C   UNL     1       6.353  -4.647  23.282  0.00  0.00    +0.050 A 
ATOM     22  C   UNL     1       6.160  -5.331  24.463  0.00  0.00    +0.166 A 
ATOM     23  O   UNL     1       5.050  -6.040  24.805  0.00  0.00    -0.453 OA
ATOM     24  C   UNL     1       5.347  -6.345  26.183  0.00  0.00    +0.466 C 
ATOM     25  O   UNL     1       6.703  -6.023  26.556  0.00  0.00    -0.453 OA
ATOM     26  C   UNL     1       7.102  -5.321  25.460  0.00  0.00    +0.166 A 
ATOM     27  C   UNL     1       8.272  -4.604  25.342  0.00  0.00    +0.053 A 
ENDBRANCH  18  19
ENDBRANCH  10  18
TORSDOF 6
ENDMDL
MODEL 7
REMARK VINA RESULT:      -6.5      4.090      7.076
REMARK  Name = 
REMARK  7 active torsions:
REMARK  status: ('A' for Active; 'I' for Inactive)
REMARK    1  A    between atoms: C_1  and  C_2
REMARK    2  A    between atoms: C_2  and  C_3
REMARK    3  A    between atoms: C_3  and  C_4
REMARK    4  A    between atoms: C_4  and  N_5
REMARK    5  A    between atoms: C_6  and  C_7
REMARK    6  A    between atoms: C_7  and  C_8
REMARK    7  A    between atoms: C_19  and  N_20
REMARK                            x       y       z     vdW  Elec       q    Type
REMARK                         _______ _______ _______ _____ _____    ______ ____
ROOT
ATOM      1  N   UNL     1       7.956  -0.709  24.411  0.00  0.00    -0.312 N 
ATOM      2  C   UNL     1       8.278   0.289  23.530  0.00  0.00    +0.168 A 
ATOM      3  C   UNL     1       7.119   1.017  23.366  0.00  0.00    +0.148 A 
ATOM      4  C   UNL     1       7.234   2.186  22.593  0.00  0.00    +0.150 A 
ATOM      5  N   UNL     1       8.421   2.466  22.006  0.00  0.00    -0.185 NA
ATOM      6  C   UNL     1       9.458   1.631  22.216  0.00  0.00    +0.313 A 
ATOM      7  F   UNL     1      10.606   1.936  21.589  0.00  0.00    -0.161 F 
ATOM      8  N   UNL     1       6.067   0.394  24.018  0.00  0.00    -0.227 NA
ATOM      9  N   UNL     1       9.480   0.527  22.982  0.00  0.00    -0.182 NA
ATOM     10  C   UNL     1       6.581  -0.688  24.592  0.00  0.00    +0.116 A 
ENDROOT
BRANCH   4  11
ATOM     11  N   UNL     1       6.198   3.085  22.392  0.00  0.00    -0.341 N 
ATOM     12  H   UNL     1       5.632   2.854  21.586  0.00  0.00    +0.144 HD
ATOM     13  H   UNL     1       5.733   3.387  23.239  0.00  0.00    +0.144 HD
ENDBRANCH   4  11
BRANCH   1  14
ATOM     14  C   UNL     1       8.945  -1.609  24.977  0.00  0.00    +0.125 C 
BRANCH  14  15
ATOM     15  C   UNL     1       9.191  -2.849  24.105  0.00  0.00    +0.021 C 
BRANCH  15  17
ATOM     16  C   UNL     1       8.818  -3.900  26.377  0.00  0.00    +0.004 C 
ATOM     17  C   UNL     1       9.385  -4.087  24.979  0.00  0.00    -0.002 C 
ENDBRANCH  15  17
ENDBRANCH  14  15
ENDBRANCH   1  14
BRANCH  10  18
ATOM     18  C   UNL     1       5.829  -1.830  25.229  0.00  0.00    +0.109 C 
BRANCH  18  19
ATOM     19  C   UNL     1       5.624  -3.126  24.468  0.00  0.00    -0.036 A 
ATOM     20  C   UNL     1       5.624  -4.395  25.087  0.00  0.00    +0.008 A 
ATOM     21  C   UNL     1       5.686  -5.571  24.325  0.00  0.00    +0.050 A 
ATOM     22  C   UNL     1       5.777  -5.453  22.955  0.00  0.00    +0.166 A 
ATOM     23  O   UNL     1       5.947  -6.475  22.073  0.00  0.00    -0.453 OA
ATOM     24  C   UNL     1       6.163  -5.737  20.854  0.00  0.00    +0.466 C 
ATOM     25  O   UNL     1       5.886  -4.327  20.986  0.00  0.00    -0.453 OA
ATOM     26  C   UNL     1       5.742  -4.229  22.337  0.00  0.00    +0.166 A 
ATOM     27  C   UNL     1       5.644  -3.059  23.056  0.00  0.00    +0.053 A 
ENDBRANCH  18  19
ENDBRANCH  10  18
TORSDOF 6
ENDMDL
MODEL 8
REMARK VINA RESULT:      -6.5      2.757      4.393
REMARK  Name = 
REMARK  7 active torsions:
REMARK  status: ('A' for Active; 'I' for Inactive)
REMARK    1  A    between atoms: C_1  and  C_2
REMARK    2  A    between atoms: C_2  and  C_3
REMARK    3  A    between atoms: C_3  and  C_4
REMARK    4  A    between atoms: C_4  and  N_5
REMARK    5  A    between atoms: C_6  and  C_7
REMARK    6  A    between atoms: C_7  and  C_8
REMARK    7  A    between atoms: C_19  and  N_20
REMARK                            x       y       z     vdW  Elec       q    Type
REMARK                         _______ _______ _______ _____ _____    ______ ____
ROOT
ATOM      1  N   UNL     1       5.852  -4.457  25.019  0.00  0.00    -0.312 N 
ATOM      2  C   UNL     1       4.918  -5.256  25.624  0.00  0.00    +0.168 A 
ATOM      3  C   UNL     1       5.613  -5.978  26.570  0.00  0.00    +0.148 A 
ATOM      4  C   UNL     1       4.836  -6.787  27.417  0.00  0.00    +0.150 A 
ATOM      5  N   UNL     1       3.503  -6.869  27.198  0.00  0.00    -0.185 NA
ATOM      6  C   UNL     1       2.966  -6.141  26.198  0.00  0.00    +0.313 A 
ATOM      7  F   UNL     1       1.645  -6.279  26.002  0.00  0.00    -0.161 F 
ATOM      8  N   UNL     1       6.972  -5.735  26.452  0.00  0.00    -0.227 NA
ATOM      9  N   UNL     1       3.600  -5.291  25.372  0.00  0.00    -0.182 NA
ATOM     10  C   UNL     1       7.104  -4.859  25.462  0.00  0.00    +0.116 A 
ENDROOT
BRANCH   4  11
ATOM     11  N   UNL     1       5.351  -7.515  28.478  0.00  0.00    -0.341 N 
ATOM     12  H   UNL     1       6.303  -7.257  28.702  0.00  0.00    +0.144 HD
ATOM     13  H   UNL     1       4.699  -7.670  29.237  0.00  0.00    +0.144 HD
ENDBRANCH   4  11
BRANCH   1  14
ATOM     14  C   UNL     1       5.502  -3.419  24.066  0.00  0.00    +0.125 C 
BRANCH  14  15
ATOM     15  C   UNL     1       5.151  -3.978  22.679  0.00  0.00    +0.021 C 
BRANCH  15  17
ATOM     16  C   UNL     1       6.798  -5.554  21.581  0.00  0.00    +0.004 C 
ATOM     17  C   UNL     1       6.408  -4.104  21.820  0.00  0.00    -0.002 C 
ENDBRANCH  15  17
ENDBRANCH  14  15
ENDBRANCH   1  14
BRANCH  10  18
ATOM     18  C   UNL     1       8.380  -4.436  24.778  0.00  0.00    +0.109 C 
BRANCH  18  19
ATOM     19  C   UNL     1       8.932  -3.039  24.992  0.00  0.00    -0.036 A 
ATOM     20  C   UNL     1       8.571  -2.224  26.087  0.00  0.00    +0.008 A 
ATOM     21  C   UNL     1       8.901  -0.861  26.113  0.00  0.00    +0.050 A 
ATOM     22  C   UNL     1       9.560  -0.331  25.025  0.00  0.00    +0.166 A 
ATOM     23  O   UNL     1       9.866   0.981  24.834  0.00  0.00    -0.453 OA
ATOM     24  C   UNL     1      10.354   0.943  23.478  0.00  0.00    +0.466 C 
ATOM     25  O   UNL     1      10.549  -0.398  22.981  0.00  0.00    -0.453 OA
ATOM     26  C   UNL     1       9.949  -1.117  23.969  0.00  0.00    +0.166 A 
ATOM     27  C   UNL     1       9.673  -2.466  23.933  0.00  0.00    +0.053 A 
ENDBRANCH  18  19
ENDBRANCH  10  18
TORSDOF 6
ENDMDL
MODEL 9
REMARK VINA RESULT:      -6.5      1.939      2.866
REMARK  Name = 
REMARK  7 active torsions:
REMARK  status: ('A' for Active; 'I' for Inactive)
REMARK    1  A    between atoms: C_1  and  C_2
REMARK    2  A    between atoms: C_2  and  C_3
REMARK    3  A    between atoms: C_3  and  C_4
REMARK    4  A    between atoms: C_4  and  N_5
REMARK    5  A    between atoms: C_6  and  C_7
REMARK    6  A    between atoms: C_7  and  C_8
REMARK    7  A    between atoms: C_19  and  N_20
REMARK                            x       y       z     vdW  Elec       q    Type
REMARK                         _______ _______ _______ _____ _____    ______ ____
ROOT
ATOM      1  N   UNL     1       9.441  -1.736  23.884  0.00  0.00    -0.312 N 
ATOM      2  C   UNL     1       8.722  -2.875  24.133  0.00  0.00    +0.168 A 
ATOM      3  C   UNL     1       8.033  -2.623  25.300  0.00  0.00    +0.148 A 
ATOM      4  C   UNL     1       7.115  -3.612  25.696  0.00  0.00    +0.150 A 
ATOM      5  N   UNL     1       7.033  -4.753  24.973  0.00  0.00    -0.185 NA
ATOM      6  C   UNL     1       7.809  -4.881  23.878  0.00  0.00    +0.313 A 
ATOM      7  F   UNL     1       7.713  -6.042  23.210  0.00  0.00    -0.161 F 
ATOM      8  N   UNL     1       8.431  -1.410  25.837  0.00  0.00    -0.227 NA
ATOM      9  N   UNL     1       8.670  -3.980  23.373  0.00  0.00    -0.182 NA
ATOM     10  C   UNL     1       9.335  -0.916  24.998  0.00  0.00    +0.116 A 
ENDROOT
BRANCH   4  11
ATOM     11  N   UNL     1       6.275  -3.493  26.792  0.00  0.00    -0.341 N 
ATOM     12  H   UNL     1       5.817  -2.593  26.837  0.00  0.00    +0.144 HD
ATOM     13  H   UNL     1       5.734  -4.323  26.999  0.00  0.00    +0.144 HD
ENDBRANCH   4  11
BRANCH   1  14
ATOM     14  C   UNL     1      10.184  -1.527  22.654  0.00  0.00    +0.125 C 
BRANCH  14  15
ATOM     15  C   UNL     1       9.293  -1.070  21.490  0.00  0.00    +0.021 C 
BRANCH  15  17
ATOM     16  C   UNL     1       8.092   1.157  21.478  0.00  0.00    +0.004 C 
ATOM     17  C   UNL     1       9.417   0.439  21.283  0.00  0.00    -0.002 C 
ENDBRANCH  15  17
ENDBRANCH  14  15
ENDBRANCH   1  14
BRANCH  10  18
ATOM     18  C   UNL     1      10.246   0.265  25.225  0.00  0.00    +0.109 C 
BRANCH  18  19
ATOM     19  C   UNL     1       9.972   1.583  24.525  0.00  0.00    -0.036 A 
ATOM     20  C   UNL     1      10.946   2.278  23.775  0.00  0.00    +0.008 A 
ATOM     21  C   UNL     1      10.732   3.601  23.363  0.00  0.00    +0.050 A 
ATOM     22  C   UNL     1       9.556   4.216  23.736  0.00  0.00    +0.166 A 
ATOM     23  O   UNL     1       9.228   5.517  23.514  0.00  0.00    -0.453 OA
ATOM     24  C   UNL     1       8.010   5.616  24.281  0.00  0.00    +0.466 C 
ATOM     25  O   UNL     1       7.522   4.338  24.739  0.00  0.00    -0.453 OA
ATOM     26  C   UNL     1       8.585   3.543  24.434  0.00  0.00    +0.166 A 
ATOM     27  C   UNL     1       8.751   2.232  24.820  0.00  0.00    +0.053 A 
ENDBRANCH  18  19
ENDBRANCH  10  18
TORSDOF 6
ENDMDL
