MODEL 1
REMARK VINA RESULT:      -6.8      0.000      0.000
REMARK  Name = 
REMARK  5 active torsions:
REMARK  status: ('A' for Active; 'I' for Inactive)
REMARK    1  A    between atoms: O_1  and  C_2
REMARK    2  A    between atoms: C_2  and  C_4
REMARK    3  A    between atoms: C_4  and  C_5
REMARK    4  A    between atoms: C_6  and  O_7
REMARK    5  A    between atoms: C_13  and  O_14
REMARK                            x       y       z     vdW  Elec       q    Type
REMARK                         _______ _______ _______ _____ _____    ______ ____
ROOT
ATOM      1  C   UNL     1      10.005   1.661  23.207  0.00  0.00    +0.005 A 
ATOM      2  C   UNL     1       9.868   1.332  21.854  0.00  0.00    +0.008 A 
ATOM      3  C   UNL     1       9.334   0.097  21.471  0.00  0.00    +0.005 A 
ATOM      4  C   UNL     1       8.930  -0.841  22.437  0.00  0.00    -0.029 A 
ATOM      5  C   UNL     1       8.368  -2.156  21.968  0.00  0.00    +0.072 C 
ATOM      6  C   UNL     1       7.980  -3.127  23.048  0.00  0.00    -0.029 A 
ATOM      7  C   UNL     1       7.460  -4.381  22.669  0.00  0.00    +0.005 A 
ATOM      8  C   UNL     1       7.094  -5.320  23.634  0.00  0.00    +0.004 A 
ATOM      9  C   UNL     1       7.240  -5.024  24.983  0.00  0.00    +0.046 A 
ATOM     10  C   UNL     1       7.751  -3.784  25.370  0.00  0.00    +0.128 A 
ATOM     11  C   UNL     1       8.124  -2.832  24.408  0.00  0.00    +0.067 A 
ATOM     12  C   UNL     1       8.687  -1.522  24.816  0.00  0.00    +0.201 C 
ATOM     13  O   UNL     1       8.868  -1.270  26.008  0.00  0.00    -0.286 OA
ATOM     14  C   UNL     1       9.062  -0.522  23.791  0.00  0.00    +0.067 A 
ATOM     15  C   UNL     1       9.575   0.735  24.167  0.00  0.00    +0.132 A 
ENDROOT
BRANCH  10  16
ATOM     16  O   UNL     1       7.865  -3.573  26.722  0.00  0.00    -0.506 OA
ATOM     17  H   UNL     1       8.588  -4.144  27.051  0.00  0.00    +0.292 HD
ENDBRANCH  10  16
BRANCH  15  18
ATOM     18  O   UNL     1       9.663   1.135  25.478  0.00  0.00    -0.506 OA
ATOM     19  H   UNL     1      10.068   2.036  25.482  0.00  0.00    +0.292 HD
ENDBRANCH  15  18
BRANCH   1  20
ATOM     20  C   UNL     1      10.604   2.986  23.612  0.00  0.00    +0.159 C 
BRANCH  20  21
ATOM     21  C   UNL     1       9.581   4.054  23.924  0.00  0.00    +0.309 C 
ATOM     22  O   UNL     1       8.855   4.030  24.906  0.00  0.00    -0.251 OA
BRANCH  21  23
ATOM     23  O   UNL     1       9.517   5.041  22.997  0.00  0.00    -0.480 OA
ATOM     24  H   UNL     1      10.295   5.034  22.396  0.00  0.00    +0.295 HD
ENDBRANCH  21  23
ENDBRANCH  20  21
ENDBRANCH   1  20
TORSDOF 5
ENDMDL
MODEL 2
REMARK VINA RESULT:      -6.7      2.969      6.790
REMARK  Name = 
REMARK  5 active torsions:
REMARK  status: ('A' for Active; 'I' for Inactive)
REMARK    1  A    between atoms: O_1  and  C_2
REMARK    2  A    between atoms: C_2  and  C_4
REMARK    3  A    between atoms: C_4  and  C_5
REMARK    4  A    between atoms: C_6  and  O_7
REMARK    5  A    between atoms: C_13  and  O_14
REMARK                            x       y       z     vdW  Elec       q    Type
REMARK                         _______ _______ _______ _____ _____    ______ ____
ROOT
ATOM      1  C   UNL     1       5.874  -4.160  25.935  0.00  0.00    +0.005 A 
ATOM      2  C   UNL     1       4.946  -3.147  26.199  0.00  0.00    +0.008 A 
ATOM      3  C   UNL     1       5.064  -1.895  25.587  0.00  0.00    +0.005 A 
ATOM      4  C   UNL     1       6.121  -1.626  24.700  0.00  0.00    -0.029 A 
ATOM      5  C   UNL     1       6.203  -0.260  24.075  0.00  0.00    +0.072 C 
ATOM      6  C   UNL     1       7.369  -0.026  23.157  0.00  0.00    -0.029 A 
ATOM      7  C   UNL     1       7.506   1.240  22.553  0.00  0.00    +0.005 A 
ATOM      8  C   UNL     1       8.578   1.509  21.701  0.00  0.00    +0.004 A 
ATOM      9  C   UNL     1       9.523   0.527  21.440  0.00  0.00    +0.046 A 
ATOM     10  C   UNL     1       9.397  -0.732  22.031  0.00  0.00    +0.128 A 
ATOM     11  C   UNL     1       8.323  -1.015  22.891  0.00  0.00    +0.067 A 
ATOM     12  C   UNL     1       8.198  -2.344  23.537  0.00  0.00    +0.201 C 
ATOM     13  O   UNL     1       9.058  -3.205  23.352  0.00  0.00    -0.286 OA
ATOM     14  C   UNL     1       7.053  -2.632  24.430  0.00  0.00    +0.067 A 
ATOM     15  C   UNL     1       6.911  -3.898  25.029  0.00  0.00    +0.132 A 
ENDROOT
BRANCH  10  16
ATOM     16  O   UNL     1      10.375  -1.645  21.722  0.00  0.00    -0.506 OA
ATOM     17  H   UNL     1      10.463  -1.668  20.749  0.00  0.00    +0.292 HD
ENDBRANCH  10  16
BRANCH  15  18
ATOM     18  O   UNL     1       7.752  -4.948  24.749  0.00  0.00    -0.506 OA
ATOM     19  H   UNL     1       8.176  -4.757  23.878  0.00  0.00    +0.292 HD
ENDBRANCH  15  18
BRANCH   1  20
ATOM     20  C   UNL     1       5.753  -5.501  26.618  0.00  0.00    +0.159 C 
BRANCH  20  21
ATOM     21  C   UNL     1       6.610  -5.641  27.855  0.00  0.00    +0.309 C 
ATOM     22  O   UNL     1       6.202  -5.436  28.988  0.00  0.00    -0.251 OA
BRANCH  21  23
ATOM     23  O   UNL     1       7.893  -5.994  27.597  0.00  0.00    -0.480 OA
ATOM     24  H   UNL     1       7.951  -6.710  26.926  0.00  0.00    +0.295 HD
ENDBRANCH  21  23
ENDBRANCH  20  21
ENDBRANCH   1  20
TORSDOF 5
ENDMDL
MODEL 3
REMARK VINA RESULT:      -6.6      2.552      6.704
REMARK  Name = 
REMARK  5 active torsions:
REMARK  status: ('A' for Active; 'I' for Inactive)
REMARK    1  A    between atoms: O_1  and  C_2
REMARK    2  A    between atoms: C_2  and  C_4
REMARK    3  A    between atoms: C_4  and  C_5
REMARK    4  A    between atoms: C_6  and  O_7
REMARK    5  A    between atoms: C_13  and  O_14
REMARK                            x       y       z     vdW  Elec       q    Type
REMARK                         _______ _______ _______ _____ _____    ______ ____
ROOT
ATOM      1  C   UNL     1       7.249  -4.815  25.698  0.00  0.00    +0.005 A 
ATOM      2  C   UNL     1       8.595  -5.137  25.500  0.00  0.00    +0.008 A 
ATOM      3  C   UNL     1       9.444  -4.263  24.812  0.00  0.00    +0.005 A 
ATOM      4  C   UNL     1       8.960  -3.047  24.301  0.00  0.00    -0.029 A 
ATOM      5  C   UNL     1       9.916  -2.148  23.564  0.00  0.00    +0.072 C 
ATOM      6  C   UNL     1       9.333  -0.875  23.018  0.00  0.00    -0.029 A 
ATOM      7  C   UNL     1      10.177   0.001  22.306  0.00  0.00    +0.005 A 
ATOM      8  C   UNL     1       9.681   1.190  21.772  0.00  0.00    +0.004 A 
ATOM      9  C   UNL     1       8.343   1.522  21.938  0.00  0.00    +0.046 A 
ATOM     10  C   UNL     1       7.497   0.663  22.643  0.00  0.00    +0.128 A 
ATOM     11  C   UNL     1       7.985  -0.537  23.184  0.00  0.00    +0.067 A 
ATOM     12  C   UNL     1       7.085  -1.460  23.916  0.00  0.00    +0.201 C 
ATOM     13  O   UNL     1       5.886  -1.199  24.025  0.00  0.00    -0.286 OA
ATOM     14  C   UNL     1       7.616  -2.715  24.494  0.00  0.00    +0.067 A 
ATOM     15  C   UNL     1       6.776  -3.588  25.211  0.00  0.00    +0.132 A 
ENDROOT
BRANCH  10  16
ATOM     16  O   UNL     1       6.189   1.065  22.759  0.00  0.00    -0.506 OA
ATOM     17  H   UNL     1       5.633   0.399  22.307  0.00  0.00    +0.292 HD
ENDBRANCH  10  16
BRANCH  15  18
ATOM     18  O   UNL     1       5.466  -3.286  25.496  0.00  0.00    -0.506 OA
ATOM     19  H   UNL     1       4.964  -4.137  25.493  0.00  0.00    +0.292 HD
ENDBRANCH  15  18
BRANCH   1  20
ATOM     20  C   UNL     1       6.334  -5.774  26.421  0.00  0.00    +0.159 C 
BRANCH  20  21
ATOM     21  C   UNL     1       6.348  -5.623  27.925  0.00  0.00    +0.309 C 
ATOM     22  O   UNL     1       6.940  -6.384  28.675  0.00  0.00    -0.251 OA
BRANCH  21  23
ATOM     23  O   UNL     1       5.619  -4.575  28.379  0.00  0.00    -0.480 OA
ATOM     24  H   UNL     1       5.551  -4.571  29.360  0.00  0.00    +0.295 HD
ENDBRANCH  21  23
ENDBRANCH  20  21
ENDBRANCH   1  20
TORSDOF 5
ENDMDL
MODEL 4
REMARK VINA RESULT:      -6.5      2.553      3.846
REMARK  Name = 
REMARK  5 active torsions:
REMARK  status: ('A' for Active; 'I' for Inactive)
REMARK    1  A    between atoms: O_1  and  C_2
REMARK    2  A    between atoms: C_2  and  C_4
REMARK    3  A    between atoms: C_4  and  C_5
REMARK    4  A    between atoms: C_6  and  O_7
REMARK    5  A    between atoms: C_13  and  O_14
REMARK                            x       y       z     vdW  Elec       q    Type
REMARK                         _______ _______ _______ _____ _____    ______ ____
ROOT
ATOM      1  C   UNL     1       9.405  -0.931  23.564  0.00  0.00    +0.005 A 
ATOM      2  C   UNL     1       9.389  -0.780  24.955  0.00  0.00    +0.008 A 
ATOM      3  C   UNL     1       8.655  -1.659  25.759  0.00  0.00    +0.005 A 
ATOM      4  C   UNL     1       7.914  -2.706  25.186  0.00  0.00    -0.029 A 
ATOM      5  C   UNL     1       7.138  -3.617  26.099  0.00  0.00    +0.072 C 
ATOM      6  C   UNL     1       6.344  -4.701  25.426  0.00  0.00    -0.029 A 
ATOM      7  C   UNL     1       5.586  -5.577  26.228  0.00  0.00    +0.005 A 
ATOM      8  C   UNL     1       4.825  -6.593  25.650  0.00  0.00    +0.004 A 
ATOM      9  C   UNL     1       4.808  -6.750  24.270  0.00  0.00    +0.046 A 
ATOM     10  C   UNL     1       5.557  -5.889  23.464  0.00  0.00    +0.128 A 
ATOM     11  C   UNL     1       6.326  -4.863  24.035  0.00  0.00    +0.067 A 
ATOM     12  C   UNL     1       7.106  -3.934  23.181  0.00  0.00    +0.201 C 
ATOM     13  O   UNL     1       7.057  -4.033  21.955  0.00  0.00    -0.286 OA
ATOM     14  C   UNL     1       7.923  -2.866  23.798  0.00  0.00    +0.067 A 
ATOM     15  C   UNL     1       8.687  -1.994  22.998  0.00  0.00    +0.132 A 
ENDROOT
BRANCH  10  16
ATOM     16  O   UNL     1       5.483  -6.112  22.111  0.00  0.00    -0.506 OA
ATOM     17  H   UNL     1       5.952  -6.949  21.922  0.00  0.00    +0.292 HD
ENDBRANCH  10  16
BRANCH  15  18
ATOM     18  O   UNL     1       8.793  -2.141  21.637  0.00  0.00    -0.506 OA
ATOM     19  H   UNL     1       8.365  -3.000  21.402  0.00  0.00    +0.292 HD
ENDBRANCH  15  18
BRANCH   1  20
ATOM     20  C   UNL     1      10.180   0.036  22.701  0.00  0.00    +0.159 C 
BRANCH  20  21
ATOM     21  C   UNL     1       9.327   1.104  22.055  0.00  0.00    +0.309 C 
ATOM     22  O   UNL     1       8.119   1.007  21.908  0.00  0.00    -0.251 OA
BRANCH  21  23
ATOM     23  O   UNL     1      10.029   2.181  21.625  0.00  0.00    -0.480 OA
ATOM     24  H   UNL     1       9.580   3.026  21.849  0.00  0.00    +0.295 HD
ENDBRANCH  21  23
ENDBRANCH  20  21
ENDBRANCH   1  20
TORSDOF 5
ENDMDL
MODEL 5
REMARK VINA RESULT:      -6.3      1.393      2.424
REMARK  Name = 
REMARK  5 active torsions:
REMARK  status: ('A' for Active; 'I' for Inactive)
REMARK    1  A    between atoms: O_1  and  C_2
REMARK    2  A    between atoms: C_2  and  C_4
REMARK    3  A    between atoms: C_4  and  C_5
REMARK    4  A    between atoms: C_6  and  O_7
REMARK    5  A    between atoms: C_13  and  O_14
REMARK                            x       y       z     vdW  Elec       q    Type
REMARK                         _______ _______ _______ _____ _____    ______ ____
ROOT
ATOM      1  C   UNL     1       9.869  -0.665  24.043  0.00  0.00    +0.005 A 
ATOM      2  C   UNL     1       9.885  -1.004  22.686  0.00  0.00    +0.008 A 
ATOM      3  C   UNL     1       9.092  -2.052  22.205  0.00  0.00    +0.005 A 
ATOM      4  C   UNL     1       8.270  -2.788  23.074  0.00  0.00    -0.029 A 
ATOM      5  C   UNL     1       7.443  -3.909  22.503  0.00  0.00    +0.072 C 
ATOM      6  C   UNL     1       6.606  -4.676  23.487  0.00  0.00    -0.029 A 
ATOM      7  C   UNL     1       5.820  -5.746  23.011  0.00  0.00    +0.005 A 
ATOM      8  C   UNL     1       5.034  -6.494  23.887  0.00  0.00    +0.004 A 
ATOM      9  C   UNL     1       5.018  -6.189  25.242  0.00  0.00    +0.046 A 
ATOM     10  C   UNL     1       5.790  -5.130  25.724  0.00  0.00    +0.128 A 
ATOM     11  C   UNL     1       6.586  -4.371  24.852  0.00  0.00    +0.067 A 
ATOM     12  C   UNL     1       7.423  -3.259  25.364  0.00  0.00    +0.201 C 
ATOM     13  O   UNL     1       7.455  -3.013  26.571  0.00  0.00    -0.286 OA
ATOM     14  C   UNL     1       8.247  -2.457  24.432  0.00  0.00    +0.067 A 
ATOM     15  C   UNL     1       9.027  -1.383  24.903  0.00  0.00    +0.132 A 
ENDROOT
BRANCH  10  16
ATOM     16  O   UNL     1       5.719  -4.898  27.075  0.00  0.00    -0.506 OA
ATOM     17  H   UNL     1       4.843  -5.206  27.383  0.00  0.00    +0.292 HD
ENDBRANCH  10  16
BRANCH  15  18
ATOM     18  O   UNL     1       8.994  -0.964  26.211  0.00  0.00    -0.506 OA
ATOM     19  H   UNL     1       9.747  -0.337  26.335  0.00  0.00    +0.292 HD
ENDBRANCH  15  18
BRANCH   1  20
ATOM     20  C   UNL     1      10.745   0.451  24.560  0.00  0.00    +0.159 C 
BRANCH  20  21
ATOM     21  C   UNL     1      10.208   1.836  24.276  0.00  0.00    +0.309 C 
ATOM     22  O   UNL     1      10.704   2.599  23.462  0.00  0.00    -0.251 OA
BRANCH  21  23
ATOM     23  O   UNL     1       9.133   2.173  25.029  0.00  0.00    -0.480 OA
ATOM     24  H   UNL     1       8.508   2.752  24.540  0.00  0.00    +0.295 HD
ENDBRANCH  21  23
ENDBRANCH  20  21
ENDBRANCH   1  20
TORSDOF 5
ENDMDL
MODEL 6
REMARK VINA RESULT:      -6.3      2.060      2.275
REMARK  Name = 
REMARK  5 active torsions:
REMARK  status: ('A' for Active; 'I' for Inactive)
REMARK    1  A    between atoms: O_1  and  C_2
REMARK    2  A    between atoms: C_2  and  C_4
REMARK    3  A    between atoms: C_4  and  C_5
REMARK    4  A    between atoms: C_6  and  O_7
REMARK    5  A    between atoms: C_13  and  O_14
REMARK                            x       y       z     vdW  Elec       q    Type
REMARK                         _______ _______ _______ _____ _____    ______ ____
ROOT
ATOM      1  C   UNL     1       8.179   1.370  22.108  0.00  0.00    +0.005 A 
ATOM      2  C   UNL     1       9.524   1.061  21.879  0.00  0.00    +0.008 A 
ATOM      3  C   UNL     1      10.073  -0.133  22.360  0.00  0.00    +0.005 A 
ATOM      4  C   UNL     1       9.287  -1.043  23.087  0.00  0.00    -0.029 A 
ATOM      5  C   UNL     1       9.932  -2.308  23.586  0.00  0.00    +0.072 C 
ATOM      6  C   UNL     1       9.047  -3.228  24.379  0.00  0.00    -0.029 A 
ATOM      7  C   UNL     1       9.599  -4.422  24.884  0.00  0.00    +0.005 A 
ATOM      8  C   UNL     1       8.821  -5.304  25.634  0.00  0.00    +0.004 A 
ATOM      9  C   UNL     1       7.489  -5.009  25.892  0.00  0.00    +0.046 A 
ATOM     10  C   UNL     1       6.930  -3.830  25.395  0.00  0.00    +0.128 A 
ATOM     11  C   UNL     1       7.703  -2.935  24.639  0.00  0.00    +0.067 A 
ATOM     12  C   UNL     1       7.118  -1.671  24.128  0.00  0.00    +0.201 C 
ATOM     13  O   UNL     1       5.953  -1.377  24.394  0.00  0.00    -0.286 OA
ATOM     14  C   UNL     1       7.942  -0.744  23.320  0.00  0.00    +0.067 A 
ATOM     15  C   UNL     1       7.391   0.446  22.809  0.00  0.00    +0.132 A 
ENDROOT
BRANCH  10  16
ATOM     16  O   UNL     1       5.607  -3.614  25.697  0.00  0.00    -0.506 OA
ATOM     17  H   UNL     1       5.240  -4.455  26.035  0.00  0.00    +0.292 HD
ENDBRANCH  10  16
BRANCH  15  18
ATOM     18  O   UNL     1       6.061   0.763  22.943  0.00  0.00    -0.506 OA
ATOM     19  H   UNL     1       5.860   1.469  22.282  0.00  0.00    +0.292 HD
ENDBRANCH  15  18
BRANCH   1  20
ATOM     20  C   UNL     1       7.600   2.671  21.606  0.00  0.00    +0.159 C 
BRANCH  20  21
ATOM     21  C   UNL     1       7.511   3.751  22.659  0.00  0.00    +0.309 C 
ATOM     22  O   UNL     1       6.597   3.837  23.465  0.00  0.00    -0.251 OA
BRANCH  21  23
ATOM     23  O   UNL     1       8.531   4.643  22.619  0.00  0.00    -0.480 OA
ATOM     24  H   UNL     1       9.341   4.259  22.215  0.00  0.00    +0.295 HD
ENDBRANCH  21  23
ENDBRANCH  20  21
ENDBRANCH   1  20
TORSDOF 5
ENDMDL
MODEL 7
REMARK VINA RESULT:      -6.2      2.240      2.526
REMARK  Name = 
REMARK  5 active torsions:
REMARK  status: ('A' for Active; 'I' for Inactive)
REMARK    1  A    between atoms: O_1  and  C_2
REMARK    2  A    between atoms: C_2  and  C_4
REMARK    3  A    between atoms: C_4  and  C_5
REMARK    4  A    between atoms: C_6  and  O_7
REMARK    5  A    between atoms: C_13  and  O_14
REMARK                            x       y       z     vdW  Elec       q    Type
REMARK                         _______ _______ _______ _____ _____    ______ ____
ROOT
ATOM      1  C   UNL     1       8.884   0.703  22.289  0.00  0.00    +0.005 A 
ATOM      2  C   UNL     1       9.582  -0.326  21.647  0.00  0.00    +0.008 A 
ATOM      3  C   UNL     1       9.148  -1.652  21.750  0.00  0.00    +0.005 A 
ATOM      4  C   UNL     1       8.009  -1.979  22.505  0.00  0.00    -0.029 A 
ATOM      5  C   UNL     1       7.593  -3.423  22.586  0.00  0.00    +0.072 C 
ATOM      6  C   UNL     1       6.383  -3.712  23.429  0.00  0.00    -0.029 A 
ATOM      7  C   UNL     1       5.953  -5.048  23.554  0.00  0.00    +0.005 A 
ATOM      8  C   UNL     1       4.842  -5.368  24.334  0.00  0.00    +0.004 A 
ATOM      9  C   UNL     1       4.146  -4.366  24.997  0.00  0.00    +0.046 A 
ATOM     10  C   UNL     1       4.560  -3.038  24.879  0.00  0.00    +0.128 A 
ATOM     11  C   UNL     1       5.678  -2.704  24.098  0.00  0.00    +0.067 A 
ATOM     12  C   UNL     1       6.134  -1.297  23.988  0.00  0.00    +0.201 C 
ATOM     13  O   UNL     1       5.554  -0.408  24.613  0.00  0.00    -0.286 OA
ATOM     14  C   UNL     1       7.305  -0.958  23.150  0.00  0.00    +0.067 A 
ATOM     15  C   UNL     1       7.732   0.377  23.018  0.00  0.00    +0.132 A 
ENDROOT
BRANCH  10  16
ATOM     16  O   UNL     1       3.818  -2.111  25.569  0.00  0.00    -0.506 OA
ATOM     17  H   UNL     1       3.593  -1.390  24.947  0.00  0.00    +0.292 HD
ENDBRANCH  10  16
BRANCH  15  18
ATOM     18  O   UNL     1       7.043   1.431  23.567  0.00  0.00    -0.506 OA
ATOM     19  H   UNL     1       7.656   1.884  24.197  0.00  0.00    +0.292 HD
ENDBRANCH  15  18
BRANCH   1  20
ATOM     20  C   UNL     1       9.371   2.129  22.192  0.00  0.00    +0.159 C 
BRANCH  20  21
ATOM     21  C   UNL     1      10.430   2.488  23.210  0.00  0.00    +0.309 C 
ATOM     22  O   UNL     1      10.685   1.805  24.190  0.00  0.00    -0.251 OA
BRANCH  21  23
ATOM     23  O   UNL     1      11.063   3.658  22.954  0.00  0.00    -0.480 OA
ATOM     24  H   UNL     1      10.445   4.422  22.963  0.00  0.00    +0.295 HD
ENDBRANCH  21  23
ENDBRANCH  20  21
ENDBRANCH   1  20
TORSDOF 5
ENDMDL
MODEL 8
REMARK VINA RESULT:      -6.2      1.980      6.847
REMARK  Name = 
REMARK  5 active torsions:
REMARK  status: ('A' for Active; 'I' for Inactive)
REMARK    1  A    between atoms: O_1  and  C_2
REMARK    2  A    between atoms: C_2  and  C_4
REMARK    3  A    between atoms: C_4  and  C_5
REMARK    4  A    between atoms: C_6  and  O_7
REMARK    5  A    between atoms: C_13  and  O_14
REMARK                            x       y       z     vdW  Elec       q    Type
REMARK                         _______ _______ _______ _____ _____    ______ ____
ROOT
ATOM      1  C   UNL     1       8.104  -2.976  24.667  0.00  0.00    +0.005 A 
ATOM      2  C   UNL     1       7.270  -2.684  25.751  0.00  0.00    +0.008 A 
ATOM      3  C   UNL     1       7.060  -1.360  26.152  0.00  0.00    +0.005 A 
ATOM      4  C   UNL     1       7.688  -0.298  25.480  0.00  0.00    -0.029 A 
ATOM      5  C   UNL     1       7.432   1.105  25.959  0.00  0.00    +0.072 C 
ATOM      6  C   UNL     1       8.153   2.195  25.217  0.00  0.00    -0.029 A 
ATOM      7  C   UNL     1       7.963   3.530  25.629  0.00  0.00    +0.005 A 
ATOM      8  C   UNL     1       8.618   4.575  24.978  0.00  0.00    +0.004 A 
ATOM      9  C   UNL     1       9.467   4.308  23.913  0.00  0.00    +0.046 A 
ATOM     10  C   UNL     1       9.662   2.990  23.494  0.00  0.00    +0.128 A 
ATOM     11  C   UNL     1       9.009   1.929  24.142  0.00  0.00    +0.067 A 
ATOM     12  C   UNL     1       9.230   0.527  23.712  0.00  0.00    +0.201 C 
ATOM     13  O   UNL     1      10.020   0.276  22.802  0.00  0.00    -0.286 OA
ATOM     14  C   UNL     1       8.524  -0.580  24.396  0.00  0.00    +0.067 A 
ATOM     15  C   UNL     1       8.707  -1.913  23.981  0.00  0.00    +0.132 A 
ENDROOT
BRANCH  10  16
ATOM     16  O   UNL     1      10.519   2.814  22.435  0.00  0.00    -0.506 OA
ATOM     17  H   UNL     1      10.968   1.953  22.558  0.00  0.00    +0.292 HD
ENDBRANCH  10  16
BRANCH  15  18
ATOM     18  O   UNL     1       9.458  -2.249  22.880  0.00  0.00    -0.506 OA
ATOM     19  H   UNL     1      10.163  -2.868  23.186  0.00  0.00    +0.292 HD
ENDBRANCH  15  18
BRANCH   1  20
ATOM     20  C   UNL     1       8.344  -4.409  24.254  0.00  0.00    +0.159 C 
BRANCH  20  21
ATOM     21  C   UNL     1       8.961  -5.265  25.336  0.00  0.00    +0.309 C 
ATOM     22  O   UNL     1       8.319  -5.794  26.230  0.00  0.00    -0.251 OA
BRANCH  21  23
ATOM     23  O   UNL     1      10.309  -5.379  25.244  0.00  0.00    -0.480 OA
ATOM     24  H   UNL     1      10.651  -5.029  24.391  0.00  0.00    +0.295 HD
ENDBRANCH  21  23
ENDBRANCH  20  21
ENDBRANCH   1  20
TORSDOF 5
ENDMDL
MODEL 9
REMARK VINA RESULT:      -6.1      2.595      4.653
REMARK  Name = 
REMARK  5 active torsions:
REMARK  status: ('A' for Active; 'I' for Inactive)
REMARK    1  A    between atoms: O_1  and  C_2
REMARK    2  A    between atoms: C_2  and  C_4
REMARK    3  A    between atoms: C_4  and  C_5
REMARK    4  A    between atoms: C_6  and  O_7
REMARK    5  A    between atoms: C_13  and  O_14
REMARK                            x       y       z     vdW  Elec       q    Type
REMARK                         _______ _______ _______ _____ _____    ______ ____
ROOT
ATOM      1  C   UNL     1       8.694  -2.816  23.510  0.00  0.00    +0.005 A 
ATOM      2  C   UNL     1       7.983  -2.547  22.336  0.00  0.00    +0.008 A 
ATOM      3  C   UNL     1       6.748  -3.160  22.094  0.00  0.00    +0.005 A 
ATOM      4  C   UNL     1       6.201  -4.062  23.022  0.00  0.00    -0.029 A 
ATOM      5  C   UNL     1       4.872  -4.696  22.708  0.00  0.00    +0.072 C 
ATOM      6  C   UNL     1       4.352  -5.671  23.726  0.00  0.00    -0.029 A 
ATOM      7  C   UNL     1       3.119  -6.308  23.480  0.00  0.00    +0.005 A 
ATOM      8  C   UNL     1       2.599  -7.228  24.390  0.00  0.00    +0.004 A 
ATOM      9  C   UNL     1       3.297  -7.526  25.553  0.00  0.00    +0.046 A 
ATOM     10  C   UNL     1       4.519  -6.900  25.810  0.00  0.00    +0.128 A 
ATOM     11  C   UNL     1       5.052  -5.973  24.900  0.00  0.00    +0.067 A 
ATOM     12  C   UNL     1       6.359  -5.323  25.160  0.00  0.00    +0.201 C 
ATOM     13  O   UNL     1       7.010  -5.618  26.163  0.00  0.00    -0.286 OA
ATOM     14  C   UNL     1       6.903  -4.336  24.199  0.00  0.00    +0.067 A 
ATOM     15  C   UNL     1       8.131  -3.694  24.447  0.00  0.00    +0.132 A 
ENDROOT
BRANCH  10  16
ATOM     16  O   UNL     1       5.144  -7.253  26.980  0.00  0.00    -0.506 OA
ATOM     17  H   UNL     1       5.251  -6.442  27.515  0.00  0.00    +0.292 HD
ENDBRANCH  10  16
BRANCH  15  18
ATOM     18  O   UNL     1       8.834  -3.867  25.615  0.00  0.00    -0.506 OA
ATOM     19  H   UNL     1       9.654  -4.371  25.390  0.00  0.00    +0.292 HD
ENDBRANCH  15  18
BRANCH   1  20
ATOM     20  C   UNL     1      10.036  -2.169  23.753  0.00  0.00    +0.159 C 
BRANCH  20  21
ATOM     21  C   UNL     1       9.957  -0.827  24.444  0.00  0.00    +0.309 C 
ATOM     22  O   UNL     1       9.420  -0.655  25.528  0.00  0.00    -0.251 OA
BRANCH  21  23
ATOM     23  O   UNL     1      10.516   0.187  23.741  0.00  0.00    -0.480 OA
ATOM     24  H   UNL     1      10.738  -0.080  22.821  0.00  0.00    +0.295 HD
ENDBRANCH  21  23
ENDBRANCH  20  21
ENDBRANCH   1  20
TORSDOF 5
ENDMDL
