MODEL 1
REMARK VINA RESULT:      -7.3      0.000      0.000
REMARK  Name = 
REMARK  9 active torsions:
REMARK  status: ('A' for Active; 'I' for Inactive)
REMARK    1  A    between atoms: C_1  and  C_2
REMARK    2  A    between atoms: C_2  and  C_3
REMARK    3  A    between atoms: C_2  and  O_4
REMARK    4  A    between atoms: O_4  and  C_5
REMARK    5  A    between atoms: C_8  and  C_9
REMARK    6  A    between atoms: C_9  and  C_10
REMARK    7  A    between atoms: C_10  and  C_11
REMARK    8  A    between atoms: C_11  and  C_19
REMARK    9  A    between atoms: C_13  and  O_14
REMARK                            x       y       z     vdW  Elec       q    Type
REMARK                         _______ _______ _______ _____ _____    ______ ____
ROOT
ATOM      1  C   UNL     1       8.344  -3.530  24.518  0.00  0.00    +0.124 C 
ATOM      2  O   UNL     1       7.344  -2.602  25.030  0.00  0.00    -0.454 OA
ATOM      3  C   UNL     1       6.674  -2.707  26.193  0.00  0.00    +0.336 C 
ATOM      4  O   UNL     1       5.883  -1.849  26.565  0.00  0.00    -0.245 OA
ATOM      5  C   UNL     1       6.902  -3.899  27.003  0.00  0.00    +0.132 C 
ATOM      6  C   UNL     1       7.754  -4.853  26.642  0.00  0.00    +0.105 C 
ATOM      7  C   UNL     1       8.552  -4.804  25.388  0.00  0.00    +0.122 C 
ENDROOT
BRANCH   1   8
ATOM      8  C   UNL     1       7.854  -3.890  23.084  0.00  0.00    +0.033 C 
ATOM      9  C   UNL     1       6.707  -3.000  22.559  0.00  0.00    +0.007 C 
ATOM     10  C   UNL     1       5.859  -3.885  21.646  0.00  0.00    +0.000 C 
ATOM     11  C   UNL     1       6.592  -5.217  21.552  0.00  0.00    +0.000 C 
ATOM     12  C   UNL     1       7.347  -5.319  22.870  0.00  0.00    +0.007 C 
ENDBRANCH   1   8
BRANCH   6  13
ATOM     13  O   UNL     1       7.911  -5.966  27.447  0.00  0.00    -0.511 OA
ATOM     14  H   UNL     1       7.355  -6.692  27.111  0.00  0.00    +0.292 HD
ENDBRANCH   6  13
BRANCH   1  15
ATOM     15  C   UNL     1       9.688  -2.742  24.507  0.00  0.00    +0.053 C 
BRANCH  15  16
ATOM     16  C   UNL     1      10.117  -2.144  23.156  0.00  0.00    +0.039 C 
BRANCH  16  21
ATOM     17  C   UNL     1       8.951   2.032  22.761  0.00  0.00    +0.156 A 
ATOM     18  C   UNL     1       9.239   1.478  24.013  0.00  0.00    +0.165 A 
ATOM     19  F   UNL     1       9.131   2.230  25.121  0.00  0.00    -0.202 F 
ATOM     20  C   UNL     1       9.635   0.145  24.153  0.00  0.00    +0.045 A 
ATOM     21  C   UNL     1       9.748  -0.679  23.028  0.00  0.00    -0.044 A 
ATOM     22  C   UNL     1       9.463  -0.125  21.773  0.00  0.00    +0.007 A 
ATOM     23  C   UNL     1       9.086   1.218  21.638  0.00  0.00    +0.049 A 
BRANCH  17  24
ATOM     24  O   UNL     1       8.549   3.340  22.757  0.00  0.00    -0.486 OA
BRANCH  24  26
ATOM     25  C   UNL     1       6.186   3.032  22.942  0.00  0.00    +0.051 C 
ATOM     26  C   UNL     1       7.304   3.690  22.139  0.00  0.00    +0.167 C 
ATOM     27  C   UNL     1       7.140   5.208  22.151  0.00  0.00    +0.051 C 
ENDBRANCH  24  26
ENDBRANCH  17  24
ENDBRANCH  16  21
ENDBRANCH  15  16
ENDBRANCH   1  15
TORSDOF 7
ENDMDL
MODEL 2
REMARK VINA RESULT:      -7.2      2.135      2.735
REMARK  Name = 
REMARK  9 active torsions:
REMARK  status: ('A' for Active; 'I' for Inactive)
REMARK    1  A    between atoms: C_1  and  C_2
REMARK    2  A    between atoms: C_2  and  C_3
REMARK    3  A    between atoms: C_2  and  O_4
REMARK    4  A    between atoms: O_4  and  C_5
REMARK    5  A    between atoms: C_8  and  C_9
REMARK    6  A    between atoms: C_9  and  C_10
REMARK    7  A    between atoms: C_10  and  C_11
REMARK    8  A    between atoms: C_11  and  C_19
REMARK    9  A    between atoms: C_13  and  O_14
REMARK                            x       y       z     vdW  Elec       q    Type
REMARK                         _______ _______ _______ _____ _____    ______ ____
ROOT
ATOM      1  C   UNL     1       6.662  -4.676  24.274  0.00  0.00    +0.124 C 
ATOM      2  O   UNL     1       6.264  -4.353  25.639  0.00  0.00    -0.454 OA
ATOM      3  C   UNL     1       7.044  -4.405  26.734  0.00  0.00    +0.336 C 
ATOM      4  O   UNL     1       6.633  -4.067  27.838  0.00  0.00    -0.245 OA
ATOM      5  C   UNL     1       8.407  -4.901  26.576  0.00  0.00    +0.132 C 
ATOM      6  C   UNL     1       8.897  -5.273  25.398  0.00  0.00    +0.105 C 
ATOM      7  C   UNL     1       8.113  -5.224  24.135  0.00  0.00    +0.122 C 
ENDROOT
BRANCH   1   8
ATOM      8  C   UNL     1       5.609  -5.714  23.788  0.00  0.00    +0.033 C 
ATOM      9  C   UNL     1       4.487  -5.120  22.908  0.00  0.00    +0.007 C 
ATOM     10  C   UNL     1       3.234  -5.950  23.191  0.00  0.00    +0.000 C 
ATOM     11  C   UNL     1       3.676  -7.077  24.115  0.00  0.00    +0.000 C 
ATOM     12  C   UNL     1       4.861  -6.494  24.872  0.00  0.00    +0.007 C 
ENDBRANCH   1   8
BRANCH   6  13
ATOM     13  O   UNL     1      10.192  -5.750  25.318  0.00  0.00    -0.511 OA
ATOM     14  H   UNL     1      10.196  -6.708  25.495  0.00  0.00    +0.292 HD
ENDBRANCH   6  13
BRANCH   1  15
ATOM     15  C   UNL     1       6.587  -3.335  23.482  0.00  0.00    +0.053 C 
BRANCH  15  16
ATOM     16  C   UNL     1       7.696  -3.093  22.444  0.00  0.00    +0.039 C 
BRANCH  16  21
ATOM     17  C   UNL     1      10.069   0.437  23.374  0.00  0.00    +0.156 A 
ATOM     18  C   UNL     1       9.503  -0.341  24.390  0.00  0.00    +0.165 A 
ATOM     19  F   UNL     1       9.665   0.013  25.676  0.00  0.00    -0.202 F 
ATOM     20  C   UNL     1       8.756  -1.489  24.108  0.00  0.00    +0.045 A 
ATOM     21  C   UNL     1       8.551  -1.887  22.782  0.00  0.00    -0.044 A 
ATOM     22  C   UNL     1       9.119  -1.111  21.764  0.00  0.00    +0.007 A 
ATOM     23  C   UNL     1       9.884   0.027  22.055  0.00  0.00    +0.049 A 
BRANCH  17  24
ATOM     24  O   UNL     1      10.755   1.551  23.776  0.00  0.00    -0.486 OA
BRANCH  24  26
ATOM     25  C   UNL     1       9.249   3.299  24.400  0.00  0.00    +0.051 C 
ATOM     26  C   UNL     1      10.288   2.846  23.378  0.00  0.00    +0.167 C 
ATOM     27  C   UNL     1      11.461   3.821  23.348  0.00  0.00    +0.051 C 
ENDBRANCH  24  26
ENDBRANCH  17  24
ENDBRANCH  16  21
ENDBRANCH  15  16
ENDBRANCH   1  15
TORSDOF 7
ENDMDL
MODEL 3
REMARK VINA RESULT:      -7.2      1.362      1.781
REMARK  Name = 
REMARK  9 active torsions:
REMARK  status: ('A' for Active; 'I' for Inactive)
REMARK    1  A    between atoms: C_1  and  C_2
REMARK    2  A    between atoms: C_2  and  C_3
REMARK    3  A    between atoms: C_2  and  O_4
REMARK    4  A    between atoms: O_4  and  C_5
REMARK    5  A    between atoms: C_8  and  C_9
REMARK    6  A    between atoms: C_9  and  C_10
REMARK    7  A    between atoms: C_10  and  C_11
REMARK    8  A    between atoms: C_11  and  C_19
REMARK    9  A    between atoms: C_13  and  O_14
REMARK                            x       y       z     vdW  Elec       q    Type
REMARK                         _______ _______ _______ _____ _____    ______ ____
ROOT
ATOM      1  C   UNL     1       8.380  -3.717  24.449  0.00  0.00    +0.124 C 
ATOM      2  O   UNL     1       7.326  -2.806  24.879  0.00  0.00    -0.454 OA
ATOM      3  C   UNL     1       6.621  -2.881  26.022  0.00  0.00    +0.336 C 
ATOM      4  O   UNL     1       5.783  -2.039  26.322  0.00  0.00    -0.245 OA
ATOM      5  C   UNL     1       6.867  -4.019  26.900  0.00  0.00    +0.132 C 
ATOM      6  C   UNL     1       7.769  -4.954  26.619  0.00  0.00    +0.105 C 
ATOM      7  C   UNL     1       8.609  -4.935  25.391  0.00  0.00    +0.122 C 
ENDROOT
BRANCH   1   8
ATOM      8  C   UNL     1       7.957  -4.169  23.020  0.00  0.00    +0.033 C 
ATOM      9  C   UNL     1       6.769  -3.382  22.428  0.00  0.00    +0.007 C 
ATOM     10  C   UNL     1       6.007  -4.361  21.533  0.00  0.00    +0.000 C 
ATOM     11  C   UNL     1       6.830  -5.642  21.516  0.00  0.00    +0.000 C 
ATOM     12  C   UNL     1       7.552  -5.637  22.856  0.00  0.00    +0.007 C 
ENDBRANCH   1   8
BRANCH   6  13
ATOM     13  O   UNL     1       7.943  -6.017  27.485  0.00  0.00    -0.511 OA
ATOM     14  H   UNL     1       7.097  -6.486  27.597  0.00  0.00    +0.292 HD
ENDBRANCH   6  13
BRANCH   1  15
ATOM     15  C   UNL     1       9.691  -2.874  24.441  0.00  0.00    +0.053 C 
BRANCH  15  16
ATOM     16  C   UNL     1      10.088  -2.242  23.096  0.00  0.00    +0.039 C 
BRANCH  16  21
ATOM     17  C   UNL     1       9.777   2.101  23.080  0.00  0.00    +0.156 A 
ATOM     18  C   UNL     1       9.150   1.329  22.096  0.00  0.00    +0.165 A 
ATOM     19  F   UNL     1       8.462   1.927  21.110  0.00  0.00    -0.202 F 
ATOM     20  C   UNL     1       9.223  -0.068  22.100  0.00  0.00    +0.045 A 
ATOM     21  C   UNL     1       9.941  -0.732  23.100  0.00  0.00    -0.044 A 
ATOM     22  C   UNL     1      10.568   0.039  24.087  0.00  0.00    +0.007 A 
ATOM     23  C   UNL     1      10.473   1.438  24.088  0.00  0.00    +0.049 A 
BRANCH  17  24
ATOM     24  O   UNL     1       9.655   3.458  22.952  0.00  0.00    -0.486 OA
BRANCH  24  26
ATOM     25  C   UNL     1       9.961   5.694  23.739  0.00  0.00    +0.051 C 
ATOM     26  C   UNL     1       9.574   4.271  24.129  0.00  0.00    +0.167 C 
ATOM     27  C   UNL     1       8.147   4.240  24.670  0.00  0.00    +0.051 C 
ENDBRANCH  24  26
ENDBRANCH  17  24
ENDBRANCH  16  21
ENDBRANCH  15  16
ENDBRANCH   1  15
TORSDOF 7
ENDMDL
MODEL 4
REMARK VINA RESULT:      -7.1      2.474      7.130
REMARK  Name = 
REMARK  9 active torsions:
REMARK  status: ('A' for Active; 'I' for Inactive)
REMARK    1  A    between atoms: C_1  and  C_2
REMARK    2  A    between atoms: C_2  and  C_3
REMARK    3  A    between atoms: C_2  and  O_4
REMARK    4  A    between atoms: O_4  and  C_5
REMARK    5  A    between atoms: C_8  and  C_9
REMARK    6  A    between atoms: C_9  and  C_10
REMARK    7  A    between atoms: C_10  and  C_11
REMARK    8  A    between atoms: C_11  and  C_19
REMARK    9  A    between atoms: C_13  and  O_14
REMARK                            x       y       z     vdW  Elec       q    Type
REMARK                         _______ _______ _______ _____ _____    ______ ____
ROOT
ATOM      1  C   UNL     1       9.330   2.254  23.615  0.00  0.00    +0.124 C 
ATOM      2  O   UNL     1       9.123   1.539  24.868  0.00  0.00    -0.454 OA
ATOM      3  C   UNL     1       7.977   0.973  25.287  0.00  0.00    +0.336 C 
ATOM      4  O   UNL     1       7.910   0.348  26.338  0.00  0.00    -0.245 OA
ATOM      5  C   UNL     1       6.790   1.142  24.455  0.00  0.00    +0.132 C 
ATOM      6  C   UNL     1       6.816   1.808  23.305  0.00  0.00    +0.105 C 
ATOM      7  C   UNL     1       8.045   2.442  22.756  0.00  0.00    +0.122 C 
ENDROOT
BRANCH   1   8
ATOM      8  C   UNL     1       9.942   3.623  24.035  0.00  0.00    +0.033 C 
ATOM      9  C   UNL     1       8.998   4.829  23.845  0.00  0.00    +0.007 C 
ATOM     10  C   UNL     1       9.891   6.026  23.512  0.00  0.00    +0.000 C 
ATOM     11  C   UNL     1      11.325   5.530  23.644  0.00  0.00    +0.000 C 
ATOM     12  C   UNL     1      11.234   4.043  23.329  0.00  0.00    +0.007 C 
ENDBRANCH   1   8
BRANCH   6  13
ATOM     13  O   UNL     1       5.653   1.947  22.571  0.00  0.00    -0.511 OA
ATOM     14  H   UNL     1       5.709   2.751  22.024  0.00  0.00    +0.292 HD
ENDBRANCH   6  13
BRANCH   1  15
ATOM     15  C   UNL     1      10.326   1.385  22.790  0.00  0.00    +0.053 C 
BRANCH  15  16
ATOM     16  C   UNL     1       9.703   0.412  21.775  0.00  0.00    +0.039 C 
BRANCH  16  21
ATOM     17  C   UNL     1       8.656  -3.372  23.657  0.00  0.00    +0.156 A 
ATOM     18  C   UNL     1       7.872  -2.835  22.629  0.00  0.00    +0.165 A 
ATOM     19  F   UNL     1       6.761  -3.475  22.228  0.00  0.00    -0.202 F 
ATOM     20  C   UNL     1       8.208  -1.632  22.001  0.00  0.00    +0.045 A 
ATOM     21  C   UNL     1       9.348  -0.925  22.396  0.00  0.00    -0.044 A 
ATOM     22  C   UNL     1      10.135  -1.462  23.424  0.00  0.00    +0.007 A 
ATOM     23  C   UNL     1       9.804  -2.679  24.035  0.00  0.00    +0.049 A 
BRANCH  17  24
ATOM     24  O   UNL     1       8.208  -4.541  24.210  0.00  0.00    -0.486 OA
BRANCH  24  26
ATOM     25  C   UNL     1       6.161  -5.308  25.175  0.00  0.00    +0.051 C 
ATOM     26  C   UNL     1       7.431  -4.497  25.413  0.00  0.00    +0.167 C 
ATOM     27  C   UNL     1       8.237  -5.100  26.561  0.00  0.00    +0.051 C 
ENDBRANCH  24  26
ENDBRANCH  17  24
ENDBRANCH  16  21
ENDBRANCH  15  16
ENDBRANCH   1  15
TORSDOF 7
ENDMDL
MODEL 5
REMARK VINA RESULT:      -7.0      1.668      2.310
REMARK  Name = 
REMARK  9 active torsions:
REMARK  status: ('A' for Active; 'I' for Inactive)
REMARK    1  A    between atoms: C_1  and  C_2
REMARK    2  A    between atoms: C_2  and  C_3
REMARK    3  A    between atoms: C_2  and  O_4
REMARK    4  A    between atoms: O_4  and  C_5
REMARK    5  A    between atoms: C_8  and  C_9
REMARK    6  A    between atoms: C_9  and  C_10
REMARK    7  A    between atoms: C_10  and  C_11
REMARK    8  A    between atoms: C_11  and  C_19
REMARK    9  A    between atoms: C_13  and  O_14
REMARK                            x       y       z     vdW  Elec       q    Type
REMARK                         _______ _______ _______ _____ _____    ______ ____
ROOT
ATOM      1  C   UNL     1       7.434  -3.566  24.466  0.00  0.00    +0.124 C 
ATOM      2  O   UNL     1       6.755  -3.831  25.729  0.00  0.00    -0.454 OA
ATOM      3  C   UNL     1       7.265  -4.481  26.791  0.00  0.00    +0.336 C 
ATOM      4  O   UNL     1       6.634  -4.614  27.832  0.00  0.00    -0.245 OA
ATOM      5  C   UNL     1       8.602  -5.050  26.663  0.00  0.00    +0.132 C 
ATOM      6  C   UNL     1       9.325  -4.926  25.555  0.00  0.00    +0.105 C 
ATOM      7  C   UNL     1       8.849  -4.203  24.345  0.00  0.00    +0.122 C 
ENDROOT
BRANCH   1   8
ATOM      8  C   UNL     1       6.467  -4.109  23.374  0.00  0.00    +0.033 C 
ATOM      9  C   UNL     1       5.524  -5.232  23.857  0.00  0.00    +0.007 C 
ATOM     10  C   UNL     1       5.284  -6.141  22.650  0.00  0.00    +0.000 C 
ATOM     11  C   UNL     1       5.973  -5.466  21.472  0.00  0.00    +0.000 C 
ATOM     12  C   UNL     1       7.111  -4.680  22.107  0.00  0.00    +0.007 C 
ENDBRANCH   1   8
BRANCH   6  13
ATOM     13  O   UNL     1      10.580  -5.504  25.491  0.00  0.00    -0.511 OA
ATOM     14  H   UNL     1      11.164  -4.953  24.940  0.00  0.00    +0.292 HD
ENDBRANCH   6  13
BRANCH   1  15
ATOM     15  C   UNL     1       7.605  -2.019  24.393  0.00  0.00    +0.053 C 
BRANCH  15  16
ATOM     16  C   UNL     1       9.038  -1.483  24.555  0.00  0.00    +0.039 C 
BRANCH  16  21
ATOM     17  C   UNL     1       9.417   2.771  23.709  0.00  0.00    +0.156 A 
ATOM     18  C   UNL     1       9.915   1.811  22.820  0.00  0.00    +0.165 A 
ATOM     19  F   UNL     1      10.547   2.197  21.700  0.00  0.00    -0.202 F 
ATOM     20  C   UNL     1       9.782   0.441  23.069  0.00  0.00    +0.045 A 
ATOM     21  C   UNL     1       9.144  -0.005  24.231  0.00  0.00    -0.044 A 
ATOM     22  C   UNL     1       8.642   0.954  25.119  0.00  0.00    +0.007 A 
ATOM     23  C   UNL     1       8.761   2.326  24.854  0.00  0.00    +0.049 A 
BRANCH  17  24
ATOM     24  O   UNL     1       9.633   4.079  23.368  0.00  0.00    -0.486 OA
BRANCH  24  26
ATOM     25  C   UNL     1       9.222   6.430  23.500  0.00  0.00    +0.051 C 
ATOM     26  C   UNL     1       8.594   5.042  23.583  0.00  0.00    +0.167 C 
ATOM     27  C   UNL     1       7.522   4.881  22.509  0.00  0.00    +0.051 C 
ENDBRANCH  24  26
ENDBRANCH  17  24
ENDBRANCH  16  21
ENDBRANCH  15  16
ENDBRANCH   1  15
TORSDOF 7
ENDMDL
MODEL 6
REMARK VINA RESULT:      -6.9      2.195      3.452
REMARK  Name = 
REMARK  9 active torsions:
REMARK  status: ('A' for Active; 'I' for Inactive)
REMARK    1  A    between atoms: C_1  and  C_2
REMARK    2  A    between atoms: C_2  and  C_3
REMARK    3  A    between atoms: C_2  and  O_4
REMARK    4  A    between atoms: O_4  and  C_5
REMARK    5  A    between atoms: C_8  and  C_9
REMARK    6  A    between atoms: C_9  and  C_10
REMARK    7  A    between atoms: C_10  and  C_11
REMARK    8  A    between atoms: C_11  and  C_19
REMARK    9  A    between atoms: C_13  and  O_14
REMARK                            x       y       z     vdW  Elec       q    Type
REMARK                         _______ _______ _______ _____ _____    ______ ____
ROOT
ATOM      1  C   UNL     1       6.692  -3.091  23.680  0.00  0.00    +0.124 C 
ATOM      2  O   UNL     1       6.279  -4.272  22.932  0.00  0.00    -0.454 OA
ATOM      3  C   UNL     1       5.051  -4.822  22.916  0.00  0.00    +0.336 C 
ATOM      4  O   UNL     1       4.784  -5.791  22.217  0.00  0.00    -0.245 OA
ATOM      5  C   UNL     1       4.033  -4.238  23.783  0.00  0.00    +0.132 C 
ATOM      6  C   UNL     1       4.276  -3.183  24.556  0.00  0.00    +0.105 C 
ATOM      7  C   UNL     1       5.596  -2.500  24.614  0.00  0.00    +0.122 C 
ENDROOT
BRANCH   1   8
ATOM      8  C   UNL     1       7.944  -3.547  24.484  0.00  0.00    +0.033 C 
ATOM      9  C   UNL     1       8.440  -4.969  24.142  0.00  0.00    +0.007 C 
ATOM     10  C   UNL     1       9.037  -5.538  25.430  0.00  0.00    +0.000 C 
ATOM     11  C   UNL     1       9.000  -4.405  26.447  0.00  0.00    +0.000 C 
ATOM     12  C   UNL     1       7.817  -3.553  26.010  0.00  0.00    +0.007 C 
ENDBRANCH   1   8
BRANCH   6  13
ATOM     13  O   UNL     1       3.272  -2.688  25.367  0.00  0.00    -0.511 OA
ATOM     14  H   UNL     1       2.431  -3.126  25.148  0.00  0.00    +0.292 HD
ENDBRANCH   6  13
BRANCH   1  15
ATOM     15  C   UNL     1       7.033  -2.010  22.611  0.00  0.00    +0.053 C 
BRANCH  15  16
ATOM     16  C   UNL     1       8.494  -1.961  22.133  0.00  0.00    +0.039 C 
BRANCH  16  21
ATOM     17  C   UNL     1      10.330   1.863  23.113  0.00  0.00    +0.156 A 
ATOM     18  C   UNL     1      10.388   0.785  24.004  0.00  0.00    +0.165 A 
ATOM     19  F   UNL     1      10.992   0.929  25.195  0.00  0.00    -0.202 F 
ATOM     20  C   UNL     1       9.821  -0.455  23.694  0.00  0.00    +0.045 A 
ATOM     21  C   UNL     1       9.169  -0.646  22.470  0.00  0.00    -0.044 A 
ATOM     22  C   UNL     1       9.113   0.432  21.577  0.00  0.00    +0.007 A 
ATOM     23  C   UNL     1       9.701   1.666  21.886  0.00  0.00    +0.049 A 
BRANCH  17  24
ATOM     24  O   UNL     1      10.898   3.032  23.542  0.00  0.00    -0.486 OA
BRANCH  24  26
ATOM     25  C   UNL     1       9.076   4.113  24.648  0.00  0.00    +0.051 C 
ATOM     26  C   UNL     1      10.118   4.234  23.541  0.00  0.00    +0.167 C 
ATOM     27  C   UNL     1      11.029   5.431  23.800  0.00  0.00    +0.051 C 
ENDBRANCH  24  26
ENDBRANCH  17  24
ENDBRANCH  16  21
ENDBRANCH  15  16
ENDBRANCH   1  15
TORSDOF 7
ENDMDL
MODEL 7
REMARK VINA RESULT:      -6.9      2.296      7.407
REMARK  Name = 
REMARK  9 active torsions:
REMARK  status: ('A' for Active; 'I' for Inactive)
REMARK    1  A    between atoms: C_1  and  C_2
REMARK    2  A    between atoms: C_2  and  C_3
REMARK    3  A    between atoms: C_2  and  O_4
REMARK    4  A    between atoms: O_4  and  C_5
REMARK    5  A    between atoms: C_8  and  C_9
REMARK    6  A    between atoms: C_9  and  C_10
REMARK    7  A    between atoms: C_10  and  C_11
REMARK    8  A    between atoms: C_11  and  C_19
REMARK    9  A    between atoms: C_13  and  O_14
REMARK                            x       y       z     vdW  Elec       q    Type
REMARK                         _______ _______ _______ _____ _____    ______ ____
ROOT
ATOM      1  C   UNL     1       8.073   3.470  23.079  0.00  0.00    +0.124 C 
ATOM      2  O   UNL     1       7.252   4.515  22.478  0.00  0.00    -0.454 OA
ATOM      3  C   UNL     1       7.553   5.824  22.399  0.00  0.00    +0.336 C 
ATOM      4  O   UNL     1       6.820   6.623  21.830  0.00  0.00    -0.245 OA
ATOM      5  C   UNL     1       8.784   6.278  23.036  0.00  0.00    +0.132 C 
ATOM      6  C   UNL     1       9.613   5.447  23.660  0.00  0.00    +0.105 C 
ATOM      7  C   UNL     1       9.369   3.983  23.772  0.00  0.00    +0.122 C 
ENDROOT
BRANCH   1   8
ATOM      8  C   UNL     1       7.129   2.755  24.090  0.00  0.00    +0.033 C 
ATOM      9  C   UNL     1       7.811   2.325  25.406  0.00  0.00    +0.007 C 
ATOM     10  C   UNL     1       7.101   1.049  25.862  0.00  0.00    +0.000 C 
ATOM     11  C   UNL     1       5.949   0.839  24.889  0.00  0.00    +0.000 C 
ATOM     12  C   UNL     1       6.431   1.484  23.597  0.00  0.00    +0.007 C 
ENDBRANCH   1   8
BRANCH   6  13
ATOM     13  O   UNL     1      10.756   5.943  24.258  0.00  0.00    -0.511 OA
ATOM     14  H   UNL     1      11.108   5.285  24.883  0.00  0.00    +0.292 HD
ENDBRANCH   6  13
BRANCH   1  15
ATOM     15  C   UNL     1       8.502   2.540  21.905  0.00  0.00    +0.053 C 
BRANCH  15  16
ATOM     16  C   UNL     1       9.866   1.844  22.049  0.00  0.00    +0.039 C 
BRANCH  16  21
ATOM     17  C   UNL     1       9.445  -2.125  23.787  0.00  0.00    +0.156 A 
ATOM     18  C   UNL     1       8.945  -1.839  22.511  0.00  0.00    +0.165 A 
ATOM     19  F   UNL     1       8.298  -2.787  21.814  0.00  0.00    -0.202 F 
ATOM     20  C   UNL     1       9.091  -0.575  21.932  0.00  0.00    +0.045 A 
ATOM     21  C   UNL     1       9.746   0.448  22.628  0.00  0.00    -0.044 A 
ATOM     22  C   UNL     1      10.249   0.162  23.903  0.00  0.00    +0.007 A 
ATOM     23  C   UNL     1      10.116  -1.114  24.469  0.00  0.00    +0.049 A 
BRANCH  17  24
ATOM     24  O   UNL     1       9.215  -3.391  24.255  0.00  0.00    -0.486 OA
BRANCH  24  26
ATOM     25  C   UNL     1       7.239  -4.726  24.420  0.00  0.00    +0.051 C 
ATOM     26  C   UNL     1       8.074  -3.636  25.086  0.00  0.00    +0.167 C 
ATOM     27  C   UNL     1       8.539  -4.094  26.466  0.00  0.00    +0.051 C 
ENDBRANCH  24  26
ENDBRANCH  17  24
ENDBRANCH  16  21
ENDBRANCH  15  16
ENDBRANCH   1  15
TORSDOF 7
ENDMDL
MODEL 8
REMARK VINA RESULT:      -6.9      2.523      7.075
REMARK  Name = 
REMARK  9 active torsions:
REMARK  status: ('A' for Active; 'I' for Inactive)
REMARK    1  A    between atoms: C_1  and  C_2
REMARK    2  A    between atoms: C_2  and  C_3
REMARK    3  A    between atoms: C_2  and  O_4
REMARK    4  A    between atoms: O_4  and  C_5
REMARK    5  A    between atoms: C_8  and  C_9
REMARK    6  A    between atoms: C_9  and  C_10
REMARK    7  A    between atoms: C_10  and  C_11
REMARK    8  A    between atoms: C_11  and  C_19
REMARK    9  A    between atoms: C_13  and  O_14
REMARK                            x       y       z     vdW  Elec       q    Type
REMARK                         _______ _______ _______ _____ _____    ______ ____
ROOT
ATOM      1  C   UNL     1       9.412   2.665  23.742  0.00  0.00    +0.124 C 
ATOM      2  O   UNL     1       8.871   2.694  25.095  0.00  0.00    -0.454 OA
ATOM      3  C   UNL     1       7.658   2.257  25.482  0.00  0.00    +0.336 C 
ATOM      4  O   UNL     1       7.306   2.278  26.655  0.00  0.00    -0.245 OA
ATOM      5  C   UNL     1       6.750   1.769  24.450  0.00  0.00    +0.132 C 
ATOM      6  C   UNL     1       7.090   1.723  23.166  0.00  0.00    +0.105 C 
ATOM      7  C   UNL     1       8.417   2.162  22.656  0.00  0.00    +0.122 C 
ENDROOT
BRANCH   1   8
ATOM      8  C   UNL     1       9.870   4.127  23.466  0.00  0.00    +0.033 C 
ATOM      9  C   UNL     1      11.400   4.307  23.361  0.00  0.00    +0.007 C 
ATOM     10  C   UNL     1      11.705   5.710  23.890  0.00  0.00    +0.000 C 
ATOM     11  C   UNL     1      10.354   6.358  24.163  0.00  0.00    +0.000 C 
ATOM     12  C   UNL     1       9.437   5.187  24.483  0.00  0.00    +0.007 C 
ENDBRANCH   1   8
BRANCH   6  13
ATOM     13  O   UNL     1       6.176   1.266  22.235  0.00  0.00    -0.511 OA
ATOM     14  H   UNL     1       5.365   0.978  22.690  0.00  0.00    +0.292 HD
ENDBRANCH   6  13
BRANCH   1  15
ATOM     15  C   UNL     1      10.607   1.665  23.786  0.00  0.00    +0.053 C 
BRANCH  15  16
ATOM     16  C   UNL     1      10.539   0.567  24.860  0.00  0.00    +0.039 C 
BRANCH  16  21
ATOM     17  C   UNL     1       8.459  -3.008  23.501  0.00  0.00    +0.156 A 
ATOM     18  C   UNL     1       8.320  -2.547  24.815  0.00  0.00    +0.165 A 
ATOM     19  F   UNL     1       7.557  -3.226  25.687  0.00  0.00    -0.202 F 
ATOM     20  C   UNL     1       8.965  -1.389  25.260  0.00  0.00    +0.045 A 
ATOM     21  C   UNL     1       9.780  -0.658  24.389  0.00  0.00    -0.044 A 
ATOM     22  C   UNL     1       9.919  -1.117  23.073  0.00  0.00    +0.007 A 
ATOM     23  C   UNL     1       9.253  -2.267  22.628  0.00  0.00    +0.049 A 
BRANCH  17  24
ATOM     24  O   UNL     1       7.800  -4.167  23.194  0.00  0.00    -0.486 OA
BRANCH  24  26
ATOM     25  C   UNL     1       6.703  -5.694  21.718  0.00  0.00    +0.051 C 
ATOM     26  C   UNL     1       6.995  -4.225  22.010  0.00  0.00    +0.167 C 
ATOM     27  C   UNL     1       5.693  -3.463  22.243  0.00  0.00    +0.051 C 
ENDBRANCH  24  26
ENDBRANCH  17  24
ENDBRANCH  16  21
ENDBRANCH  15  16
ENDBRANCH   1  15
TORSDOF 7
ENDMDL
MODEL 9
REMARK VINA RESULT:      -6.8      2.484      3.504
REMARK  Name = 
REMARK  9 active torsions:
REMARK  status: ('A' for Active; 'I' for Inactive)
REMARK    1  A    between atoms: C_1  and  C_2
REMARK    2  A    between atoms: C_2  and  C_3
REMARK    3  A    between atoms: C_2  and  O_4
REMARK    4  A    between atoms: O_4  and  C_5
REMARK    5  A    between atoms: C_8  and  C_9
REMARK    6  A    between atoms: C_9  and  C_10
REMARK    7  A    between atoms: C_10  and  C_11
REMARK    8  A    between atoms: C_11  and  C_19
REMARK    9  A    between atoms: C_13  and  O_14
REMARK                            x       y       z     vdW  Elec       q    Type
REMARK                         _______ _______ _______ _____ _____    ______ ____
ROOT
ATOM      1  C   UNL     1       5.900  -5.010  25.115  0.00  0.00    +0.124 C 
ATOM      2  O   UNL     1       5.000  -3.864  25.094  0.00  0.00    -0.454 OA
ATOM      3  C   UNL     1       3.704  -3.857  25.457  0.00  0.00    +0.336 C 
ATOM      4  O   UNL     1       3.036  -2.830  25.452  0.00  0.00    -0.245 OA
ATOM      5  C   UNL     1       3.099  -5.126  25.844  0.00  0.00    +0.132 C 
ATOM      6  C   UNL     1       3.786  -6.264  25.870  0.00  0.00    +0.105 C 
ATOM      7  C   UNL     1       5.226  -6.357  25.509  0.00  0.00    +0.122 C 
ENDROOT
BRANCH   1   8
ATOM      8  C   UNL     1       6.502  -5.070  23.681  0.00  0.00    +0.033 C 
ATOM      9  C   UNL     1       6.236  -3.812  22.825  0.00  0.00    +0.007 C 
ATOM     10  C   UNL     1       6.131  -4.292  21.376  0.00  0.00    +0.000 C 
ATOM     11  C   UNL     1       6.466  -5.777  21.401  0.00  0.00    +0.000 C 
ATOM     12  C   UNL     1       6.046  -6.230  22.792  0.00  0.00    +0.007 C 
ENDBRANCH   1   8
BRANCH   6  13
ATOM     13  O   UNL     1       3.149  -7.437  26.230  0.00  0.00    -0.511 OA
ATOM     14  H   UNL     1       2.211  -7.390  25.973  0.00  0.00    +0.292 HD
ENDBRANCH   6  13
BRANCH   1  15
ATOM     15  C   UNL     1       6.974  -4.686  26.197  0.00  0.00    +0.053 C 
BRANCH  15  16
ATOM     16  C   UNL     1       8.436  -4.651  25.719  0.00  0.00    +0.039 C 
BRANCH  16  21
ATOM     17  C   UNL     1       9.754  -0.668  24.557  0.00  0.00    +0.156 A 
ATOM     18  C   UNL     1      10.066  -1.788  23.778  0.00  0.00    +0.165 A 
ATOM     19  F   UNL     1      10.807  -1.647  22.666  0.00  0.00    -0.202 F 
ATOM     20  C   UNL     1       9.631  -3.070  24.127  0.00  0.00    +0.045 A 
ATOM     21  C   UNL     1       8.869  -3.265  25.284  0.00  0.00    -0.044 A 
ATOM     22  C   UNL     1       8.554  -2.144  26.064  0.00  0.00    +0.007 A 
ATOM     23  C   UNL     1       8.976  -0.859  25.697  0.00  0.00    +0.049 A 
BRANCH  17  24
ATOM     24  O   UNL     1      10.260   0.529  24.125  0.00  0.00    -0.486 OA
BRANCH  24  26
ATOM     25  C   UNL     1       9.409   2.761  24.186  0.00  0.00    +0.051 C 
ATOM     26  C   UNL     1       9.406   1.440  23.423  0.00  0.00    +0.167 C 
ATOM     27  C   UNL     1       9.937   1.645  22.007  0.00  0.00    +0.051 C 
ENDBRANCH  24  26
ENDBRANCH  17  24
ENDBRANCH  16  21
ENDBRANCH  15  16
ENDBRANCH   1  15
TORSDOF 7
ENDMDL
