MODEL 1
REMARK VINA RESULT:      -7.0      0.000      0.000
REMARK  Name = 
REMARK  5 active torsions:
REMARK  status: ('A' for Active; 'I' for Inactive)
REMARK    1  A    between atoms: N_1  and  C_2
REMARK    2  A    between atoms: C_2  and  C_4
REMARK    3  A    between atoms: C_2  and  C_17
REMARK    4  A    between atoms: C_13  and  C_15
REMARK    5  A    between atoms: C_23  and  O_24
REMARK                            x       y       z     vdW  Elec       q    Type
REMARK                         _______ _______ _______ _____ _____    ______ ____
ROOT
ATOM      1  C   UNL     1       8.830  -2.645  24.155  0.00  0.00    +0.144 C 
ENDROOT
BRANCH   1   2
ATOM      2  C   UNL     1       8.922  -1.172  23.740  0.00  0.00    -0.002 C 
ATOM      3  C   UNL     1       9.881  -0.947  22.558  0.00  0.00    +0.012 C 
ATOM      4  C   UNL     1       9.929   0.543  22.196  0.00  0.00    -0.007 C 
ATOM      5  C   UNL     1       8.516   1.017  21.814  0.00  0.00    +0.038 C 
ATOM      6  C   UNL     1       7.557   0.835  23.001  0.00  0.00    +0.067 C 
ATOM      7  C   UNL     1       8.064   1.641  24.207  0.00  0.00    +0.038 C 
ATOM      8  C   UNL     1       9.470   1.163  24.599  0.00  0.00    -0.007 C 
ATOM      9  C   UNL     1      10.429   1.341  23.412  0.00  0.00    +0.007 C 
ATOM     10  C   UNL     1       7.507  -0.652  23.366  0.00  0.00    +0.043 C 
ATOM     11  C   UNL     1       9.411  -0.325  24.959  0.00  0.00    +0.012 C 
BRANCH   6  12
ATOM     12  O   UNL     1       6.245   1.249  22.650  0.00  0.00    -0.389 OA
ATOM     13  H   UNL     1       6.194   1.282  21.679  0.00  0.00    +0.210 HD
ENDBRANCH   6  12
ENDBRANCH   1   2
BRANCH   1  14
ATOM     14  C   UNL     1       7.710  -3.471  23.435  0.00  0.00    +0.234 C 
ATOM     15  N   UNL     1       6.586  -3.863  24.147  0.00  0.00    -0.281 N 
ATOM     16  C   UNL     1       6.491  -4.158  25.598  0.00  0.00    +0.179 C 
ATOM     17  C   UNL     1       5.673  -5.456  25.693  0.00  0.00    +0.043 C 
ATOM     18  C   UNL     1       4.803  -5.428  24.465  0.00  0.00    +0.014 C 
ATOM     19  C   UNL     1       5.320  -5.901  23.135  0.00  0.00    +0.028 C 
ATOM     20  C   UNL     1       5.439  -4.454  23.494  0.00  0.00    +0.081 C 
ATOM     21  O   UNL     1       7.833  -3.751  22.237  0.00  0.00    -0.274 OA
BRANCH  16  22
ATOM     22  C   UNL     1       7.850  -4.280  26.267  0.00  0.00    +0.085 C 
ATOM     23  N   UNL     1       8.977  -4.381  26.823  0.00  0.00    -0.195 NA
ENDBRANCH  16  22
ENDBRANCH   1  14
BRANCH   1  24
ATOM     24  N   UNL     1      10.102  -3.387  24.072  0.00  0.00    -0.319 NA
ATOM     25  H   UNL     1      10.191  -3.979  24.903  0.00  0.00    +0.119 HD
ATOM     26  H   UNL     1      10.051  -4.026  23.282  0.00  0.00    +0.119 HD
ENDBRANCH   1  24
TORSDOF 5
ENDMDL
MODEL 2
REMARK VINA RESULT:      -6.9      2.185      6.038
REMARK  Name = 
REMARK  5 active torsions:
REMARK  status: ('A' for Active; 'I' for Inactive)
REMARK    1  A    between atoms: N_1  and  C_2
REMARK    2  A    between atoms: C_2  and  C_4
REMARK    3  A    between atoms: C_2  and  C_17
REMARK    4  A    between atoms: C_13  and  C_15
REMARK    5  A    between atoms: C_23  and  O_24
REMARK                            x       y       z     vdW  Elec       q    Type
REMARK                         _______ _______ _______ _____ _____    ______ ____
ROOT
ATOM      1  C   UNL     1       8.530  -1.021  25.307  0.00  0.00    +0.144 C 
ENDROOT
BRANCH   1   2
ATOM      2  C   UNL     1       8.113  -2.497  25.257  0.00  0.00    -0.002 C 
ATOM      3  C   UNL     1       7.247  -2.827  24.030  0.00  0.00    +0.012 C 
ATOM      4  C   UNL     1       6.863  -4.312  24.043  0.00  0.00    -0.007 C 
ATOM      5  C   UNL     1       8.143  -5.166  24.018  0.00  0.00    +0.038 C 
ATOM      6  C   UNL     1       8.998  -4.874  25.261  0.00  0.00    +0.067 C 
ATOM      7  C   UNL     1       8.193  -5.186  26.531  0.00  0.00    +0.038 C 
ATOM      8  C   UNL     1       6.920  -4.327  26.566  0.00  0.00    -0.007 C 
ATOM      9  C   UNL     1       6.066  -4.616  25.322  0.00  0.00    +0.007 C 
ATOM     10  C   UNL     1       9.383  -3.392  25.253  0.00  0.00    +0.043 C 
ATOM     11  C   UNL     1       7.315  -2.847  26.554  0.00  0.00    +0.012 C 
BRANCH   6  12
ATOM     12  O   UNL     1      10.193  -5.642  25.236  0.00  0.00    -0.389 OA
ATOM     13  H   UNL     1       9.994  -6.485  24.794  0.00  0.00    +0.210 HD
ENDBRANCH   6  12
ENDBRANCH   1   2
BRANCH   1  14
ATOM     14  C   UNL     1       7.627  -0.046  24.478  0.00  0.00    +0.234 C 
ATOM     15  N   UNL     1       8.035   0.356  23.214  0.00  0.00    -0.281 N 
ATOM     16  C   UNL     1       9.424   0.511  22.719  0.00  0.00    +0.179 C 
ATOM     17  C   UNL     1       9.437   1.850  21.965  0.00  0.00    +0.043 C 
ATOM     18  C   UNL     1       8.020   2.010  21.485  0.00  0.00    +0.014 C 
ATOM     19  C   UNL     1       6.954   2.574  22.383  0.00  0.00    +0.028 C 
ATOM     20  C   UNL     1       7.160   1.093  22.330  0.00  0.00    +0.081 C 
ATOM     21  O   UNL     1       6.553   0.342  24.953  0.00  0.00    -0.274 OA
BRANCH  16  22
ATOM     22  C   UNL     1      10.458   0.463  23.832  0.00  0.00    +0.085 C 
ATOM     23  N   UNL     1      11.315   0.423  24.755  0.00  0.00    -0.195 NA
ENDBRANCH  16  22
ENDBRANCH   1  14
BRANCH   1  24
ATOM     24  N   UNL     1       8.703  -0.478  26.666  0.00  0.00    -0.319 NA
ATOM     25  H   UNL     1       7.846   0.016  26.934  0.00  0.00    +0.119 HD
ATOM     26  H   UNL     1       8.788  -1.257  27.316  0.00  0.00    +0.119 HD
ENDBRANCH   1  24
TORSDOF 5
ENDMDL
MODEL 3
REMARK VINA RESULT:      -6.8      2.097      3.307
REMARK  Name = 
REMARK  5 active torsions:
REMARK  status: ('A' for Active; 'I' for Inactive)
REMARK    1  A    between atoms: N_1  and  C_2
REMARK    2  A    between atoms: C_2  and  C_4
REMARK    3  A    between atoms: C_2  and  C_17
REMARK    4  A    between atoms: C_13  and  C_15
REMARK    5  A    between atoms: C_23  and  O_24
REMARK                            x       y       z     vdW  Elec       q    Type
REMARK                         _______ _______ _______ _____ _____    ______ ____
ROOT
ATOM      1  C   UNL     1       6.878  -0.873  23.981  0.00  0.00    +0.144 C 
ENDROOT
BRANCH   1   2
ATOM      2  C   UNL     1       7.773   0.306  23.577  0.00  0.00    -0.002 C 
ATOM      3  C   UNL     1       7.403   0.887  22.202  0.00  0.00    +0.012 C 
ATOM      4  C   UNL     1       8.335   2.056  21.858  0.00  0.00    -0.007 C 
ATOM      5  C   UNL     1       8.197   3.147  22.935  0.00  0.00    +0.038 C 
ATOM      6  C   UNL     1       8.603   2.589  24.308  0.00  0.00    +0.067 C 
ATOM      7  C   UNL     1      10.055   2.091  24.259  0.00  0.00    +0.038 C 
ATOM      8  C   UNL     1      10.195   0.994  23.194  0.00  0.00    -0.007 C 
ATOM      9  C   UNL     1       9.787   1.549  21.821  0.00  0.00    +0.007 C 
ATOM     10  C   UNL     1       7.675   1.420  24.655  0.00  0.00    +0.043 C 
ATOM     11  C   UNL     1       9.261  -0.169  23.547  0.00  0.00    +0.012 C 
BRANCH   6  12
ATOM     12  O   UNL     1       8.457   3.582  25.313  0.00  0.00    -0.389 OA
ATOM     13  H   UNL     1       7.528   3.578  25.602  0.00  0.00    +0.210 HD
ENDBRANCH   6  12
ENDBRANCH   1   2
BRANCH   1  14
ATOM     14  C   UNL     1       7.519  -1.878  24.997  0.00  0.00    +0.234 C 
ATOM     15  N   UNL     1       8.171  -3.007  24.523  0.00  0.00    -0.281 N 
ATOM     16  C   UNL     1       7.887  -3.759  23.276  0.00  0.00    +0.179 C 
ATOM     17  C   UNL     1       7.912  -5.241  23.684  0.00  0.00    +0.043 C 
ATOM     18  C   UNL     1       8.847  -5.277  24.862  0.00  0.00    +0.014 C 
ATOM     19  C   UNL     1       8.366  -4.948  26.248  0.00  0.00    +0.028 C 
ATOM     20  C   UNL     1       8.944  -3.863  25.396  0.00  0.00    +0.081 C 
ATOM     21  O   UNL     1       7.450  -1.646  26.210  0.00  0.00    -0.274 OA
BRANCH  16  22
ATOM     22  C   UNL     1       6.571  -3.358  22.630  0.00  0.00    +0.085 C 
ATOM     23  N   UNL     1       5.480  -3.026  22.094  0.00  0.00    -0.195 NA
ENDBRANCH  16  22
ENDBRANCH   1  14
BRANCH   1  24
ATOM     24  N   UNL     1       5.538  -0.490  24.463  0.00  0.00    -0.319 NA
ATOM     25  H   UNL     1       4.918  -1.302  24.389  0.00  0.00    +0.119 HD
ATOM     26  H   UNL     1       5.602  -0.281  25.458  0.00  0.00    +0.119 HD
ENDBRANCH   1  24
TORSDOF 5
ENDMDL
MODEL 4
REMARK VINA RESULT:      -6.8      1.509      2.038
REMARK  Name = 
REMARK  5 active torsions:
REMARK  status: ('A' for Active; 'I' for Inactive)
REMARK    1  A    between atoms: N_1  and  C_2
REMARK    2  A    between atoms: C_2  and  C_4
REMARK    3  A    between atoms: C_2  and  C_17
REMARK    4  A    between atoms: C_13  and  C_15
REMARK    5  A    between atoms: C_23  and  O_24
REMARK                            x       y       z     vdW  Elec       q    Type
REMARK                         _______ _______ _______ _____ _____    ______ ____
ROOT
ATOM      1  C   UNL     1       7.935  -2.349  24.806  0.00  0.00    +0.144 C 
ENDROOT
BRANCH   1   2
ATOM      2  C   UNL     1       8.631  -1.109  24.231  0.00  0.00    -0.002 C 
ATOM      3  C   UNL     1       9.921  -1.454  23.468  0.00  0.00    +0.012 C 
ATOM      4  C   UNL     1      10.568  -0.174  22.924  0.00  0.00    -0.007 C 
ATOM      5  C   UNL     1       9.579   0.530  21.978  0.00  0.00    +0.038 C 
ATOM      6  C   UNL     1       8.301   0.916  22.740  0.00  0.00    +0.067 C 
ATOM      7  C   UNL     1       8.654   1.850  23.907  0.00  0.00    +0.038 C 
ATOM      8  C   UNL     1       9.632   1.147  24.860  0.00  0.00    -0.007 C 
ATOM      9  C   UNL     1      10.909   0.757  24.100  0.00  0.00    +0.007 C 
ATOM     10  C   UNL     1       7.653  -0.360  23.286  0.00  0.00    +0.043 C 
ATOM     11  C   UNL     1       8.977  -0.129  25.399  0.00  0.00    +0.012 C 
BRANCH   6  12
ATOM     12  O   UNL     1       7.373   1.546  21.869  0.00  0.00    -0.389 OA
ATOM     13  H   UNL     1       7.652   2.472  21.758  0.00  0.00    +0.210 HD
ENDBRANCH   6  12
ENDBRANCH   1   2
BRANCH   1  14
ATOM     14  C   UNL     1       8.038  -3.640  23.923  0.00  0.00    +0.234 C 
ATOM     15  N   UNL     1       7.053  -3.904  22.982  0.00  0.00    -0.281 N 
ATOM     16  C   UNL     1       5.622  -3.518  23.037  0.00  0.00    +0.179 C 
ATOM     17  C   UNL     1       4.848  -4.775  22.610  0.00  0.00    +0.043 C 
ATOM     18  C   UNL     1       5.809  -5.506  21.711  0.00  0.00    +0.014 C 
ATOM     19  C   UNL     1       6.873  -6.404  22.277  0.00  0.00    +0.028 C 
ATOM     20  C   UNL     1       7.193  -4.967  22.012  0.00  0.00    +0.081 C 
ATOM     21  O   UNL     1       9.003  -4.400  24.064  0.00  0.00    -0.274 OA
BRANCH  16  22
ATOM     22  C   UNL     1       5.197  -3.013  24.406  0.00  0.00    +0.085 C 
ATOM     23  N   UNL     1       4.845  -2.595  25.542  0.00  0.00    -0.195 NA
ENDBRANCH  16  22
ENDBRANCH   1  14
BRANCH   1  24
ATOM     24  N   UNL     1       8.318  -2.683  26.190  0.00  0.00    -0.319 NA
ATOM     25  H   UNL     1       9.048  -2.031  26.495  0.00  0.00    +0.119 HD
ATOM     26  H   UNL     1       7.519  -2.505  26.796  0.00  0.00    +0.119 HD
ENDBRANCH   1  24
TORSDOF 5
ENDMDL
MODEL 5
REMARK VINA RESULT:      -6.7      1.982      2.611
REMARK  Name = 
REMARK  5 active torsions:
REMARK  status: ('A' for Active; 'I' for Inactive)
REMARK    1  A    between atoms: N_1  and  C_2
REMARK    2  A    between atoms: C_2  and  C_4
REMARK    3  A    between atoms: C_2  and  C_17
REMARK    4  A    between atoms: C_13  and  C_15
REMARK    5  A    between atoms: C_23  and  O_24
REMARK                            x       y       z     vdW  Elec       q    Type
REMARK                         _______ _______ _______ _____ _____    ______ ____
ROOT
ATOM      1  C   UNL     1       8.470  -0.447  25.202  0.00  0.00    +0.144 C 
ENDROOT
BRANCH   1   2
ATOM      2  C   UNL     1       8.813   0.770  24.333  0.00  0.00    -0.002 C 
ATOM      3  C   UNL     1      10.276   1.218  24.492  0.00  0.00    +0.012 C 
ATOM      4  C   UNL     1      10.551   2.437  23.603  0.00  0.00    -0.007 C 
ATOM      5  C   UNL     1      10.281   2.063  22.134  0.00  0.00    +0.038 C 
ATOM      6  C   UNL     1       8.811   1.652  21.955  0.00  0.00    +0.067 C 
ATOM      7  C   UNL     1       7.892   2.811  22.371  0.00  0.00    +0.038 C 
ATOM      8  C   UNL     1       8.151   3.179  23.839  0.00  0.00    -0.007 C 
ATOM      9  C   UNL     1       9.620   3.588  24.021  0.00  0.00    +0.007 C 
ATOM     10  C   UNL     1       8.531   0.436  22.843  0.00  0.00    +0.043 C 
ATOM     11  C   UNL     1       7.872   1.957  24.719  0.00  0.00    +0.012 C 
BRANCH   6  12
ATOM     12  O   UNL     1       8.557   1.283  20.607  0.00  0.00    -0.389 OA
ATOM     13  H   UNL     1       7.965   0.512  20.617  0.00  0.00    +0.210 HD
ENDBRANCH   6  12
ENDBRANCH   1   2
BRANCH   1  14
ATOM     14  C   UNL     1       8.669  -1.837  24.508  0.00  0.00    +0.234 C 
ATOM     15  N   UNL     1       7.564  -2.524  24.024  0.00  0.00    -0.281 N 
ATOM     16  C   UNL     1       6.174  -2.481  24.541  0.00  0.00    +0.179 C 
ATOM     17  C   UNL     1       5.714  -3.947  24.580  0.00  0.00    +0.043 C 
ATOM     18  C   UNL     1       6.517  -4.609  23.494  0.00  0.00    +0.014 C 
ATOM     19  C   UNL     1       7.920  -5.088  23.747  0.00  0.00    +0.028 C 
ATOM     20  C   UNL     1       7.702  -3.709  23.208  0.00  0.00    +0.081 C 
ATOM     21  O   UNL     1       9.809  -2.301  24.386  0.00  0.00    -0.274 OA
BRANCH  16  22
ATOM     22  C   UNL     1       6.068  -1.804  25.898  0.00  0.00    +0.085 C 
ATOM     23  N   UNL     1       5.980  -1.244  27.024  0.00  0.00    -0.195 NA
ENDBRANCH  16  22
ENDBRANCH   1  14
BRANCH   1  24
ATOM     24  N   UNL     1       9.133  -0.468  26.519  0.00  0.00    -0.319 NA
ATOM     25  H   UNL     1       8.810   0.339  27.062  0.00  0.00    +0.119 HD
ATOM     26  H   UNL     1       8.812  -1.289  27.027  0.00  0.00    +0.119 HD
ENDBRANCH   1  24
TORSDOF 5
ENDMDL
MODEL 6
REMARK VINA RESULT:      -6.7      1.989      3.043
REMARK  Name = 
REMARK  5 active torsions:
REMARK  status: ('A' for Active; 'I' for Inactive)
REMARK    1  A    between atoms: N_1  and  C_2
REMARK    2  A    between atoms: C_2  and  C_4
REMARK    3  A    between atoms: C_2  and  C_17
REMARK    4  A    between atoms: C_13  and  C_15
REMARK    5  A    between atoms: C_23  and  O_24
REMARK                            x       y       z     vdW  Elec       q    Type
REMARK                         _______ _______ _______ _____ _____    ______ ____
ROOT
ATOM      1  C   UNL     1       6.913  -0.894  24.060  0.00  0.00    +0.144 C 
ENDROOT
BRANCH   1   2
ATOM      2  C   UNL     1       7.851   0.253  23.662  0.00  0.00    -0.002 C 
ATOM      3  C   UNL     1       9.045  -0.224  22.818  0.00  0.00    +0.012 C 
ATOM      4  C   UNL     1       9.943   0.966  22.457  0.00  0.00    -0.007 C 
ATOM      5  C   UNL     1       9.122   1.995  21.659  0.00  0.00    +0.038 C 
ATOM      6  C   UNL     1       7.949   2.510  22.508  0.00  0.00    +0.067 C 
ATOM      7  C   UNL     1       8.482   3.159  23.794  0.00  0.00    +0.038 C 
ATOM      8  C   UNL     1       9.292   2.132  24.599  0.00  0.00    -0.007 C 
ATOM      9  C   UNL     1      10.464   1.614  23.751  0.00  0.00    +0.007 C 
ATOM     10  C   UNL     1       7.051   1.323  22.871  0.00  0.00    +0.043 C 
ATOM     11  C   UNL     1       8.387   0.948  24.955  0.00  0.00    +0.012 C 
BRANCH   6  12
ATOM     12  O   UNL     1       7.172   3.443  21.771  0.00  0.00    -0.389 OA
ATOM     13  H   UNL     1       7.040   4.227  22.332  0.00  0.00    +0.210 HD
ENDBRANCH   6  12
ENDBRANCH   1   2
BRANCH   1  14
ATOM     14  C   UNL     1       7.505  -1.909  25.096  0.00  0.00    +0.234 C 
ATOM     15  N   UNL     1       8.189  -3.028  24.642  0.00  0.00    -0.281 N 
ATOM     16  C   UNL     1       7.978  -3.764  23.372  0.00  0.00    +0.179 C 
ATOM     17  C   UNL     1       7.991  -5.251  23.760  0.00  0.00    +0.043 C 
ATOM     18  C   UNL     1       8.862  -5.298  24.987  0.00  0.00    +0.014 C 
ATOM     19  C   UNL     1       8.304  -4.991  26.348  0.00  0.00    +0.028 C 
ATOM     20  C   UNL     1       8.920  -3.891  25.544  0.00  0.00    +0.081 C 
ATOM     21  O   UNL     1       7.370  -1.694  26.306  0.00  0.00    -0.274 OA
BRANCH  16  22
ATOM     22  C   UNL     1       6.697  -3.362  22.661  0.00  0.00    +0.085 C 
ATOM     23  N   UNL     1       5.634  -3.029  22.071  0.00  0.00    -0.195 NA
ENDBRANCH  16  22
ENDBRANCH   1  14
BRANCH   1  24
ATOM     24  N   UNL     1       5.578  -0.465  24.516  0.00  0.00    -0.319 NA
ATOM     25  H   UNL     1       4.879  -1.114  24.142  0.00  0.00    +0.119 HD
ATOM     26  H   UNL     1       5.536  -0.567  25.528  0.00  0.00    +0.119 HD
ENDBRANCH   1  24
TORSDOF 5
ENDMDL
MODEL 7
REMARK VINA RESULT:      -6.7      1.869      2.762
REMARK  Name = 
REMARK  5 active torsions:
REMARK  status: ('A' for Active; 'I' for Inactive)
REMARK    1  A    between atoms: N_1  and  C_2
REMARK    2  A    between atoms: C_2  and  C_4
REMARK    3  A    between atoms: C_2  and  C_17
REMARK    4  A    between atoms: C_13  and  C_15
REMARK    5  A    between atoms: C_23  and  O_24
REMARK                            x       y       z     vdW  Elec       q    Type
REMARK                         _______ _______ _______ _____ _____    ______ ____
ROOT
ATOM      1  C   UNL     1       7.703  -3.043  23.492  0.00  0.00    +0.144 C 
ENDROOT
BRANCH   1   2
ATOM      2  C   UNL     1       8.229  -1.611  23.334  0.00  0.00    -0.002 C 
ATOM      3  C   UNL     1       7.105  -0.589  23.097  0.00  0.00    +0.012 C 
ATOM      4  C   UNL     1       7.697   0.818  22.944  0.00  0.00    -0.007 C 
ATOM      5  C   UNL     1       8.469   1.184  24.225  0.00  0.00    +0.038 C 
ATOM      6  C   UNL     1       9.621   0.193  24.450  0.00  0.00    +0.067 C 
ATOM      7  C   UNL     1      10.574   0.221  23.246  0.00  0.00    +0.038 C 
ATOM      8  C   UNL     1       9.811  -0.155  21.968  0.00  0.00    -0.007 C 
ATOM      9  C   UNL     1       8.657   0.833  21.742  0.00  0.00    +0.007 C 
ATOM     10  C   UNL     1       9.034  -1.214  24.601  0.00  0.00    +0.043 C 
ATOM     11  C   UNL     1       9.225  -1.561  22.130  0.00  0.00    +0.012 C 
BRANCH   6  12
ATOM     12  O   UNL     1      10.325   0.509  25.642  0.00  0.00    -0.389 OA
ATOM     13  H   UNL     1       9.758   0.268  26.394  0.00  0.00    +0.210 HD
ENDBRANCH   6  12
ENDBRANCH   1   2
BRANCH   1  14
ATOM     14  C   UNL     1       6.450  -3.193  24.420  0.00  0.00    +0.234 C 
ATOM     15  N   UNL     1       6.627  -3.487  25.765  0.00  0.00    -0.281 N 
ATOM     16  C   UNL     1       7.733  -4.259  26.384  0.00  0.00    +0.179 C 
ATOM     17  C   UNL     1       7.051  -5.213  27.377  0.00  0.00    +0.043 C 
ATOM     18  C   UNL     1       5.792  -4.489  27.771  0.00  0.00    +0.014 C 
ATOM     19  C   UNL     1       4.555  -4.561  26.919  0.00  0.00    +0.028 C 
ATOM     20  C   UNL     1       5.529  -3.446  26.704  0.00  0.00    +0.081 C 
ATOM     21  O   UNL     1       5.318  -3.032  23.949  0.00  0.00    -0.274 OA
BRANCH  16  22
ATOM     22  C   UNL     1       8.584  -4.997  25.363  0.00  0.00    +0.085 C 
ATOM     23  N   UNL     1       9.290  -5.608  24.517  0.00  0.00    -0.195 NA
ENDBRANCH  16  22
ENDBRANCH   1  14
BRANCH   1  24
ATOM     24  N   UNL     1       7.447  -3.747  22.222  0.00  0.00    -0.319 NA
ATOM     25  H   UNL     1       6.472  -3.587  21.949  0.00  0.00    +0.119 HD
ATOM     26  H   UNL     1       8.012  -3.313  21.494  0.00  0.00    +0.119 HD
ENDBRANCH   1  24
TORSDOF 5
ENDMDL
MODEL 8
REMARK VINA RESULT:      -6.6      1.142      1.964
REMARK  Name = 
REMARK  5 active torsions:
REMARK  status: ('A' for Active; 'I' for Inactive)
REMARK    1  A    between atoms: N_1  and  C_2
REMARK    2  A    between atoms: C_2  and  C_4
REMARK    3  A    between atoms: C_2  and  C_17
REMARK    4  A    between atoms: C_13  and  C_15
REMARK    5  A    between atoms: C_23  and  O_24
REMARK                            x       y       z     vdW  Elec       q    Type
REMARK                         _______ _______ _______ _____ _____    ______ ____
ROOT
ATOM      1  C   UNL     1       8.802  -2.170  23.910  0.00  0.00    +0.144 C 
ENDROOT
BRANCH   1   2
ATOM      2  C   UNL     1       8.611  -0.652  23.801  0.00  0.00    -0.002 C 
ATOM      3  C   UNL     1       8.913   0.079  25.120  0.00  0.00    +0.012 C 
ATOM      4  C   UNL     1       8.700   1.588  24.945  0.00  0.00    -0.007 C 
ATOM      5  C   UNL     1       9.638   2.106  23.839  0.00  0.00    +0.038 C 
ATOM      6  C   UNL     1       9.318   1.411  22.506  0.00  0.00    +0.067 C 
ATOM      7  C   UNL     1       7.858   1.683  22.115  0.00  0.00    +0.038 C 
ATOM      8  C   UNL     1       6.919   1.157  23.210  0.00  0.00    -0.007 C 
ATOM      9  C   UNL     1       7.238   1.848  24.544  0.00  0.00    +0.007 C 
ATOM     10  C   UNL     1       9.528  -0.096  22.678  0.00  0.00    +0.043 C 
ATOM     11  C   UNL     1       7.138  -0.350  23.377  0.00  0.00    +0.012 C 
BRANCH   6  12
ATOM     12  O   UNL     1      10.194   1.867  21.485  0.00  0.00    -0.389 OA
ATOM     13  H   UNL     1      10.792   1.134  21.259  0.00  0.00    +0.210 HD
ENDBRANCH   6  12
ENDBRANCH   1   2
BRANCH   1  14
ATOM     14  C   UNL     1       7.794  -3.029  23.073  0.00  0.00    +0.234 C 
ATOM     15  N   UNL     1       6.701  -3.608  23.703  0.00  0.00    -0.281 N 
ATOM     16  C   UNL     1       6.604  -4.059  25.113  0.00  0.00    +0.179 C 
ATOM     17  C   UNL     1       5.928  -5.438  25.049  0.00  0.00    +0.043 C 
ATOM     18  C   UNL     1       5.089  -5.374  23.801  0.00  0.00    +0.014 C 
ATOM     19  C   UNL     1       5.685  -5.651  22.449  0.00  0.00    +0.028 C 
ATOM     20  C   UNL     1       5.640  -4.244  22.955  0.00  0.00    +0.081 C 
ATOM     21  O   UNL     1       7.974  -3.170  21.858  0.00  0.00    -0.274 OA
BRANCH  16  22
ATOM     22  C   UNL     1       7.952  -4.107  25.813  0.00  0.00    +0.085 C 
ATOM     23  N   UNL     1       9.070  -4.148  26.394  0.00  0.00    -0.195 NA
ENDBRANCH  16  22
ENDBRANCH   1  14
BRANCH   1  24
ATOM     24  N   UNL     1      10.173  -2.638  23.637  0.00  0.00    -0.319 NA
ATOM     25  H   UNL     1      10.320  -3.527  24.125  0.00  0.00    +0.119 HD
ATOM     26  H   UNL     1      10.249  -2.851  22.645  0.00  0.00    +0.119 HD
ENDBRANCH   1  24
TORSDOF 5
ENDMDL
MODEL 9
REMARK VINA RESULT:      -6.6      1.763      2.188
REMARK  Name = 
REMARK  5 active torsions:
REMARK  status: ('A' for Active; 'I' for Inactive)
REMARK    1  A    between atoms: N_1  and  C_2
REMARK    2  A    between atoms: C_2  and  C_4
REMARK    3  A    between atoms: C_2  and  C_17
REMARK    4  A    between atoms: C_13  and  C_15
REMARK    5  A    between atoms: C_23  and  O_24
REMARK                            x       y       z     vdW  Elec       q    Type
REMARK                         _______ _______ _______ _____ _____    ______ ____
ROOT
ATOM      1  C   UNL     1       7.991  -1.337  24.513  0.00  0.00    +0.144 C 
ENDROOT
BRANCH   1   2
ATOM      2  C   UNL     1       8.366  -0.050  23.769  0.00  0.00    -0.002 C 
ATOM      3  C   UNL     1       8.605  -0.281  22.267  0.00  0.00    +0.012 C 
ATOM      4  C   UNL     1       8.978   1.041  21.584  0.00  0.00    -0.007 C 
ATOM      5  C   UNL     1       7.832   2.050  21.777  0.00  0.00    +0.038 C 
ATOM      6  C   UNL     1       7.611   2.321  23.273  0.00  0.00    +0.067 C 
ATOM      7  C   UNL     1       8.900   2.876  23.898  0.00  0.00    +0.038 C 
ATOM      8  C   UNL     1      10.043   1.867  23.718  0.00  0.00    -0.007 C 
ATOM      9  C   UNL     1      10.264   1.592  22.223  0.00  0.00    +0.007 C 
ATOM     10  C   UNL     1       7.240   1.003  23.959  0.00  0.00    +0.043 C 
ATOM     11  C   UNL     1       9.661   0.551  24.404  0.00  0.00    +0.012 C 
BRANCH   6  12
ATOM     12  O   UNL     1       6.540   3.235  23.461  0.00  0.00    -0.389 OA
ATOM     13  H   UNL     1       6.918   4.131  23.497  0.00  0.00    +0.210 HD
ENDBRANCH   6  12
ENDBRANCH   1   2
BRANCH   1  14
ATOM     14  C   UNL     1       8.156  -2.657  23.685  0.00  0.00    +0.234 C 
ATOM     15  N   UNL     1       7.088  -3.134  22.939  0.00  0.00    -0.281 N 
ATOM     16  C   UNL     1       5.641  -2.966  23.221  0.00  0.00    +0.179 C 
ATOM     17  C   UNL     1       5.021  -4.353  22.990  0.00  0.00    +0.043 C 
ATOM     18  C   UNL     1       5.929  -4.992  21.974  0.00  0.00    +0.014 C 
ATOM     19  C   UNL     1       7.201  -5.677  22.390  0.00  0.00    +0.028 C 
ATOM     20  C   UNL     1       7.238  -4.231  22.009  0.00  0.00    +0.081 C 
ATOM     21  O   UNL     1       9.241  -3.251  23.693  0.00  0.00    -0.274 OA
BRANCH  16  22
ATOM     22  C   UNL     1       5.368  -2.435  24.618  0.00  0.00    +0.085 C 
ATOM     23  N   UNL     1       5.141  -1.994  25.777  0.00  0.00    -0.195 NA
ENDBRANCH  16  22
ENDBRANCH   1  14
BRANCH   1  24
ATOM     24  N   UNL     1       8.651  -1.505  25.821  0.00  0.00    -0.319 NA
ATOM     25  H   UNL     1       7.937  -1.718  26.524  0.00  0.00    +0.119 HD
ATOM     26  H   UNL     1       9.249  -2.328  25.776  0.00  0.00    +0.119 HD
ENDBRANCH   1  24
TORSDOF 5
ENDMDL
