MODEL 1
REMARK VINA RESULT:      -8.0      0.000      0.000
REMARK  Name = 
REMARK  3 active torsions:
REMARK  status: ('A' for Active; 'I' for Inactive)
REMARK    1  A    between atoms: C_3  and  N_4
REMARK    2  A    between atoms: N_8  and  C_9
REMARK    3  A    between atoms: C_11  and  N_15
REMARK                            x       y       z     vdW  Elec       q    Type
REMARK                         _______ _______ _______ _____ _____    ______ ____
ROOT
ATOM      1  N   UNL     1       6.784  -3.315  26.732  0.00  0.00    -0.295 N 
ATOM      2  H   UNL     1       6.623  -2.770  27.572  0.00  0.00    +0.154 HD
ATOM      3  C   UNL     1       7.651  -2.663  25.847  0.00  0.00    +0.128 A 
ATOM      4  C   UNL     1       8.164  -3.302  24.737  0.00  0.00    +0.063 A 
ATOM      5  C   UNL     1       8.903  -2.537  23.877  0.00  0.00    +0.118 A 
ATOM      6  N   UNL     1       9.173  -1.250  24.099  0.00  0.00    -0.223 NA
ATOM      7  C   UNL     1       8.714  -0.709  25.237  0.00  0.00    +0.221 A 
ATOM      8  N   UNL     1       9.033   0.608  25.559  0.00  0.00    -0.284 N 
ATOM      9  H   UNL     1       8.749   0.821  26.502  0.00  0.00    +0.155 HD
ATOM     10  N   UNL     1       7.974  -1.388  26.135  0.00  0.00    -0.199 NA
ENDROOT
BRANCH   1  20
ATOM     11 CL   UNL     1       4.594  -3.385  24.379  0.00  0.00    -0.081 Cl
ATOM     12  C   UNL     1       5.040  -4.637  25.494  0.00  0.00    +0.066 A 
ATOM     13  C   UNL     1       4.353  -5.861  25.336  0.00  0.00    +0.025 A 
ATOM     14  C   UNL     1       4.484  -6.880  26.276  0.00  0.00    +0.051 A 
ATOM     15  C   UNL     1       5.269  -6.624  27.376  0.00  0.00    +0.168 A 
ATOM     16  O   UNL     1       5.458  -7.476  28.418  0.00  0.00    -0.453 OA
ATOM     17  C   UNL     1       6.264  -6.661  29.291  0.00  0.00    +0.466 C 
ATOM     18  O   UNL     1       6.677  -5.417  28.687  0.00  0.00    -0.451 OA
ATOM     19  C   UNL     1       5.962  -5.439  27.522  0.00  0.00    +0.189 A 
ATOM     20  C   UNL     1       5.925  -4.417  26.574  0.00  0.00    +0.097 A 
ENDBRANCH   1  20
BRANCH   8  21
ATOM     21  C   UNL     1       9.440   1.685  24.758  0.00  0.00    +0.035 A 
ATOM     22  C   UNL     1      10.681   1.745  24.121  0.00  0.00    +0.023 A 
ATOM     23  C   UNL     1      11.054   2.867  23.382  0.00  0.00    +0.004 A 
ATOM     24  C   UNL     1      10.188   3.955  23.271  0.00  0.00    +0.023 A 
ATOM     25  C   UNL     1       8.932   3.948  23.883  0.00  0.00    +0.032 A 
ATOM     26  C   UNL     1       8.599   2.805  24.640  0.00  0.00    +0.046 A 
BRANCH  25  27
ATOM     27  N   UNL     1       8.044   4.996  23.756  0.00  0.00    -0.325 N 
ATOM     28  C   UNL     1       6.660   4.880  24.243  0.00  0.00    +0.133 C 
ATOM     29  C   UNL     1       5.683   5.134  23.086  0.00  0.00    +0.178 C 
ATOM     30  O   UNL     1       5.924   6.403  22.458  0.00  0.00    -0.377 OA
ATOM     31  C   UNL     1       7.254   6.439  21.914  0.00  0.00    +0.178 C 
ATOM     32  C   UNL     1       8.322   6.223  22.997  0.00  0.00    +0.133 C 
ENDBRANCH  25  27
ENDBRANCH   8  21
TORSDOF 3
ENDMDL
MODEL 2
REMARK VINA RESULT:      -8.0      2.902      9.950
REMARK  Name = 
REMARK  3 active torsions:
REMARK  status: ('A' for Active; 'I' for Inactive)
REMARK    1  A    between atoms: C_3  and  N_4
REMARK    2  A    between atoms: N_8  and  C_9
REMARK    3  A    between atoms: C_11  and  N_15
REMARK                            x       y       z     vdW  Elec       q    Type
REMARK                         _______ _______ _______ _____ _____    ______ ____
ROOT
ATOM      1  N   UNL     1       9.250   3.119  23.075  0.00  0.00    -0.295 N 
ATOM      2  H   UNL     1       8.688   3.192  22.234  0.00  0.00    +0.154 HD
ATOM      3  C   UNL     1       9.423   1.788  23.472  0.00  0.00    +0.128 A 
ATOM      4  C   UNL     1      10.311   1.442  24.470  0.00  0.00    +0.063 A 
ATOM      5  C   UNL     1      10.314   0.131  24.860  0.00  0.00    +0.118 A 
ATOM      6  N   UNL     1       9.544  -0.798  24.290  0.00  0.00    -0.223 NA
ATOM      7  C   UNL     1       8.762  -0.412  23.270  0.00  0.00    +0.221 A 
ATOM      8  N   UNL     1       7.998  -1.355  22.586  0.00  0.00    -0.284 N 
ATOM      9  H   UNL     1       7.588  -0.947  21.761  0.00  0.00    +0.155 HD
ATOM     10  N   UNL     1       8.694   0.857  22.826  0.00  0.00    -0.199 NA
ENDROOT
BRANCH   1  20
ATOM     11 CL   UNL     1       6.823   4.776  24.379  0.00  0.00    -0.081 Cl
ATOM     12  C   UNL     1       8.529   5.074  24.482  0.00  0.00    +0.066 A 
ATOM     13  C   UNL     1       8.903   6.195  25.257  0.00  0.00    +0.025 A 
ATOM     14  C   UNL     1      10.220   6.648  25.269  0.00  0.00    +0.051 A 
ATOM     15  C   UNL     1      11.119   5.990  24.464  0.00  0.00    +0.168 A 
ATOM     16  O   UNL     1      12.424   6.333  24.305  0.00  0.00    -0.453 OA
ATOM     17  C   UNL     1      12.833   5.383  23.302  0.00  0.00    +0.466 C 
ATOM     18  O   UNL     1      11.825   4.393  23.011  0.00  0.00    -0.451 OA
ATOM     19  C   UNL     1      10.764   4.880  23.724  0.00  0.00    +0.189 A 
ATOM     20  C   UNL     1       9.479   4.341  23.735  0.00  0.00    +0.097 A 
ENDBRANCH   1  20
BRANCH   8  21
ATOM     21  C   UNL     1       7.543  -2.628  22.961  0.00  0.00    +0.035 A 
ATOM     22  C   UNL     1       7.568  -3.735  22.112  0.00  0.00    +0.023 A 
ATOM     23  C   UNL     1       7.050  -4.963  22.520  0.00  0.00    +0.004 A 
ATOM     24  C   UNL     1       6.491  -5.103  23.791  0.00  0.00    +0.023 A 
ATOM     25  C   UNL     1       6.444  -4.029  24.685  0.00  0.00    +0.032 A 
ATOM     26  C   UNL     1       6.958  -2.798  24.228  0.00  0.00    +0.046 A 
BRANCH  25  27
ATOM     27  N   UNL     1       5.930  -4.153  25.959  0.00  0.00    -0.325 N 
ATOM     28  C   UNL     1       6.817  -4.342  27.118  0.00  0.00    +0.133 C 
ATOM     29  C   UNL     1       6.444  -5.642  27.847  0.00  0.00    +0.178 C 
ATOM     30  O   UNL     1       5.058  -5.657  28.225  0.00  0.00    -0.377 OA
ATOM     31  C   UNL     1       4.227  -5.565  27.056  0.00  0.00    +0.178 C 
ATOM     32  C   UNL     1       4.497  -4.279  26.260  0.00  0.00    +0.133 C 
ENDBRANCH  25  27
ENDBRANCH   8  21
TORSDOF 3
ENDMDL
MODEL 3
REMARK VINA RESULT:      -7.7      2.714      9.781
REMARK  Name = 
REMARK  3 active torsions:
REMARK  status: ('A' for Active; 'I' for Inactive)
REMARK    1  A    between atoms: C_3  and  N_4
REMARK    2  A    between atoms: N_8  and  C_9
REMARK    3  A    between atoms: C_11  and  N_15
REMARK                            x       y       z     vdW  Elec       q    Type
REMARK                         _______ _______ _______ _____ _____    ______ ____
ROOT
ATOM      1  N   UNL     1       9.116   3.050  23.062  0.00  0.00    -0.295 N 
ATOM      2  H   UNL     1       8.556   3.112  22.218  0.00  0.00    +0.154 HD
ATOM      3  C   UNL     1       9.309   1.722  23.461  0.00  0.00    +0.128 A 
ATOM      4  C   UNL     1      10.199   1.392  24.463  0.00  0.00    +0.063 A 
ATOM      5  C   UNL     1      10.222   0.082  24.855  0.00  0.00    +0.118 A 
ATOM      6  N   UNL     1       9.470  -0.861  24.282  0.00  0.00    -0.223 NA
ATOM      7  C   UNL     1       8.686  -0.489  23.259  0.00  0.00    +0.221 A 
ATOM      8  N   UNL     1       7.941  -1.445  22.573  0.00  0.00    -0.284 N 
ATOM      9  H   UNL     1       7.527  -1.045  21.746  0.00  0.00    +0.155 HD
ATOM     10  N   UNL     1       8.599   0.779  22.814  0.00  0.00    -0.199 NA
ENDROOT
BRANCH   1  20
ATOM     11 CL   UNL     1      12.051   4.345  23.275  0.00  0.00    -0.081 Cl
ATOM     12  C   UNL     1      10.522   5.020  23.742  0.00  0.00    +0.066 A 
ATOM     13  C   UNL     1      10.575   6.326  24.278  0.00  0.00    +0.025 A 
ATOM     14  C   UNL     1       9.449   6.906  24.858  0.00  0.00    +0.051 A 
ATOM     15  C   UNL     1       8.309   6.140  24.923  0.00  0.00    +0.168 A 
ATOM     16  O   UNL     1       7.143   6.520  25.506  0.00  0.00    -0.453 OA
ATOM     17  C   UNL     1       6.364   5.316  25.365  0.00  0.00    +0.466 C 
ATOM     18  O   UNL     1       7.012   4.311  24.558  0.00  0.00    -0.451 OA
ATOM     19  C   UNL     1       8.246   4.873  24.378  0.00  0.00    +0.189 A 
ATOM     20  C   UNL     1       9.321   4.275  23.722  0.00  0.00    +0.097 A 
ENDBRANCH   1  20
BRANCH   8  21
ATOM     21  C   UNL     1       7.505  -2.725  22.947  0.00  0.00    +0.035 A 
ATOM     22  C   UNL     1       7.573  -3.837  22.108  0.00  0.00    +0.023 A 
ATOM     23  C   UNL     1       7.073  -5.074  22.514  0.00  0.00    +0.004 A 
ATOM     24  C   UNL     1       6.490  -5.217  23.773  0.00  0.00    +0.023 A 
ATOM     25  C   UNL     1       6.400  -4.138  24.658  0.00  0.00    +0.032 A 
ATOM     26  C   UNL     1       6.897  -2.899  24.203  0.00  0.00    +0.046 A 
BRANCH  25  27
ATOM     27  N   UNL     1       5.861  -4.264  25.922  0.00  0.00    -0.325 N 
ATOM     28  C   UNL     1       6.727  -4.338  27.110  0.00  0.00    +0.133 C 
ATOM     29  C   UNL     1       6.445  -5.641  27.873  0.00  0.00    +0.178 C 
ATOM     30  O   UNL     1       5.055  -5.763  28.215  0.00  0.00    -0.377 OA
ATOM     31  C   UNL     1       4.253  -5.782  27.021  0.00  0.00    +0.178 C 
ATOM     32  C   UNL     1       4.436  -4.504  26.189  0.00  0.00    +0.133 C 
ENDBRANCH  25  27
ENDBRANCH   8  21
TORSDOF 3
ENDMDL
MODEL 4
REMARK VINA RESULT:      -7.7      2.643      3.491
REMARK  Name = 
REMARK  3 active torsions:
REMARK  status: ('A' for Active; 'I' for Inactive)
REMARK    1  A    between atoms: C_3  and  N_4
REMARK    2  A    between atoms: N_8  and  C_9
REMARK    3  A    between atoms: C_11  and  N_15
REMARK                            x       y       z     vdW  Elec       q    Type
REMARK                         _______ _______ _______ _____ _____    ______ ____
ROOT
ATOM      1  N   UNL     1       8.628  -2.595  23.533  0.00  0.00    -0.295 N 
ATOM      2  H   UNL     1       9.624  -2.788  23.541  0.00  0.00    +0.154 HD
ATOM      3  C   UNL     1       8.361  -1.249  23.253  0.00  0.00    +0.128 A 
ATOM      4  C   UNL     1       7.080  -0.806  22.997  0.00  0.00    +0.063 A 
ATOM      5  C   UNL     1       6.916   0.544  22.855  0.00  0.00    +0.118 A 
ATOM      6  N   UNL     1       7.931   1.408  22.906  0.00  0.00    -0.223 NA
ATOM      7  C   UNL     1       9.163   0.906  23.077  0.00  0.00    +0.221 A 
ATOM      8  N   UNL     1      10.268   1.754  23.058  0.00  0.00    -0.284 N 
ATOM      9  H   UNL     1      11.123   1.221  23.045  0.00  0.00    +0.155 HD
ATOM     10  N   UNL     1       9.413  -0.409  23.231  0.00  0.00    -0.199 NA
ENDROOT
BRANCH   1  20
ATOM     11 CL   UNL     1       8.516  -3.216  26.685  0.00  0.00    -0.081 Cl
ATOM     12  C   UNL     1       7.568  -3.899  25.403  0.00  0.00    +0.066 A 
ATOM     13  C   UNL     1       6.604  -4.851  25.803  0.00  0.00    +0.025 A 
ATOM     14  C   UNL     1       5.909  -5.604  24.859  0.00  0.00    +0.051 A 
ATOM     15  C   UNL     1       6.234  -5.411  23.537  0.00  0.00    +0.168 A 
ATOM     16  O   UNL     1       5.705  -6.100  22.493  0.00  0.00    -0.453 OA
ATOM     17  C   UNL     1       6.469  -5.560  21.397  0.00  0.00    +0.466 C 
ATOM     18  O   UNL     1       7.308  -4.451  21.781  0.00  0.00    -0.451 OA
ATOM     19  C   UNL     1       7.158  -4.464  23.141  0.00  0.00    +0.189 A 
ATOM     20  C   UNL     1       7.826  -3.634  24.039  0.00  0.00    +0.097 A 
ENDBRANCH   1  20
BRANCH   8  21
ATOM     21  C   UNL     1      10.381   3.134  23.282  0.00  0.00    +0.035 A 
ATOM     22  C   UNL     1      11.601   3.808  23.336  0.00  0.00    +0.023 A 
ATOM     23  C   UNL     1      11.655   5.172  23.618  0.00  0.00    +0.004 A 
ATOM     24  C   UNL     1      10.482   5.888  23.854  0.00  0.00    +0.023 A 
ATOM     25  C   UNL     1       9.231   5.266  23.808  0.00  0.00    +0.032 A 
ATOM     26  C   UNL     1       9.218   3.880  23.542  0.00  0.00    +0.046 A 
BRANCH  25  27
ATOM     27  N   UNL     1       8.054   5.960  24.002  0.00  0.00    -0.325 N 
ATOM     28  C   UNL     1       7.354   5.916  25.296  0.00  0.00    +0.133 C 
ATOM     29  C   UNL     1       5.923   5.394  25.090  0.00  0.00    +0.178 C 
ATOM     30  O   UNL     1       5.208   6.177  24.121  0.00  0.00    -0.377 OA
ATOM     31  C   UNL     1       5.876   6.116  22.848  0.00  0.00    +0.178 C 
ATOM     32  C   UNL     1       7.316   6.645  22.932  0.00  0.00    +0.133 C 
ENDBRANCH  25  27
ENDBRANCH   8  21
TORSDOF 3
ENDMDL
MODEL 5
REMARK VINA RESULT:      -7.5      2.591      3.313
REMARK  Name = 
REMARK  3 active torsions:
REMARK  status: ('A' for Active; 'I' for Inactive)
REMARK    1  A    between atoms: C_3  and  N_4
REMARK    2  A    between atoms: N_8  and  C_9
REMARK    3  A    between atoms: C_11  and  N_15
REMARK                            x       y       z     vdW  Elec       q    Type
REMARK                         _______ _______ _______ _____ _____    ______ ____
ROOT
ATOM      1  N   UNL     1       5.267  -4.350  23.556  0.00  0.00    -0.295 N 
ATOM      2  H   UNL     1       5.700  -4.589  22.670  0.00  0.00    +0.154 HD
ATOM      3  C   UNL     1       5.540  -3.029  23.929  0.00  0.00    +0.128 A 
ATOM      4  C   UNL     1       4.894  -2.432  24.993  0.00  0.00    +0.063 A 
ATOM      5  C   UNL     1       5.322  -1.182  25.345  0.00  0.00    +0.118 A 
ATOM      6  N   UNL     1       6.278  -0.528  24.683  0.00  0.00    -0.223 NA
ATOM      7  C   UNL     1       6.809  -1.130  23.608  0.00  0.00    +0.221 A 
ATOM      8  N   UNL     1       7.753  -0.461  22.832  0.00  0.00    -0.284 N 
ATOM      9  H   UNL     1       7.942  -0.974  21.985  0.00  0.00    +0.155 HD
ATOM     10  N   UNL     1       6.450  -2.361  23.195  0.00  0.00    -0.199 NA
ENDROOT
BRANCH   1  20
ATOM     11 CL   UNL     1       6.871  -5.635  26.028  0.00  0.00    -0.081 Cl
ATOM     12  C   UNL     1       5.272  -5.992  25.460  0.00  0.00    +0.066 A 
ATOM     13  C   UNL     1       4.573  -6.975  26.196  0.00  0.00    +0.025 A 
ATOM     14  C   UNL     1       3.359  -7.482  25.737  0.00  0.00    +0.051 A 
ATOM     15  C   UNL     1       2.901  -7.018  24.526  0.00  0.00    +0.168 A 
ATOM     16  O   UNL     1       1.773  -7.446  23.901  0.00  0.00    -0.453 OA
ATOM     17  C   UNL     1       1.852  -6.708  22.666  0.00  0.00    +0.466 C 
ATOM     18  O   UNL     1       2.920  -5.737  22.651  0.00  0.00    -0.451 OA
ATOM     19  C   UNL     1       3.568  -6.040  23.817  0.00  0.00    +0.189 A 
ATOM     20  C   UNL     1       4.746  -5.446  24.267  0.00  0.00    +0.097 A 
ENDBRANCH   1  20
BRANCH   8  21
ATOM     21  C   UNL     1       8.602   0.615  23.130  0.00  0.00    +0.035 A 
ATOM     22  C   UNL     1       9.968   0.472  23.375  0.00  0.00    +0.023 A 
ATOM     23  C   UNL     1      10.753   1.571  23.722  0.00  0.00    +0.004 A 
ATOM     24  C   UNL     1      10.179   2.837  23.832  0.00  0.00    +0.023 A 
ATOM     25  C   UNL     1       8.817   3.041  23.592  0.00  0.00    +0.032 A 
ATOM     26  C   UNL     1       8.052   1.901  23.266  0.00  0.00    +0.046 A 
BRANCH  25  27
ATOM     27  N   UNL     1       8.234   4.289  23.658  0.00  0.00    -0.325 N 
ATOM     28  C   UNL     1       7.024   4.603  22.882  0.00  0.00    +0.133 C 
ATOM     29  C   UNL     1       7.296   5.804  21.965  0.00  0.00    +0.178 C 
ATOM     30  O   UNL     1       7.766   6.942  22.707  0.00  0.00    -0.377 OA
ATOM     31  C   UNL     1       8.999   6.621  23.373  0.00  0.00    +0.178 C 
ATOM     32  C   UNL     1       8.835   5.442  24.345  0.00  0.00    +0.133 C 
ENDBRANCH  25  27
ENDBRANCH   8  21
TORSDOF 3
ENDMDL
MODEL 6
REMARK VINA RESULT:      -7.1      1.827      2.126
REMARK  Name = 
REMARK  3 active torsions:
REMARK  status: ('A' for Active; 'I' for Inactive)
REMARK    1  A    between atoms: C_3  and  N_4
REMARK    2  A    between atoms: N_8  and  C_9
REMARK    3  A    between atoms: C_11  and  N_15
REMARK                            x       y       z     vdW  Elec       q    Type
REMARK                         _______ _______ _______ _____ _____    ______ ____
ROOT
ATOM      1  N   UNL     1       5.668  -3.435  23.804  0.00  0.00    -0.295 N 
ATOM      2  H   UNL     1       6.094  -3.681  22.917  0.00  0.00    +0.154 HD
ATOM      3  C   UNL     1       5.852  -2.082  24.113  0.00  0.00    +0.128 A 
ATOM      4  C   UNL     1       5.192  -1.485  25.167  0.00  0.00    +0.063 A 
ATOM      5  C   UNL     1       5.536  -0.193  25.453  0.00  0.00    +0.118 A 
ATOM      6  N   UNL     1       6.424   0.498  24.736  0.00  0.00    -0.223 NA
ATOM      7  C   UNL     1       6.970  -0.113  23.674  0.00  0.00    +0.221 A 
ATOM      8  N   UNL     1       7.842   0.587  22.843  0.00  0.00    -0.284 N 
ATOM      9  H   UNL     1       8.047   0.052  22.014  0.00  0.00    +0.155 HD
ATOM     10  N   UNL     1       6.692  -1.384  23.325  0.00  0.00    -0.199 NA
ENDROOT
BRANCH   1  20
ATOM     11 CL   UNL     1       2.793  -4.792  23.324  0.00  0.00    -0.081 Cl
ATOM     12  C   UNL     1       4.087  -5.310  24.356  0.00  0.00    +0.066 A 
ATOM     13  C   UNL     1       3.848  -6.503  25.076  0.00  0.00    +0.025 A 
ATOM     14  C   UNL     1       4.726  -6.925  26.071  0.00  0.00    +0.051 A 
ATOM     15  C   UNL     1       5.801  -6.113  26.348  0.00  0.00    +0.168 A 
ATOM     16  O   UNL     1       6.719  -6.337  27.324  0.00  0.00    -0.453 OA
ATOM     17  C   UNL     1       7.523  -5.145  27.217  0.00  0.00    +0.466 C 
ATOM     18  O   UNL     1       7.176  -4.326  26.081  0.00  0.00    -0.451 OA
ATOM     19  C   UNL     1       6.052  -4.960  25.631  0.00  0.00    +0.189 A 
ATOM     20  C   UNL     1       5.246  -4.533  24.577  0.00  0.00    +0.097 A 
ENDBRANCH   1  20
BRANCH   8  21
ATOM     21  C   UNL     1       8.617   1.734  23.069  0.00  0.00    +0.035 A 
ATOM     22  C   UNL     1      10.004   1.707  23.225  0.00  0.00    +0.023 A 
ATOM     23  C   UNL     1      10.716   2.873  23.504  0.00  0.00    +0.004 A 
ATOM     24  C   UNL     1      10.049   4.090  23.636  0.00  0.00    +0.023 A 
ATOM     25  C   UNL     1       8.662   4.177  23.485  0.00  0.00    +0.032 A 
ATOM     26  C   UNL     1       7.973   2.973  23.225  0.00  0.00    +0.046 A 
BRANCH  25  27
ATOM     27  N   UNL     1       7.984   5.375  23.575  0.00  0.00    -0.325 N 
ATOM     28  C   UNL     1       6.996   5.609  24.640  0.00  0.00    +0.133 C 
ATOM     29  C   UNL     1       5.635   5.954  24.016  0.00  0.00    +0.178 C 
ATOM     30  O   UNL     1       5.733   7.075  23.121  0.00  0.00    -0.377 OA
ATOM     31  C   UNL     1       6.635   6.768  22.045  0.00  0.00    +0.178 C 
ATOM     32  C   UNL     1       8.045   6.433  22.556  0.00  0.00    +0.133 C 
ENDBRANCH  25  27
ENDBRANCH   8  21
TORSDOF 3
ENDMDL
MODEL 7
REMARK VINA RESULT:      -7.0      2.572      3.813
REMARK  Name = 
REMARK  3 active torsions:
REMARK  status: ('A' for Active; 'I' for Inactive)
REMARK    1  A    between atoms: C_3  and  N_4
REMARK    2  A    between atoms: N_8  and  C_9
REMARK    3  A    between atoms: C_11  and  N_15
REMARK                            x       y       z     vdW  Elec       q    Type
REMARK                         _______ _______ _______ _____ _____    ______ ____
ROOT
ATOM      1  N   UNL     1       5.416  -5.801  25.944  0.00  0.00    -0.295 N 
ATOM      2  H   UNL     1       6.298  -6.042  26.385  0.00  0.00    +0.154 HD
ATOM      3  C   UNL     1       5.592  -4.895  24.892  0.00  0.00    +0.128 A 
ATOM      4  C   UNL     1       4.561  -4.583  24.029  0.00  0.00    +0.063 A 
ATOM      5  C   UNL     1       4.807  -3.599  23.112  0.00  0.00    +0.118 A 
ATOM      6  N   UNL     1       5.988  -2.988  23.000  0.00  0.00    -0.223 NA
ATOM      7  C   UNL     1       6.973  -3.395  23.815  0.00  0.00    +0.221 A 
ATOM      8  N   UNL     1       8.249  -2.849  23.689  0.00  0.00    -0.284 N 
ATOM      9  H   UNL     1       8.909  -3.356  24.257  0.00  0.00    +0.155 HD
ATOM     10  N   UNL     1       6.816  -4.352  24.749  0.00  0.00    -0.199 NA
ENDROOT
BRANCH   1  20
ATOM     11 CL   UNL     1       4.949  -4.953  29.011  0.00  0.00    -0.081 Cl
ATOM     12  C   UNL     1       3.878  -5.791  27.933  0.00  0.00    +0.066 A 
ATOM     13  C   UNL     1       2.620  -6.137  28.477  0.00  0.00    +0.025 A 
ATOM     14  C   UNL     1       1.745  -6.967  27.781  0.00  0.00    +0.051 A 
ATOM     15  C   UNL     1       2.177  -7.466  26.574  0.00  0.00    +0.168 A 
ATOM     16  O   UNL     1       1.483  -8.335  25.794  0.00  0.00    -0.453 OA
ATOM     17  C   UNL     1       2.438  -8.575  24.741  0.00  0.00    +0.466 C 
ATOM     18  O   UNL     1       3.600  -7.724  24.823  0.00  0.00    -0.451 OA
ATOM     19  C   UNL     1       3.394  -7.110  26.028  0.00  0.00    +0.189 A 
ATOM     20  C   UNL     1       4.274  -6.225  26.648  0.00  0.00    +0.097 A 
ENDBRANCH   1  20
BRANCH   8  21
ATOM     21  C   UNL     1       8.688  -1.643  23.124  0.00  0.00    +0.035 A 
ATOM     22  C   UNL     1       9.208  -1.541  21.833  0.00  0.00    +0.023 A 
ATOM     23  C   UNL     1       9.683  -0.325  21.345  0.00  0.00    +0.004 A 
ATOM     24  C   UNL     1       9.648   0.816  22.146  0.00  0.00    +0.023 A 
ATOM     25  C   UNL     1       9.133   0.775  23.445  0.00  0.00    +0.032 A 
ATOM     26  C   UNL     1       8.683  -0.478  23.912  0.00  0.00    +0.046 A 
BRANCH  25  27
ATOM     27  N   UNL     1       9.054   1.897  24.243  0.00  0.00    -0.325 N 
ATOM     28  C   UNL     1       8.141   1.944  25.397  0.00  0.00    +0.133 C 
ATOM     29  C   UNL     1       7.173   3.127  25.241  0.00  0.00    +0.178 C 
ATOM     30  O   UNL     1       7.877   4.367  25.065  0.00  0.00    -0.377 OA
ATOM     31  C   UNL     1       8.683   4.312  23.876  0.00  0.00    +0.178 C 
ATOM     32  C   UNL     1       9.714   3.174  23.936  0.00  0.00    +0.133 C 
ENDBRANCH  25  27
ENDBRANCH   8  21
TORSDOF 3
ENDMDL
MODEL 8
REMARK VINA RESULT:      -7.0      3.653     10.123
REMARK  Name = 
REMARK  3 active torsions:
REMARK  status: ('A' for Active; 'I' for Inactive)
REMARK    1  A    between atoms: C_3  and  N_4
REMARK    2  A    between atoms: N_8  and  C_9
REMARK    3  A    between atoms: C_11  and  N_15
REMARK                            x       y       z     vdW  Elec       q    Type
REMARK                         _______ _______ _______ _____ _____    ______ ____
ROOT
ATOM      1  N   UNL     1       8.795   4.022  23.804  0.00  0.00    -0.295 N 
ATOM      2  H   UNL     1       7.958   4.326  23.317  0.00  0.00    +0.154 HD
ATOM      3  C   UNL     1       8.757   2.654  24.099  0.00  0.00    +0.128 A 
ATOM      4  C   UNL     1       9.867   1.988  24.578  0.00  0.00    +0.063 A 
ATOM      5  C   UNL     1       9.687   0.684  24.946  0.00  0.00    +0.118 A 
ATOM      6  N   UNL     1       8.522   0.046  24.814  0.00  0.00    -0.223 NA
ATOM      7  C   UNL     1       7.504   0.725  24.266  0.00  0.00    +0.221 A 
ATOM      8  N   UNL     1       6.289   0.085  24.030  0.00  0.00    -0.284 N 
ATOM      9  H   UNL     1       5.681   0.672  23.482  0.00  0.00    +0.155 HD
ATOM     10  N   UNL     1       7.593   2.013  23.881  0.00  0.00    -0.199 NA
ENDROOT
BRANCH   1  20
ATOM     11 CL   UNL     1       7.612   6.385  25.636  0.00  0.00    -0.081 Cl
ATOM     12  C   UNL     1       9.259   6.064  25.195  0.00  0.00    +0.066 A 
ATOM     13  C   UNL     1      10.214   6.960  25.727  0.00  0.00    +0.025 A 
ATOM     14  C   UNL     1      11.540   6.924  25.304  0.00  0.00    +0.051 A 
ATOM     15  C   UNL     1      11.864   6.015  24.323  0.00  0.00    +0.168 A 
ATOM     16  O   UNL     1      13.089   5.885  23.751  0.00  0.00    -0.453 OA
ATOM     17  C   UNL     1      12.816   4.882  22.754  0.00  0.00    +0.466 C 
ATOM     18  O   UNL     1      11.493   4.316  22.863  0.00  0.00    -0.451 OA
ATOM     19  C   UNL     1      10.939   5.122  23.819  0.00  0.00    +0.189 A 
ATOM     20  C   UNL     1       9.619   5.067  24.261  0.00  0.00    +0.097 A 
ENDBRANCH   1  20
BRANCH   8  21
ATOM     21  C   UNL     1       5.724  -1.067  24.596  0.00  0.00    +0.035 A 
ATOM     22  C   UNL     1       4.906  -1.047  25.726  0.00  0.00    +0.023 A 
ATOM     23  C   UNL     1       4.417  -2.231  26.278  0.00  0.00    +0.004 A 
ATOM     24  C   UNL     1       4.744  -3.460  25.707  0.00  0.00    +0.023 A 
ATOM     25  C   UNL     1       5.555  -3.540  24.571  0.00  0.00    +0.032 A 
ATOM     26  C   UNL     1       6.048  -2.323  24.054  0.00  0.00    +0.046 A 
BRANCH  25  27
ATOM     27  N   UNL     1       5.861  -4.741  23.966  0.00  0.00    -0.325 N 
ATOM     28  C   UNL     1       7.221  -5.299  24.035  0.00  0.00    +0.133 C 
ATOM     29  C   UNL     1       7.765  -5.510  22.614  0.00  0.00    +0.178 C 
ATOM     30  O   UNL     1       6.888  -6.335  21.829  0.00  0.00    -0.377 OA
ATOM     31  C   UNL     1       5.599  -5.707  21.708  0.00  0.00    +0.178 C 
ATOM     32  C   UNL     1       4.946  -5.473  23.078  0.00  0.00    +0.133 C 
ENDBRANCH  25  27
ENDBRANCH   8  21
TORSDOF 3
ENDMDL
MODEL 9
REMARK VINA RESULT:      -7.0      2.299      2.477
REMARK  Name = 
REMARK  3 active torsions:
REMARK  status: ('A' for Active; 'I' for Inactive)
REMARK    1  A    between atoms: C_3  and  N_4
REMARK    2  A    between atoms: N_8  and  C_9
REMARK    3  A    between atoms: C_11  and  N_15
REMARK                            x       y       z     vdW  Elec       q    Type
REMARK                         _______ _______ _______ _____ _____    ______ ____
ROOT
ATOM      1  N   UNL     1       7.121  -3.191  24.748  0.00  0.00    -0.295 N 
ATOM      2  H   UNL     1       7.209  -3.003  25.741  0.00  0.00    +0.154 HD
ATOM      3  C   UNL     1       7.853  -2.278  23.979  0.00  0.00    +0.128 A 
ATOM      4  C   UNL     1       8.038  -2.461  22.624  0.00  0.00    +0.063 A 
ATOM      5  C   UNL     1       8.665  -1.450  21.950  0.00  0.00    +0.118 A 
ATOM      6  N   UNL     1       9.130  -0.354  22.553  0.00  0.00    -0.223 NA
ATOM      7  C   UNL     1       8.991  -0.275  23.885  0.00  0.00    +0.221 A 
ATOM      8  N   UNL     1       9.529   0.809  24.575  0.00  0.00    -0.284 N 
ATOM      9  H   UNL     1       9.479   0.654  25.570  0.00  0.00    +0.155 HD
ATOM     10  N   UNL     1       8.382  -1.221  24.624  0.00  0.00    -0.199 NA
ENDROOT
BRANCH   1  20
ATOM     11 CL   UNL     1       7.749  -5.673  22.803  0.00  0.00    -0.081 Cl
ATOM     12  C   UNL     1       6.309  -5.331  23.707  0.00  0.00    +0.066 A 
ATOM     13  C   UNL     1       5.273  -6.284  23.580  0.00  0.00    +0.025 A 
ATOM     14  C   UNL     1       4.007  -6.037  24.104  0.00  0.00    +0.051 A 
ATOM     15  C   UNL     1       3.801  -4.816  24.704  0.00  0.00    +0.168 A 
ATOM     16  O   UNL     1       2.618  -4.384  25.212  0.00  0.00    -0.453 OA
ATOM     17  C   UNL     1       2.967  -3.042  25.606  0.00  0.00    +0.466 C 
ATOM     18  O   UNL     1       4.377  -2.762  25.484  0.00  0.00    -0.451 OA
ATOM     19  C   UNL     1       4.817  -3.893  24.853  0.00  0.00    +0.189 A 
ATOM     20  C   UNL     1       6.120  -4.121  24.413  0.00  0.00    +0.097 A 
ENDBRANCH   1  20
BRANCH   8  21
ATOM     21  C   UNL     1       9.885   2.096  24.148  0.00  0.00    +0.035 A 
ATOM     22  C   UNL     1      11.168   2.438  23.722  0.00  0.00    +0.023 A 
ATOM     23  C   UNL     1      11.479   3.749  23.361  0.00  0.00    +0.004 A 
ATOM     24  C   UNL     1      10.504   4.745  23.425  0.00  0.00    +0.023 A 
ATOM     25  C   UNL     1       9.200   4.459  23.840  0.00  0.00    +0.032 A 
ATOM     26  C   UNL     1       8.931   3.127  24.217  0.00  0.00    +0.046 A 
BRANCH  25  27
ATOM     27  N   UNL     1       8.211   5.419  23.876  0.00  0.00    -0.325 N 
ATOM     28  C   UNL     1       7.161   5.387  24.907  0.00  0.00    +0.133 C 
ATOM     29  C   UNL     1       5.781   5.322  24.237  0.00  0.00    +0.178 C 
ATOM     30  O   UNL     1       5.590   6.406  23.313  0.00  0.00    -0.377 OA
ATOM     31  C   UNL     1       6.578   6.345  22.270  0.00  0.00    +0.178 C 
ATOM     32  C   UNL     1       8.007   6.431  22.830  0.00  0.00    +0.133 C 
ENDBRANCH  25  27
ENDBRANCH   8  21
TORSDOF 3
ENDMDL
