MODEL 1
REMARK VINA RESULT:      -5.5      0.000      0.000
REMARK  Name = 
REMARK  8 active torsions:
REMARK  status: ('A' for Active; 'I' for Inactive)
REMARK    1  A    between atoms: C_1  and  C_2
REMARK    2  A    between atoms: N_4  and  C_5
REMARK    3  A    between atoms: C_5  and  C_20
REMARK    4  A    between atoms: C_7  and  C_9
REMARK    5  A    between atoms: C_9  and  O_10
REMARK    6  A    between atoms: C_11  and  O_13
REMARK    7  A    between atoms: C_14  and  O_16
REMARK    8  A    between atoms: C_17  and  O_19
REMARK                            x       y       z     vdW  Elec       q    Type
REMARK                         _______ _______ _______ _____ _____    ______ ____
ROOT
ATOM      1  C   UNL     1       8.383  -2.533  25.372  0.00  0.00    +0.242 C 
ATOM      2  C   UNL     1       8.785  -3.308  24.075  0.00  0.00    +0.205 C 
ATOM      3  C   UNL     1       8.386  -4.796  24.161  0.00  0.00    +0.179 C 
ATOM      4  C   UNL     1       8.908  -5.420  25.462  0.00  0.00    +0.177 C 
ATOM      5  C   UNL     1       8.440  -4.609  26.687  0.00  0.00    +0.178 C 
ATOM      6  O   UNL     1       8.759  -3.208  26.587  0.00  0.00    -0.338 OA
ENDROOT
BRANCH   1   9
ATOM      7  C   UNL     1       9.986   0.865  24.746  0.00  0.00    +0.109 C 
ATOM      8  C   UNL     1       9.137  -0.345  24.459  0.00  0.00    +0.212 C 
ATOM      9  N   UNL     1       9.057  -1.238  25.501  0.00  0.00    -0.278 N 
ATOM     10  H   UNL     1       9.695  -1.155  26.276  0.00  0.00    +0.152 HD
ATOM     11  O   UNL     1       8.550  -0.485  23.392  0.00  0.00    -0.276 OA
ENDBRANCH   1   9
BRANCH   1  12
ATOM     12  C   UNL     1       6.849  -2.205  25.404  0.00  0.00    +0.264 C 
ATOM     13  O   UNL     1       6.242  -1.799  26.392  0.00  0.00    -0.271 OA
ATOM     14  N   UNL     1       6.209  -2.313  24.189  0.00  0.00    -0.325 N 
ATOM     15  H   UNL     1       6.763  -2.292  23.343  0.00  0.00    +0.145 HD
ATOM     16  H   UNL     1       5.243  -2.012  24.149  0.00  0.00    +0.145 HD
ENDBRANCH   1  12
BRANCH   2  17
ATOM     17  O   UNL     1      10.204  -3.175  23.819  0.00  0.00    -0.384 OA
ATOM     18  H   UNL     1      10.612  -2.715  24.576  0.00  0.00    +0.210 HD
ENDBRANCH   2  17
BRANCH   3  19
ATOM     19  O   UNL     1       6.980  -5.012  24.059  0.00  0.00    -0.386 OA
ATOM     20  H   UNL     1       6.489  -4.280  24.491  0.00  0.00    +0.210 HD
ENDBRANCH   3  19
BRANCH   4  21
ATOM     21  O   UNL     1      10.347  -5.450  25.406  0.00  0.00    -0.386 OA
ATOM     22  H   UNL     1      10.612  -5.002  24.577  0.00  0.00    +0.210 HD
ENDBRANCH   4  21
BRANCH   5  23
ATOM     23  C   UNL     1       6.973  -4.874  27.078  0.00  0.00    +0.190 C 
BRANCH  23  24
ATOM     24  O   UNL     1       6.599  -6.212  26.781  0.00  0.00    -0.392 OA
ATOM     25  H   UNL     1       5.662  -6.213  26.535  0.00  0.00    +0.210 HD
ENDBRANCH  23  24
ENDBRANCH   5  23
TORSDOF 7
ENDMDL
MODEL 2
REMARK VINA RESULT:      -5.3      2.989      5.355
REMARK  Name = 
REMARK  8 active torsions:
REMARK  status: ('A' for Active; 'I' for Inactive)
REMARK    1  A    between atoms: C_1  and  C_2
REMARK    2  A    between atoms: N_4  and  C_5
REMARK    3  A    between atoms: C_5  and  C_20
REMARK    4  A    between atoms: C_7  and  C_9
REMARK    5  A    between atoms: C_9  and  O_10
REMARK    6  A    between atoms: C_11  and  O_13
REMARK    7  A    between atoms: C_14  and  O_16
REMARK    8  A    between atoms: C_17  and  O_19
REMARK                            x       y       z     vdW  Elec       q    Type
REMARK                         _______ _______ _______ _____ _____    ______ ____
ROOT
ATOM      1  C   UNL     1       7.667  -0.700  23.670  0.00  0.00    +0.242 C 
ATOM      2  C   UNL     1       8.943  -1.160  24.446  0.00  0.00    +0.205 C 
ATOM      3  C   UNL     1      10.191  -0.371  23.998  0.00  0.00    +0.179 C 
ATOM      4  C   UNL     1      10.331  -0.405  22.471  0.00  0.00    +0.177 C 
ATOM      5  C   UNL     1       9.040   0.092  21.790  0.00  0.00    +0.178 C 
ATOM      6  O   UNL     1       7.863  -0.601  22.246  0.00  0.00    -0.338 OA
ENDROOT
BRANCH   1   9
ATOM      7  C   UNL     1       5.139  -3.492  23.110  0.00  0.00    +0.109 C 
ATOM      8  C   UNL     1       6.418  -2.718  22.928  0.00  0.00    +0.212 C 
ATOM      9  N   UNL     1       6.554  -1.646  23.777  0.00  0.00    -0.278 N 
ATOM     10  H   UNL     1       5.756  -1.322  24.300  0.00  0.00    +0.152 HD
ATOM     11  O   UNL     1       7.266  -3.053  22.108  0.00  0.00    -0.276 OA
ENDBRANCH   1   9
BRANCH   1  12
ATOM     12  C   UNL     1       7.109   0.660  24.220  0.00  0.00    +0.264 C 
ATOM     13  O   UNL     1       7.613   1.302  25.138  0.00  0.00    -0.271 OA
ATOM     14  N   UNL     1       6.029   1.164  23.528  0.00  0.00    -0.325 N 
ATOM     15  H   UNL     1       5.855   0.832  22.588  0.00  0.00    +0.145 HD
ATOM     16  H   UNL     1       5.706   2.087  23.789  0.00  0.00    +0.145 HD
ENDBRANCH   1  12
BRANCH   2  17
ATOM     17  O   UNL     1       9.155  -2.584  24.284  0.00  0.00    -0.384 OA
ATOM     18  H   UNL     1       9.290  -2.978  25.166  0.00  0.00    +0.210 HD
ENDBRANCH   2  17
BRANCH   3  19
ATOM     19  O   UNL     1      10.198   0.982  24.448  0.00  0.00    -0.386 OA
ATOM     20  H   UNL     1      11.119   1.310  24.529  0.00  0.00    +0.210 HD
ENDBRANCH   3  19
BRANCH   4  21
ATOM     21  O   UNL     1      10.614  -1.759  22.069  0.00  0.00    -0.386 OA
ATOM     22  H   UNL     1      11.552  -1.935  22.289  0.00  0.00    +0.210 HD
ENDBRANCH   4  21
BRANCH   5  23
ATOM     23  C   UNL     1       8.888   1.626  21.803  0.00  0.00    +0.190 C 
BRANCH  23  24
ATOM     24  O   UNL     1      10.145   2.266  21.633  0.00  0.00    -0.392 OA
ATOM     25  H   UNL     1      10.613   2.236  22.480  0.00  0.00    +0.210 HD
ENDBRANCH  23  24
ENDBRANCH   5  23
TORSDOF 7
ENDMDL
MODEL 3
REMARK VINA RESULT:      -5.3      2.266      3.820
REMARK  Name = 
REMARK  8 active torsions:
REMARK  status: ('A' for Active; 'I' for Inactive)
REMARK    1  A    between atoms: C_1  and  C_2
REMARK    2  A    between atoms: N_4  and  C_5
REMARK    3  A    between atoms: C_5  and  C_20
REMARK    4  A    between atoms: C_7  and  C_9
REMARK    5  A    between atoms: C_9  and  O_10
REMARK    6  A    between atoms: C_11  and  O_13
REMARK    7  A    between atoms: C_14  and  O_16
REMARK    8  A    between atoms: C_17  and  O_19
REMARK                            x       y       z     vdW  Elec       q    Type
REMARK                         _______ _______ _______ _____ _____    ______ ____
ROOT
ATOM      1  C   UNL     1       8.916  -0.688  23.513  0.00  0.00    +0.242 C 
ATOM      2  C   UNL     1       9.363  -1.264  24.895  0.00  0.00    +0.205 C 
ATOM      3  C   UNL     1       8.932  -2.738  25.058  0.00  0.00    +0.179 C 
ATOM      4  C   UNL     1       7.437  -2.900  24.756  0.00  0.00    +0.177 C 
ATOM      5  C   UNL     1       7.094  -2.332  23.364  0.00  0.00    +0.178 C 
ATOM      6  O   UNL     1       7.544  -0.975  23.185  0.00  0.00    -0.338 OA
ENDROOT
BRANCH   1   9
ATOM      7  C   UNL     1       9.838   2.986  23.902  0.00  0.00    +0.109 C 
ATOM      8  C   UNL     1      10.038   1.494  23.920  0.00  0.00    +0.212 C 
ATOM      9  N   UNL     1       8.962   0.775  23.457  0.00  0.00    -0.278 N 
ATOM     10  H   UNL     1       8.073   1.234  23.336  0.00  0.00    +0.152 HD
ATOM     11  O   UNL     1      11.091   0.987  24.289  0.00  0.00    -0.276 OA
ENDBRANCH   1   9
BRANCH   1  12
ATOM     12  C   UNL     1       9.849  -1.176  22.349  0.00  0.00    +0.264 C 
ATOM     13  O   UNL     1      10.806  -1.932  22.491  0.00  0.00    -0.271 OA
ATOM     14  N   UNL     1       9.465  -0.768  21.091  0.00  0.00    -0.325 N 
ATOM     15  H   UNL     1       8.510  -0.465  20.947  0.00  0.00    +0.145 HD
ATOM     16  H   UNL     1       9.981  -1.145  20.306  0.00  0.00    +0.145 HD
ENDBRANCH   1  12
BRANCH   2  17
ATOM     17  O   UNL     1       8.839  -0.459  25.979  0.00  0.00    -0.384 OA
ATOM     18  H   UNL     1       9.334   0.382  26.005  0.00  0.00    +0.210 HD
ENDBRANCH   2  17
BRANCH   3  19
ATOM     19  O   UNL     1       9.684  -3.640  24.248  0.00  0.00    -0.386 OA
ATOM     20  H   UNL     1       9.880  -4.462  24.744  0.00  0.00    +0.210 HD
ENDBRANCH   3  19
BRANCH   4  21
ATOM     21  O   UNL     1       6.690  -2.206  25.773  0.00  0.00    -0.386 OA
ATOM     22  H   UNL     1       6.789  -2.717  26.602  0.00  0.00    +0.210 HD
ENDBRANCH   4  21
BRANCH   5  23
ATOM     23  C   UNL     1       7.491  -3.264  22.202  0.00  0.00    +0.190 C 
BRANCH  23  24
ATOM     24  O   UNL     1       7.405  -4.628  22.590  0.00  0.00    -0.392 OA
ATOM     25  H   UNL     1       7.691  -4.696  23.514  0.00  0.00    +0.210 HD
ENDBRANCH  23  24
ENDBRANCH   5  23
TORSDOF 7
ENDMDL
MODEL 4
REMARK VINA RESULT:      -5.3      3.549      6.105
REMARK  Name = 
REMARK  8 active torsions:
REMARK  status: ('A' for Active; 'I' for Inactive)
REMARK    1  A    between atoms: C_1  and  C_2
REMARK    2  A    between atoms: N_4  and  C_5
REMARK    3  A    between atoms: C_5  and  C_20
REMARK    4  A    between atoms: C_7  and  C_9
REMARK    5  A    between atoms: C_9  and  O_10
REMARK    6  A    between atoms: C_11  and  O_13
REMARK    7  A    between atoms: C_14  and  O_16
REMARK    8  A    between atoms: C_17  and  O_19
REMARK                            x       y       z     vdW  Elec       q    Type
REMARK                         _______ _______ _______ _____ _____    ______ ____
ROOT
ATOM      1  C   UNL     1       8.092  -0.051  23.074  0.00  0.00    +0.242 C 
ATOM      2  C   UNL     1       7.547   1.007  22.062  0.00  0.00    +0.205 C 
ATOM      3  C   UNL     1       8.407   2.289  22.069  0.00  0.00    +0.179 C 
ATOM      4  C   UNL     1       8.584   2.812  23.500  0.00  0.00    +0.177 C 
ATOM      5  C   UNL     1       9.152   1.712  24.420  0.00  0.00    +0.178 C 
ATOM      6  O   UNL     1       8.387   0.493  24.374  0.00  0.00    -0.338 OA
ENDROOT
BRANCH   1   9
ATOM      7  C   UNL     1       5.347  -2.204  24.601  0.00  0.00    +0.109 C 
ATOM      8  C   UNL     1       6.153  -0.960  24.339  0.00  0.00    +0.212 C 
ATOM      9  N   UNL     1       7.125  -1.109  23.379  0.00  0.00    -0.278 N 
ATOM     10  H   UNL     1       7.378  -2.033  23.068  0.00  0.00    +0.152 HD
ATOM     11  O   UNL     1       5.923   0.094  24.921  0.00  0.00    -0.276 OA
ENDBRANCH   1   9
BRANCH   1  12
ATOM     12  C   UNL     1       9.356  -0.795  22.516  0.00  0.00    +0.264 C 
ATOM     13  O   UNL     1      10.129  -1.466  23.196  0.00  0.00    -0.271 OA
ATOM     14  N   UNL     1       9.508  -0.731  21.148  0.00  0.00    -0.325 N 
ATOM     15  H   UNL     1       8.704  -0.499  20.579  0.00  0.00    +0.145 HD
ATOM     16  H   UNL     1      10.253  -1.283  20.741  0.00  0.00    +0.145 HD
ENDBRANCH   1  12
BRANCH   2  17
ATOM     17  O   UNL     1       6.162   1.321  22.346  0.00  0.00    -0.384 OA
ATOM     18  H   UNL     1       6.137   2.109  22.921  0.00  0.00    +0.210 HD
ENDBRANCH   2  17
BRANCH   3  19
ATOM     19  O   UNL     1       9.686   2.117  21.462  0.00  0.00    -0.386 OA
ATOM     20  H   UNL     1      10.387   2.086  22.146  0.00  0.00    +0.210 HD
ENDBRANCH   3  19
BRANCH   4  21
ATOM     21  O   UNL     1       7.301   3.251  23.986  0.00  0.00    -0.386 OA
ATOM     22  H   UNL     1       7.444   4.106  24.443  0.00  0.00    +0.210 HD
ENDBRANCH   4  21
BRANCH   5  23
ATOM     23  C   UNL     1      10.667   1.488  24.249  0.00  0.00    +0.190 C 
BRANCH  23  24
ATOM     24  O   UNL     1      11.153   0.543  25.192  0.00  0.00    -0.392 OA
ATOM     25  H   UNL     1      10.412   0.273  25.755  0.00  0.00    +0.210 HD
ENDBRANCH  23  24
ENDBRANCH   5  23
TORSDOF 7
ENDMDL
MODEL 5
REMARK VINA RESULT:      -5.3      2.848      6.091
REMARK  Name = 
REMARK  8 active torsions:
REMARK  status: ('A' for Active; 'I' for Inactive)
REMARK    1  A    between atoms: C_1  and  C_2
REMARK    2  A    between atoms: N_4  and  C_5
REMARK    3  A    between atoms: C_5  and  C_20
REMARK    4  A    between atoms: C_7  and  C_9
REMARK    5  A    between atoms: C_9  and  O_10
REMARK    6  A    between atoms: C_11  and  O_13
REMARK    7  A    between atoms: C_14  and  O_16
REMARK    8  A    between atoms: C_17  and  O_19
REMARK                            x       y       z     vdW  Elec       q    Type
REMARK                         _______ _______ _______ _____ _____    ______ ____
ROOT
ATOM      1  C   UNL     1       8.917  -0.164  23.774  0.00  0.00    +0.242 C 
ATOM      2  C   UNL     1       9.810   0.037  22.507  0.00  0.00    +0.205 C 
ATOM      3  C   UNL     1      10.054   1.534  22.222  0.00  0.00    +0.179 C 
ATOM      4  C   UNL     1       8.726   2.301  22.191  0.00  0.00    +0.177 C 
ATOM      5  C   UNL     1       7.927   2.067  23.489  0.00  0.00    +0.178 C 
ATOM      6  O   UNL     1       7.744   0.671  23.792  0.00  0.00    -0.338 OA
ENDROOT
BRANCH   1   9
ATOM      7  C   UNL     1       8.331  -3.927  23.702  0.00  0.00    +0.109 C 
ATOM      8  C   UNL     1       9.117  -2.643  23.699  0.00  0.00    +0.212 C 
ATOM      9  N   UNL     1       8.353  -1.514  23.873  0.00  0.00    -0.278 N 
ATOM     10  H   UNL     1       7.351  -1.574  23.787  0.00  0.00    +0.152 HD
ATOM     11  O   UNL     1      10.338  -2.631  23.583  0.00  0.00    -0.276 OA
ENDBRANCH   1   9
BRANCH   1  12
ATOM     12  C   UNL     1       9.731   0.041  25.100  0.00  0.00    +0.264 C 
ATOM     13  O   UNL     1      10.920   0.346  25.150  0.00  0.00    -0.271 OA
ATOM     14  N   UNL     1       8.986  -0.051  26.255  0.00  0.00    -0.325 N 
ATOM     15  H   UNL     1       7.982   0.058  26.198  0.00  0.00    +0.145 HD
ATOM     16  H   UNL     1       9.454   0.176  27.124  0.00  0.00    +0.145 HD
ENDBRANCH   1  12
BRANCH   2  17
ATOM     17  O   UNL     1       9.218  -0.611  21.355  0.00  0.00    -0.384 OA
ATOM     18  H   UNL     1       9.247  -1.576  21.496  0.00  0.00    +0.210 HD
ENDBRANCH   2  17
BRANCH   3  19
ATOM     19  O   UNL     1      10.940   2.151  23.153  0.00  0.00    -0.386 OA
ATOM     20  H   UNL     1      10.643   1.979  24.072  0.00  0.00    +0.210 HD
ENDBRANCH   3  19
BRANCH   4  21
ATOM     21  O   UNL     1       7.966   1.850  21.053  0.00  0.00    -0.386 OA
ATOM     22  H   UNL     1       7.811   2.631  20.482  0.00  0.00    +0.210 HD
ENDBRANCH   4  21
BRANCH   5  23
ATOM     23  C   UNL     1       8.443   2.889  24.687  0.00  0.00    +0.190 C 
BRANCH  23  24
ATOM     24  O   UNL     1       9.000   4.123  24.257  0.00  0.00    -0.392 OA
ATOM     25  H   UNL     1       9.587   4.446  24.958  0.00  0.00    +0.210 HD
ENDBRANCH  23  24
ENDBRANCH   5  23
TORSDOF 7
ENDMDL
MODEL 6
REMARK VINA RESULT:      -5.2      2.068      5.240
REMARK  Name = 
REMARK  8 active torsions:
REMARK  status: ('A' for Active; 'I' for Inactive)
REMARK    1  A    between atoms: C_1  and  C_2
REMARK    2  A    between atoms: N_4  and  C_5
REMARK    3  A    between atoms: C_5  and  C_20
REMARK    4  A    between atoms: C_7  and  C_9
REMARK    5  A    between atoms: C_9  and  O_10
REMARK    6  A    between atoms: C_11  and  O_13
REMARK    7  A    between atoms: C_14  and  O_16
REMARK    8  A    between atoms: C_17  and  O_19
REMARK                            x       y       z     vdW  Elec       q    Type
REMARK                         _______ _______ _______ _____ _____    ______ ____
ROOT
ATOM      1  C   UNL     1       8.716  -1.530  24.234  0.00  0.00    +0.242 C 
ATOM      2  C   UNL     1       8.387  -0.352  25.208  0.00  0.00    +0.205 C 
ATOM      3  C   UNL     1       8.570   1.016  24.518  0.00  0.00    +0.179 C 
ATOM      4  C   UNL     1       9.950   1.107  23.856  0.00  0.00    +0.177 C 
ATOM      5  C   UNL     1      10.176  -0.077  22.894  0.00  0.00    +0.178 C 
ATOM      6  O   UNL     1       9.951  -1.356  23.516  0.00  0.00    -0.338 OA
ENDROOT
BRANCH   1   9
ATOM      7  C   UNL     1       8.528  -4.517  26.590  0.00  0.00    +0.109 C 
ATOM      8  C   UNL     1       8.073  -3.254  25.908  0.00  0.00    +0.212 C 
ATOM      9  N   UNL     1       8.921  -2.807  24.924  0.00  0.00    -0.278 N 
ATOM     10  H   UNL     1       9.848  -3.196  24.852  0.00  0.00    +0.152 HD
ATOM     11  O   UNL     1       7.016  -2.706  26.201  0.00  0.00    -0.276 OA
ENDBRANCH   1   9
BRANCH   1  12
ATOM     12  C   UNL     1       7.548  -1.791  23.219  0.00  0.00    +0.264 C 
ATOM     13  O   UNL     1       7.632  -2.511  22.227  0.00  0.00    -0.271 OA
ATOM     14  N   UNL     1       6.343  -1.220  23.564  0.00  0.00    -0.325 N 
ATOM     15  H   UNL     1       6.191  -0.948  24.527  0.00  0.00    +0.145 HD
ATOM     16  H   UNL     1       5.542  -1.450  22.989  0.00  0.00    +0.145 HD
ENDBRANCH   1  12
BRANCH   2  17
ATOM     17  O   UNL     1       9.201  -0.434  26.403  0.00  0.00    -0.384 OA
ATOM     18  H   UNL     1       8.611  -0.566  27.169  0.00  0.00    +0.210 HD
ENDBRANCH   2  17
BRANCH   3  19
ATOM     19  O   UNL     1       7.558   1.305  23.555  0.00  0.00    -0.386 OA
ATOM     20  H   UNL     1       6.675   1.063  23.905  0.00  0.00    +0.210 HD
ENDBRANCH   3  19
BRANCH   4  21
ATOM     21  O   UNL     1      10.953   1.103  24.891  0.00  0.00    -0.386 OA
ATOM     22  H   UNL     1      10.652   0.474  25.580  0.00  0.00    +0.210 HD
ENDBRANCH   4  21
BRANCH   5  23
ATOM     23  C   UNL     1       9.451   0.081  21.543  0.00  0.00    +0.190 C 
BRANCH  23  24
ATOM     24  O   UNL     1       9.336   1.450  21.181  0.00  0.00    -0.392 OA
ATOM     25  H   UNL     1       8.548   1.548  20.626  0.00  0.00    +0.210 HD
ENDBRANCH  23  24
ENDBRANCH   5  23
TORSDOF 7
ENDMDL
MODEL 7
REMARK VINA RESULT:      -5.2      2.394      5.228
REMARK  Name = 
REMARK  8 active torsions:
REMARK  status: ('A' for Active; 'I' for Inactive)
REMARK    1  A    between atoms: C_1  and  C_2
REMARK    2  A    between atoms: N_4  and  C_5
REMARK    3  A    between atoms: C_5  and  C_20
REMARK    4  A    between atoms: C_7  and  C_9
REMARK    5  A    between atoms: C_9  and  O_10
REMARK    6  A    between atoms: C_11  and  O_13
REMARK    7  A    between atoms: C_14  and  O_16
REMARK    8  A    between atoms: C_17  and  O_19
REMARK                            x       y       z     vdW  Elec       q    Type
REMARK                         _______ _______ _______ _____ _____    ______ ____
ROOT
ATOM      1  C   UNL     1       8.290  -1.452  23.346  0.00  0.00    +0.242 C 
ATOM      2  C   UNL     1       9.806  -1.402  22.973  0.00  0.00    +0.205 C 
ATOM      3  C   UNL     1      10.446  -0.061  23.389  0.00  0.00    +0.179 C 
ATOM      4  C   UNL     1       9.622   1.118  22.855  0.00  0.00    +0.177 C 
ATOM      5  C   UNL     1       8.148   1.002  23.295  0.00  0.00    +0.178 C 
ATOM      6  O   UNL     1       7.562  -0.271  22.961  0.00  0.00    -0.338 OA
ENDROOT
BRANCH   1   9
ATOM      7  C   UNL     1       7.073  -4.787  21.967  0.00  0.00    +0.109 C 
ATOM      8  C   UNL     1       7.829  -3.850  22.870  0.00  0.00    +0.212 C 
ATOM      9  N   UNL     1       7.561  -2.519  22.655  0.00  0.00    -0.278 N 
ATOM     10  H   UNL     1       7.067  -2.240  21.821  0.00  0.00    +0.152 HD
ATOM     11  O   UNL     1       8.590  -4.261  23.738  0.00  0.00    -0.276 OA
ENDBRANCH   1   9
BRANCH   1  12
ATOM     12  C   UNL     1       8.074  -1.728  24.876  0.00  0.00    +0.264 C 
ATOM     13  O   UNL     1       8.975  -1.795  25.708  0.00  0.00    -0.271 OA
ATOM     14  N   UNL     1       6.756  -1.802  25.270  0.00  0.00    -0.325 N 
ATOM     15  H   UNL     1       6.046  -1.397  24.673  0.00  0.00    +0.145 HD
ATOM     16  H   UNL     1       6.575  -1.876  26.263  0.00  0.00    +0.145 HD
ENDBRANCH   1  12
BRANCH   2  17
ATOM     17  O   UNL     1       9.993  -1.638  21.556  0.00  0.00    -0.384 OA
ATOM     18  H   UNL     1      10.427  -0.854  21.168  0.00  0.00    +0.210 HD
ENDBRANCH   2  17
BRANCH   3  19
ATOM     19  O   UNL     1      10.613   0.074  24.799  0.00  0.00    -0.386 OA
ATOM     20  H   UNL     1      10.992  -0.748  25.177  0.00  0.00    +0.210 HD
ENDBRANCH   3  19
BRANCH   4  21
ATOM     21  O   UNL     1       9.711   1.122  21.417  0.00  0.00    -0.386 OA
ATOM     22  H   UNL     1       8.990   0.550  21.083  0.00  0.00    +0.210 HD
ENDBRANCH   4  21
BRANCH   5  23
ATOM     23  C   UNL     1       7.908   1.418  24.759  0.00  0.00    +0.190 C 
BRANCH  23  24
ATOM     24  O   UNL     1       8.839   2.411  25.168  0.00  0.00    -0.392 OA
ATOM     25  H   UNL     1       8.835   2.444  26.137  0.00  0.00    +0.210 HD
ENDBRANCH  23  24
ENDBRANCH   5  23
TORSDOF 7
ENDMDL
MODEL 8
REMARK VINA RESULT:      -5.2      1.744      2.235
REMARK  Name = 
REMARK  8 active torsions:
REMARK  status: ('A' for Active; 'I' for Inactive)
REMARK    1  A    between atoms: C_1  and  C_2
REMARK    2  A    between atoms: N_4  and  C_5
REMARK    3  A    between atoms: C_5  and  C_20
REMARK    4  A    between atoms: C_7  and  C_9
REMARK    5  A    between atoms: C_9  and  O_10
REMARK    6  A    between atoms: C_11  and  O_13
REMARK    7  A    between atoms: C_14  and  O_16
REMARK    8  A    between atoms: C_17  and  O_19
REMARK                            x       y       z     vdW  Elec       q    Type
REMARK                         _______ _______ _______ _____ _____    ______ ____
ROOT
ATOM      1  C   UNL     1       8.538  -2.462  24.035  0.00  0.00    +0.242 C 
ATOM      2  C   UNL     1       7.215  -2.995  23.397  0.00  0.00    +0.205 C 
ATOM      3  C   UNL     1       6.708  -4.259  24.123  0.00  0.00    +0.179 C 
ATOM      4  C   UNL     1       7.826  -5.304  24.231  0.00  0.00    +0.177 C 
ATOM      5  C   UNL     1       9.079  -4.700  24.897  0.00  0.00    +0.178 C 
ATOM      6  O   UNL     1       9.524  -3.487  24.259  0.00  0.00    -0.338 OA
ENDROOT
BRANCH   1   9
ATOM      7  C   UNL     1       9.487   0.311  21.603  0.00  0.00    +0.109 C 
ATOM      8  C   UNL     1       8.614  -0.468  22.550  0.00  0.00    +0.212 C 
ATOM      9  N   UNL     1       9.251  -1.513  23.175  0.00  0.00    -0.278 N 
ATOM     10  H   UNL     1      10.149  -1.821  22.837  0.00  0.00    +0.152 HD
ATOM     11  O   UNL     1       7.445  -0.159  22.755  0.00  0.00    -0.276 OA
ENDBRANCH   1   9
BRANCH   1  12
ATOM     12  C   UNL     1       8.271  -1.687  25.373  0.00  0.00    +0.264 C 
ATOM     13  O   UNL     1       9.141  -1.352  26.172  0.00  0.00    -0.271 OA
ATOM     14  N   UNL     1       6.961  -1.306  25.568  0.00  0.00    -0.325 N 
ATOM     15  H   UNL     1       6.342  -1.264  24.769  0.00  0.00    +0.145 HD
ATOM     16  H   UNL     1       6.768  -0.717  26.368  0.00  0.00    +0.145 HD
ENDBRANCH   1  12
BRANCH   2  17
ATOM     17  O   UNL     1       7.397  -3.258  21.984  0.00  0.00    -0.384 OA
ATOM     18  H   UNL     1       7.991  -2.576  21.618  0.00  0.00    +0.210 HD
ENDBRANCH   2  17
BRANCH   3  19
ATOM     19  O   UNL     1       6.176  -3.993  25.419  0.00  0.00    -0.386 OA
ATOM     20  H   UNL     1       5.451  -3.335  25.362  0.00  0.00    +0.210 HD
ENDBRANCH   3  19
BRANCH   4  21
ATOM     21  O   UNL     1       8.144  -5.769  22.905  0.00  0.00    -0.386 OA
ATOM     22  H   UNL     1       8.666  -5.063  22.470  0.00  0.00    +0.210 HD
ENDBRANCH   4  21
BRANCH   5  23
ATOM     23  C   UNL     1       8.964  -4.576  26.429  0.00  0.00    +0.190 C 
BRANCH  23  24
ATOM     24  O   UNL     1       8.258  -5.679  26.979  0.00  0.00    -0.392 OA
ATOM     25  H   UNL     1       7.434  -5.786  26.480  0.00  0.00    +0.210 HD
ENDBRANCH  23  24
ENDBRANCH   5  23
TORSDOF 7
ENDMDL
MODEL 9
REMARK VINA RESULT:      -5.1      2.632      5.734
REMARK  Name = 
REMARK  8 active torsions:
REMARK  status: ('A' for Active; 'I' for Inactive)
REMARK    1  A    between atoms: C_1  and  C_2
REMARK    2  A    between atoms: N_4  and  C_5
REMARK    3  A    between atoms: C_5  and  C_20
REMARK    4  A    between atoms: C_7  and  C_9
REMARK    5  A    between atoms: C_9  and  O_10
REMARK    6  A    between atoms: C_11  and  O_13
REMARK    7  A    between atoms: C_14  and  O_16
REMARK    8  A    between atoms: C_17  and  O_19
REMARK                            x       y       z     vdW  Elec       q    Type
REMARK                         _______ _______ _______ _____ _____    ______ ____
ROOT
ATOM      1  C   UNL     1       8.582  -0.407  23.623  0.00  0.00    +0.242 C 
ATOM      2  C   UNL     1       9.835  -0.237  22.706  0.00  0.00    +0.205 C 
ATOM      3  C   UNL     1      10.096   1.249  22.378  0.00  0.00    +0.179 C 
ATOM      4  C   UNL     1       8.823   1.914  21.842  0.00  0.00    +0.177 C 
ATOM      5  C   UNL     1       7.648   1.721  22.822  0.00  0.00    +0.178 C 
ATOM      6  O   UNL     1       7.435   0.341  23.178  0.00  0.00    -0.338 OA
ENDROOT
BRANCH   1   9
ATOM      7  C   UNL     1       8.211  -4.198  23.625  0.00  0.00    +0.109 C 
ATOM      8  C   UNL     1       8.911  -2.870  23.743  0.00  0.00    +0.212 C 
ATOM      9  N   UNL     1       8.075  -1.782  23.656  0.00  0.00    -0.278 N 
ATOM     10  H   UNL     1       7.130  -1.906  23.328  0.00  0.00    +0.152 HD
ATOM     11  O   UNL     1      10.119  -2.790  23.932  0.00  0.00    -0.276 OA
ENDBRANCH   1   9
BRANCH   1  12
ATOM     12  C   UNL     1       8.898  -0.047  25.117  0.00  0.00    +0.264 C 
ATOM     13  O   UNL     1       8.052   0.098  25.995  0.00  0.00    -0.271 OA
ATOM     14  N   UNL     1      10.240   0.009  25.427  0.00  0.00    -0.325 N 
ATOM     15  H   UNL     1      10.900  -0.452  24.815  0.00  0.00    +0.145 HD
ATOM     16  H   UNL     1      10.482   0.138  26.401  0.00  0.00    +0.145 HD
ENDBRANCH   1  12
BRANCH   2  17
ATOM     17  O   UNL     1       9.689  -1.009  21.489  0.00  0.00    -0.384 OA
ATOM     18  H   UNL     1       8.833  -0.779  21.080  0.00  0.00    +0.210 HD
ENDBRANCH   2  17
BRANCH   3  19
ATOM     19  O   UNL     1      10.595   1.994  23.487  0.00  0.00    -0.386 OA
ATOM     20  H   UNL     1      11.376   2.523  23.219  0.00  0.00    +0.210 HD
ENDBRANCH   3  19
BRANCH   4  21
ATOM     21  O   UNL     1       8.505   1.328  20.565  0.00  0.00    -0.386 OA
ATOM     22  H   UNL     1       7.927   1.962  20.093  0.00  0.00    +0.210 HD
ENDBRANCH   4  21
BRANCH   5  23
ATOM     23  C   UNL     1       7.701   2.663  24.041  0.00  0.00    +0.190 C 
BRANCH  23  24
ATOM     24  O   UNL     1       6.552   2.501  24.862  0.00  0.00    -0.392 OA
ATOM     25  H   UNL     1       5.828   2.181  24.304  0.00  0.00    +0.210 HD
ENDBRANCH  23  24
ENDBRANCH   5  23
TORSDOF 7
ENDMDL
