MODEL 1
REMARK VINA RESULT:      -6.9      0.000      0.000
REMARK  Name = 
REMARK  14 active torsions:
REMARK  status: ('A' for Active; 'I' for Inactive)
REMARK    1  A    between atoms: N_10  and  C_11
REMARK    2  A    between atoms: C_14  and  C_16
REMARK    3  A    between atoms: C_16  and  O_17
REMARK    4  A    between atoms: O_17  and  P_18
REMARK    5  A    between atoms: P_18  and  O_19
REMARK    6  A    between atoms: P_18  and  O_21
REMARK    7  A    between atoms: O_21  and  P_22
REMARK    8  A    between atoms: P_22  and  O_23
REMARK    9  A    between atoms: P_22  and  N_25
REMARK   10  A    between atoms: N_25  and  P_26
REMARK   11  A    between atoms: P_26  and  O_27
REMARK   12  A    between atoms: P_26  and  O_28
REMARK   13  A    between atoms: C_30  and  O_32
REMARK   14  A    between atoms: C_33  and  O_35
REMARK                            x       y       z     vdW  Elec       q    Type
REMARK                         _______ _______ _______ _____ _____    ______ ____
ROOT
ATOM      1  C   UNL     1       7.556  -3.133  23.313  0.00  0.00    +0.253 C 
ATOM      2  C   UNL     1       8.130  -4.560  23.248  0.00  0.00    +0.195 C 
ATOM      3  C   UNL     1       8.600  -4.865  24.683  0.00  0.00    +0.178 C 
ATOM      4  C   UNL     1       8.209  -3.609  25.460  0.00  0.00    +0.178 C 
ATOM      5  O   UNL     1       7.152  -2.991  24.702  0.00  0.00    -0.346 OA
ENDROOT
BRANCH   1  13
ATOM      6  N   UNL     1      10.133   2.106  21.656  0.00  0.00    -0.341 N 
ATOM      7  H   UNL     1      11.040   1.731  21.919  0.00  0.00    +0.144 HD
ATOM      8  H   UNL     1       9.965   3.089  21.839  0.00  0.00    +0.144 HD
ATOM      9  C   UNL     1       9.067   1.322  22.080  0.00  0.00    +0.147 A 
ATOM     10  C   UNL     1       9.183  -0.046  22.380  0.00  0.00    +0.147 A 
ATOM     11  N   UNL     1      10.246  -0.925  22.345  0.00  0.00    -0.231 NA
ATOM     12  C   UNL     1       9.734  -2.080  22.713  0.00  0.00    +0.203 A 
ATOM     13  N   UNL     1       8.389  -1.992  22.990  0.00  0.00    -0.286 N 
ATOM     14  C   UNL     1       8.028  -0.688  22.797  0.00  0.00    +0.167 A 
ATOM     15  N   UNL     1       6.817  -0.138  22.944  0.00  0.00    -0.216 NA
ATOM     16  C   UNL     1       6.824   1.170  22.636  0.00  0.00    +0.225 A 
ATOM     17  N   UNL     1       7.863   1.920  22.219  0.00  0.00    -0.219 NA
ENDBRANCH   1  13
BRANCH   2  18
ATOM     18  O   UNL     1       7.068  -5.481  22.901  0.00  0.00    -0.385 OA
ATOM     19  H   UNL     1       6.654  -5.806  23.721  0.00  0.00    +0.210 HD
ENDBRANCH   2  18
BRANCH   3  20
ATOM     20  O   UNL     1      10.006  -5.074  24.748  0.00  0.00    -0.386 OA
ATOM     21  H   UNL     1      10.205  -5.728  25.450  0.00  0.00    +0.210 HD
ENDBRANCH   3  20
BRANCH   4  22
ATOM     22  C   UNL     1       7.766  -3.863  26.902  0.00  0.00    +0.206 C 
BRANCH  22  23
ATOM     23  O   UNL     1       6.395  -4.242  27.040  0.00  0.00    -0.284 OA
BRANCH  23  24
ATOM     24  P   UNL     1       6.052  -5.625  27.860  0.00  0.00    +0.483 P 
ATOM     25  O   UNL     1       5.801  -6.766  26.882  0.00  0.00    -0.227 OA
BRANCH  24  26
ATOM     26  O   UNL     1       7.733  -6.031  27.799  0.00  0.00    -0.302 OA
ATOM     27  H   UNL     1       8.053  -5.755  28.686  0.00  0.00    +0.222 HD
ENDBRANCH  24  26
BRANCH  24  28
ATOM     28  O   UNL     1       4.372  -5.219  27.921  0.00  0.00    -0.196 OA
BRANCH  28  29
ATOM     29  P   UNL     1       3.616  -5.663  26.430  0.00  0.00    +0.423 P 
ATOM     30  O   UNL     1       2.488  -4.659  26.662  0.00  0.00    -0.239 OA
BRANCH  29  31
ATOM     31  N   UNL     1       2.838  -6.121  24.896  0.00  0.00    -0.125 NA
ATOM     32  H   UNL     1       1.943  -5.636  24.944  0.00  0.00    +0.146 HD
BRANCH  31  33
ATOM     33  P   UNL     1       3.668  -5.310  23.546  0.00  0.00    +0.412 P 
ATOM     34  O   UNL     1       4.390  -4.603  22.372  0.00  0.00    -0.240 OA
BRANCH  33  35
ATOM     35  O   UNL     1       4.387  -6.746  23.284  0.00  0.00    -0.312 OA
ATOM     36  H   UNL     1       3.660  -7.366  23.066  0.00  0.00    +0.221 HD
ENDBRANCH  33  35
BRANCH  33  37
ATOM     37  O   UNL     1       4.714  -4.811  24.694  0.00  0.00    -0.312 OA
ATOM     38  H   UNL     1       4.494  -5.240  25.544  0.00  0.00    +0.221 HD
ENDBRANCH  33  37
ENDBRANCH  31  33
ENDBRANCH  29  31
BRANCH  29  39
ATOM     39  O   UNL     1       3.073  -7.027  27.138  0.00  0.00    -0.312 OA
ATOM     40  H   UNL     1       3.835  -7.641  27.220  0.00  0.00    +0.221 HD
ENDBRANCH  29  39
ENDBRANCH  28  29
ENDBRANCH  24  28
ENDBRANCH  23  24
ENDBRANCH  22  23
ENDBRANCH   4  22
TORSDOF 14
ENDMDL
MODEL 2
REMARK VINA RESULT:      -6.6      1.726      2.486
REMARK  Name = 
REMARK  14 active torsions:
REMARK  status: ('A' for Active; 'I' for Inactive)
REMARK    1  A    between atoms: N_10  and  C_11
REMARK    2  A    between atoms: C_14  and  C_16
REMARK    3  A    between atoms: C_16  and  O_17
REMARK    4  A    between atoms: O_17  and  P_18
REMARK    5  A    between atoms: P_18  and  O_19
REMARK    6  A    between atoms: P_18  and  O_21
REMARK    7  A    between atoms: O_21  and  P_22
REMARK    8  A    between atoms: P_22  and  O_23
REMARK    9  A    between atoms: P_22  and  N_25
REMARK   10  A    between atoms: N_25  and  P_26
REMARK   11  A    between atoms: P_26  and  O_27
REMARK   12  A    between atoms: P_26  and  O_28
REMARK   13  A    between atoms: C_30  and  O_32
REMARK   14  A    between atoms: C_33  and  O_35
REMARK                            x       y       z     vdW  Elec       q    Type
REMARK                         _______ _______ _______ _____ _____    ______ ____
ROOT
ATOM      1  C   UNL     1       7.362  -3.080  23.384  0.00  0.00    +0.253 C 
ATOM      2  C   UNL     1       7.839  -4.536  23.234  0.00  0.00    +0.195 C 
ATOM      3  C   UNL     1       8.413  -4.910  24.613  0.00  0.00    +0.178 C 
ATOM      4  C   UNL     1       8.169  -3.657  25.452  0.00  0.00    +0.178 C 
ATOM      5  O   UNL     1       7.090  -2.954  24.806  0.00  0.00    -0.346 OA
ENDROOT
BRANCH   1  13
ATOM      6  N   UNL     1      10.102   2.046  21.635  0.00  0.00    -0.341 N 
ATOM      7  H   UNL     1      11.004   1.608  21.803  0.00  0.00    +0.144 HD
ATOM      8  H   UNL     1      10.014   3.030  21.859  0.00  0.00    +0.144 HD
ATOM      9  C   UNL     1       9.033   1.314  22.135  0.00  0.00    +0.147 A 
ATOM     10  C   UNL     1       9.089  -0.067  22.386  0.00  0.00    +0.147 A 
ATOM     11  N   UNL     1      10.087  -1.007  22.230  0.00  0.00    -0.231 NA
ATOM     12  C   UNL     1       9.538  -2.141  22.612  0.00  0.00    +0.203 A 
ATOM     13  N   UNL     1       8.232  -1.981  23.016  0.00  0.00    -0.286 N 
ATOM     14  C   UNL     1       7.938  -0.652  22.892  0.00  0.00    +0.167 A 
ATOM     15  N   UNL     1       6.783  -0.035  23.165  0.00  0.00    -0.216 NA
ATOM     16  C   UNL     1       6.844   1.280  22.893  0.00  0.00    +0.225 A 
ATOM     17  N   UNL     1       7.886   1.979  22.401  0.00  0.00    -0.219 NA
ENDBRANCH   1  13
BRANCH   2  18
ATOM     18  O   UNL     1       6.696  -5.381  22.961  0.00  0.00    -0.385 OA
ATOM     19  H   UNL     1       5.950  -4.819  22.682  0.00  0.00    +0.210 HD
ENDBRANCH   2  18
BRANCH   3  20
ATOM     20  O   UNL     1       9.804  -5.204  24.547  0.00  0.00    -0.386 OA
ATOM     21  H   UNL     1      10.126  -5.448  25.440  0.00  0.00    +0.210 HD
ENDBRANCH   3  20
BRANCH   4  22
ATOM     22  C   UNL     1       7.840  -3.926  26.921  0.00  0.00    +0.206 C 
BRANCH  22  23
ATOM     23  O   UNL     1       6.445  -4.069  27.196  0.00  0.00    -0.284 OA
BRANCH  23  24
ATOM     24  P   UNL     1       5.891  -5.551  27.644  0.00  0.00    +0.483 P 
ATOM     25  O   UNL     1       5.888  -6.493  26.447  0.00  0.00    -0.227 OA
BRANCH  24  26
ATOM     26  O   UNL     1       7.528  -6.031  27.933  0.00  0.00    -0.302 OA
ATOM     27  H   UNL     1       7.933  -5.209  28.289  0.00  0.00    +0.222 HD
ENDBRANCH  24  26
BRANCH  24  28
ATOM     28  O   UNL     1       4.254  -5.071  27.355  0.00  0.00    -0.196 OA
BRANCH  28  29
ATOM     29  P   UNL     1       4.236  -3.571  26.493  0.00  0.00    +0.423 P 
ATOM     30  O   UNL     1       2.709  -3.531  26.523  0.00  0.00    -0.239 OA
BRANCH  29  31
ATOM     31  N   UNL     1       4.218  -2.029  25.604  0.00  0.00    -0.125 NA
ATOM     32  H   UNL     1       3.226  -1.892  25.411  0.00  0.00    +0.146 HD
BRANCH  31  33
ATOM     33  P   UNL     1       4.603  -0.698  26.721  0.00  0.00    +0.412 P 
ATOM     34  O   UNL     1       4.938   0.461  27.693  0.00  0.00    -0.240 OA
BRANCH  33  35
ATOM     35  O   UNL     1       6.092  -0.740  26.065  0.00  0.00    -0.312 OA
ATOM     36  H   UNL     1       6.438   0.174  26.144  0.00  0.00    +0.221 HD
ENDBRANCH  33  35
BRANCH  33  37
ATOM     37  O   UNL     1       4.869  -1.890  27.803  0.00  0.00    -0.312 OA
ATOM     38  H   UNL     1       4.021  -2.322  28.025  0.00  0.00    +0.221 HD
ENDBRANCH  33  37
ENDBRANCH  31  33
ENDBRANCH  29  31
BRANCH  29  39
ATOM     39  O   UNL     1       4.575  -4.383  25.121  0.00  0.00    -0.312 OA
ATOM     40  H   UNL     1       3.739  -4.467  24.613  0.00  0.00    +0.221 HD
ENDBRANCH  29  39
ENDBRANCH  28  29
ENDBRANCH  24  28
ENDBRANCH  23  24
ENDBRANCH  22  23
ENDBRANCH   4  22
TORSDOF 14
ENDMDL
MODEL 3
REMARK VINA RESULT:      -6.6      4.477      8.005
REMARK  Name = 
REMARK  14 active torsions:
REMARK  status: ('A' for Active; 'I' for Inactive)
REMARK    1  A    between atoms: N_10  and  C_11
REMARK    2  A    between atoms: C_14  and  C_16
REMARK    3  A    between atoms: C_16  and  O_17
REMARK    4  A    between atoms: O_17  and  P_18
REMARK    5  A    between atoms: P_18  and  O_19
REMARK    6  A    between atoms: P_18  and  O_21
REMARK    7  A    between atoms: O_21  and  P_22
REMARK    8  A    between atoms: P_22  and  O_23
REMARK    9  A    between atoms: P_22  and  N_25
REMARK   10  A    between atoms: N_25  and  P_26
REMARK   11  A    between atoms: P_26  and  O_27
REMARK   12  A    between atoms: P_26  and  O_28
REMARK   13  A    between atoms: C_30  and  O_32
REMARK   14  A    between atoms: C_33  and  O_35
REMARK                            x       y       z     vdW  Elec       q    Type
REMARK                         _______ _______ _______ _____ _____    ______ ____
ROOT
ATOM      1  C   UNL     1       8.143  -5.119  26.203  0.00  0.00    +0.253 C 
ATOM      2  C   UNL     1       8.779  -5.154  24.801  0.00  0.00    +0.195 C 
ATOM      3  C   UNL     1       8.541  -3.747  24.222  0.00  0.00    +0.178 C 
ATOM      4  C   UNL     1       7.837  -3.009  25.360  0.00  0.00    +0.178 C 
ATOM      5  O   UNL     1       8.191  -3.713  26.565  0.00  0.00    -0.346 OA
ENDROOT
BRANCH   1  13
ATOM      6  N   UNL     1       2.761  -7.272  28.004  0.00  0.00    -0.341 N 
ATOM      7  H   UNL     1       2.375  -7.039  27.094  0.00  0.00    +0.144 HD
ATOM      8  H   UNL     1       2.161  -7.147  28.810  0.00  0.00    +0.144 HD
ATOM      9  C   UNL     1       4.024  -6.736  28.222  0.00  0.00    +0.147 A 
ATOM     10  C   UNL     1       4.892  -6.352  27.187  0.00  0.00    +0.147 A 
ATOM     11  N   UNL     1       4.783  -6.389  25.812  0.00  0.00    -0.231 NA
ATOM     12  C   UNL     1       5.931  -5.915  25.374  0.00  0.00    +0.203 A 
ATOM     13  N   UNL     1       6.779  -5.566  26.401  0.00  0.00    -0.286 N 
ATOM     14  C   UNL     1       6.116  -5.825  27.568  0.00  0.00    +0.167 A 
ATOM     15  N   UNL     1       6.553  -5.645  28.820  0.00  0.00    -0.216 NA
ATOM     16  C   UNL     1       5.643  -6.040  29.726  0.00  0.00    +0.225 A 
ATOM     17  N   UNL     1       4.422  -6.567  29.503  0.00  0.00    -0.219 NA
ENDBRANCH   1  13
BRANCH   2  18
ATOM     18  O   UNL     1      10.204  -5.368  24.935  0.00  0.00    -0.385 OA
ATOM     19  H   UNL     1      10.513  -4.925  25.747  0.00  0.00    +0.210 HD
ENDBRANCH   2  18
BRANCH   3  20
ATOM     20  O   UNL     1       7.717  -3.781  23.064  0.00  0.00    -0.386 OA
ATOM     21  H   UNL     1       6.832  -3.423  23.284  0.00  0.00    +0.210 HD
ENDBRANCH   3  20
BRANCH   4  22
ATOM     22  C   UNL     1       8.191  -1.525  25.473  0.00  0.00    +0.206 C 
BRANCH  22  23
ATOM     23  O   UNL     1       8.908  -1.002  24.353  0.00  0.00    -0.284 OA
BRANCH  23  24
ATOM     24  P   UNL     1      10.098   0.095  24.638  0.00  0.00    +0.483 P 
ATOM     25  O   UNL     1       9.523   1.506  24.629  0.00  0.00    -0.227 OA
BRANCH  24  26
ATOM     26  O   UNL     1       9.709   0.020  26.322  0.00  0.00    -0.302 OA
ATOM     27  H   UNL     1      10.013  -0.881  26.573  0.00  0.00    +0.222 HD
ENDBRANCH  24  26
BRANCH  24  28
ATOM     28  O   UNL     1      10.487   0.171  22.954  0.00  0.00    -0.196 OA
BRANCH  28  29
ATOM     29  P   UNL     1       9.245   1.031  22.113  0.00  0.00    +0.423 P 
ATOM     30  O   UNL     1       9.276   0.025  20.964  0.00  0.00    -0.239 OA
BRANCH  29  31
ATOM     31  N   UNL     1       7.966   1.918  21.247  0.00  0.00    -0.125 NA
ATOM     32  H   UNL     1       7.539   1.192  20.672  0.00  0.00    +0.146 HD
BRANCH  31  33
ATOM     33  P   UNL     1       6.669   2.350  22.387  0.00  0.00    +0.412 P 
ATOM     34  O   UNL     1       5.540   2.725  23.379  0.00  0.00    -0.240 OA
BRANCH  33  35
ATOM     35  O   UNL     1       7.823   3.153  23.207  0.00  0.00    -0.312 OA
ATOM     36  H   UNL     1       8.027   2.594  23.985  0.00  0.00    +0.221 HD
ENDBRANCH  33  35
BRANCH  33  37
ATOM     37  O   UNL     1       6.982   0.893  23.052  0.00  0.00    -0.312 OA
ATOM     38  H   UNL     1       6.362   0.230  22.691  0.00  0.00    +0.221 HD
ENDBRANCH  33  37
ENDBRANCH  31  33
ENDBRANCH  29  31
BRANCH  29  39
ATOM     39  O   UNL     1      10.346   2.151  21.679  0.00  0.00    -0.312 OA
ATOM     40  H   UNL     1       9.858   2.973  21.450  0.00  0.00    +0.221 HD
ENDBRANCH  29  39
ENDBRANCH  28  29
ENDBRANCH  24  28
ENDBRANCH  23  24
ENDBRANCH  22  23
ENDBRANCH   4  22
TORSDOF 14
ENDMDL
MODEL 4
REMARK VINA RESULT:      -6.6      1.981      2.394
REMARK  Name = 
REMARK  14 active torsions:
REMARK  status: ('A' for Active; 'I' for Inactive)
REMARK    1  A    between atoms: N_10  and  C_11
REMARK    2  A    between atoms: C_14  and  C_16
REMARK    3  A    between atoms: C_16  and  O_17
REMARK    4  A    between atoms: O_17  and  P_18
REMARK    5  A    between atoms: P_18  and  O_19
REMARK    6  A    between atoms: P_18  and  O_21
REMARK    7  A    between atoms: O_21  and  P_22
REMARK    8  A    between atoms: P_22  and  O_23
REMARK    9  A    between atoms: P_22  and  N_25
REMARK   10  A    between atoms: N_25  and  P_26
REMARK   11  A    between atoms: P_26  and  O_27
REMARK   12  A    between atoms: P_26  and  O_28
REMARK   13  A    between atoms: C_30  and  O_32
REMARK   14  A    between atoms: C_33  and  O_35
REMARK                            x       y       z     vdW  Elec       q    Type
REMARK                         _______ _______ _______ _____ _____    ______ ____
ROOT
ATOM      1  C   UNL     1       7.848  -0.717  23.103  0.00  0.00    +0.253 C 
ATOM      2  C   UNL     1       8.369  -2.060  22.562  0.00  0.00    +0.195 C 
ATOM      3  C   UNL     1       8.943  -2.788  23.792  0.00  0.00    +0.178 C 
ATOM      4  C   UNL     1       8.656  -1.824  24.942  0.00  0.00    +0.178 C 
ATOM      5  O   UNL     1       7.562  -0.999  24.499  0.00  0.00    -0.346 OA
ENDROOT
BRANCH   1  13
ATOM      6  N   UNL     1      10.542   4.712  23.425  0.00  0.00    -0.341 N 
ATOM      7  H   UNL     1      11.364   4.320  22.973  0.00  0.00    +0.144 HD
ATOM      8  H   UNL     1      10.696   5.406  24.147  0.00  0.00    +0.144 HD
ATOM      9  C   UNL     1       9.623   3.753  23.829  0.00  0.00    +0.147 A 
ATOM     10  C   UNL     1       9.549   2.466  23.270  0.00  0.00    +0.147 A 
ATOM     11  N   UNL     1      10.264   1.837  22.271  0.00  0.00    -0.231 NA
ATOM     12  C   UNL     1       9.719   0.642  22.174  0.00  0.00    +0.203 A 
ATOM     13  N   UNL     1       8.688   0.464  23.068  0.00  0.00    -0.286 N 
ATOM     14  C   UNL     1       8.581   1.620  23.788  0.00  0.00    +0.167 A 
ATOM     15  N   UNL     1       7.713   1.904  24.766  0.00  0.00    -0.216 NA
ATOM     16  C   UNL     1       7.877   3.155  25.230  0.00  0.00    +0.225 A 
ATOM     17  N   UNL     1       8.769   4.081  24.824  0.00  0.00    -0.219 NA
ENDBRANCH   1  13
BRANCH   2  18
ATOM     18  O   UNL     1       7.253  -2.826  22.047  0.00  0.00    -0.385 OA
ATOM     19  H   UNL     1       6.735  -3.169  22.798  0.00  0.00    +0.210 HD
ENDBRANCH   2  18
BRANCH   3  20
ATOM     20  O   UNL     1      10.342  -3.016  23.669  0.00  0.00    -0.386 OA
ATOM     21  H   UNL     1      10.545  -3.306  22.756  0.00  0.00    +0.210 HD
ENDBRANCH   3  20
BRANCH   4  22
ATOM     22  C   UNL     1       8.323  -2.500  26.273  0.00  0.00    +0.206 C 
BRANCH  22  23
ATOM     23  O   UNL     1       7.237  -3.426  26.209  0.00  0.00    -0.284 OA
BRANCH  23  24
ATOM     24  P   UNL     1       7.387  -4.853  27.012  0.00  0.00    +0.483 P 
ATOM     25  O   UNL     1       7.586  -5.993  26.021  0.00  0.00    -0.227 OA
BRANCH  24  26
ATOM     26  O   UNL     1       9.102  -4.633  27.001  0.00  0.00    -0.302 OA
ATOM     27  H   UNL     1       9.194  -3.655  27.030  0.00  0.00    +0.222 HD
ENDBRANCH  24  26
BRANCH  24  28
ATOM     28  O   UNL     1       5.671  -5.073  27.022  0.00  0.00    -0.196 OA
BRANCH  28  29
ATOM     29  P   UNL     1       5.188  -5.914  25.590  0.00  0.00    +0.423 P 
ATOM     30  O   UNL     1       3.815  -5.244  25.617  0.00  0.00    -0.239 OA
BRANCH  29  31
ATOM     31  N   UNL     1       4.691  -6.780  24.116  0.00  0.00    -0.125 NA
ATOM     32  H   UNL     1       3.679  -6.656  24.112  0.00  0.00    +0.146 HD
BRANCH  31  33
ATOM     33  P   UNL     1       5.218  -5.863  22.684  0.00  0.00    +0.412 P 
ATOM     34  O   UNL     1       5.675  -5.064  21.438  0.00  0.00    -0.240 OA
BRANCH  33  35
ATOM     35  O   UNL     1       5.918  -4.845  23.744  0.00  0.00    -0.312 OA
ATOM     36  H   UNL     1       6.649  -4.416  23.250  0.00  0.00    +0.221 HD
ENDBRANCH  33  35
BRANCH  33  37
ATOM     37  O   UNL     1       3.735  -5.186  22.766  0.00  0.00    -0.312 OA
ATOM     38  H   UNL     1       3.724  -4.362  22.242  0.00  0.00    +0.221 HD
ENDBRANCH  33  37
ENDBRANCH  31  33
ENDBRANCH  29  31
BRANCH  29  39
ATOM     39  O   UNL     1       4.979  -7.263  26.479  0.00  0.00    -0.312 OA
ATOM     40  H   UNL     1       5.484  -7.985  26.045  0.00  0.00    +0.221 HD
ENDBRANCH  29  39
ENDBRANCH  28  29
ENDBRANCH  24  28
ENDBRANCH  23  24
ENDBRANCH  22  23
ENDBRANCH   4  22
TORSDOF 14
ENDMDL
MODEL 5
REMARK VINA RESULT:      -6.5      1.089      1.511
REMARK  Name = 
REMARK  14 active torsions:
REMARK  status: ('A' for Active; 'I' for Inactive)
REMARK    1  A    between atoms: N_10  and  C_11
REMARK    2  A    between atoms: C_14  and  C_16
REMARK    3  A    between atoms: C_16  and  O_17
REMARK    4  A    between atoms: O_17  and  P_18
REMARK    5  A    between atoms: P_18  and  O_19
REMARK    6  A    between atoms: P_18  and  O_21
REMARK    7  A    between atoms: O_21  and  P_22
REMARK    8  A    between atoms: P_22  and  O_23
REMARK    9  A    between atoms: P_22  and  N_25
REMARK   10  A    between atoms: N_25  and  P_26
REMARK   11  A    between atoms: P_26  and  O_27
REMARK   12  A    between atoms: P_26  and  O_28
REMARK   13  A    between atoms: C_30  and  O_32
REMARK   14  A    between atoms: C_33  and  O_35
REMARK                            x       y       z     vdW  Elec       q    Type
REMARK                         _______ _______ _______ _____ _____    ______ ____
ROOT
ATOM      1  C   UNL     1       7.438  -3.307  23.444  0.00  0.00    +0.253 C 
ATOM      2  C   UNL     1       7.975  -4.747  23.347  0.00  0.00    +0.195 C 
ATOM      3  C   UNL     1       8.455  -5.088  24.770  0.00  0.00    +0.178 C 
ATOM      4  C   UNL     1       8.105  -3.837  25.573  0.00  0.00    +0.178 C 
ATOM      5  O   UNL     1       7.055  -3.179  24.840  0.00  0.00    -0.346 OA
ENDROOT
BRANCH   1  13
ATOM      6  N   UNL     1      10.130   1.878  21.800  0.00  0.00    -0.341 N 
ATOM      7  H   UNL     1      11.026   1.491  22.085  0.00  0.00    +0.144 HD
ATOM      8  H   UNL     1       9.974   2.864  21.971  0.00  0.00    +0.144 HD
ATOM      9  C   UNL     1       9.044   1.114  22.207  0.00  0.00    +0.147 A 
ATOM     10  C   UNL     1       9.132  -0.253  22.521  0.00  0.00    +0.147 A 
ATOM     11  N   UNL     1      10.182  -1.149  22.516  0.00  0.00    -0.231 NA
ATOM     12  C   UNL     1       9.644  -2.293  22.882  0.00  0.00    +0.203 A 
ATOM     13  N   UNL     1       8.295  -2.182  23.130  0.00  0.00    -0.286 N 
ATOM     14  C   UNL     1       7.959  -0.874  22.919  0.00  0.00    +0.167 A 
ATOM     15  N   UNL     1       6.754  -0.305  23.035  0.00  0.00    -0.216 NA
ATOM     16  C   UNL     1       6.787   1.001  22.717  0.00  0.00    +0.225 A 
ATOM     17  N   UNL     1       7.847   1.731  22.316  0.00  0.00    -0.219 NA
ENDBRANCH   1  13
BRANCH   2  18
ATOM     18  O   UNL     1       6.885  -5.634  22.998  0.00  0.00    -0.385 OA
ATOM     19  H   UNL     1       7.232  -6.352  22.438  0.00  0.00    +0.210 HD
ENDBRANCH   2  18
BRANCH   3  20
ATOM     20  O   UNL     1       9.856  -5.333  24.813  0.00  0.00    -0.386 OA
ATOM     21  H   UNL     1      10.337  -4.495  24.656  0.00  0.00    +0.210 HD
ENDBRANCH   3  20
BRANCH   4  22
ATOM     22  C   UNL     1       7.674  -4.105  27.017  0.00  0.00    +0.206 C 
BRANCH  22  23
ATOM     23  O   UNL     1       7.439  -5.482  27.316  0.00  0.00    -0.284 OA
BRANCH  23  24
ATOM     24  P   UNL     1       5.911  -5.938  27.714  0.00  0.00    +0.483 P 
ATOM     25  O   UNL     1       5.932  -7.302  28.394  0.00  0.00    -0.227 OA
BRANCH  24  26
ATOM     26  O   UNL     1       6.150  -5.231  29.275  0.00  0.00    -0.302 OA
ATOM     27  H   UNL     1       6.409  -6.004  29.824  0.00  0.00    +0.222 HD
ENDBRANCH  24  26
BRANCH  24  28
ATOM     28  O   UNL     1       5.673  -6.645  26.154  0.00  0.00    -0.196 OA
BRANCH  28  29
ATOM     29  P   UNL     1       4.061  -6.323  25.615  0.00  0.00    +0.423 P 
ATOM     30  O   UNL     1       4.551  -5.193  24.711  0.00  0.00    -0.239 OA
BRANCH  29  31
ATOM     31  N   UNL     1       2.402  -5.992  25.060  0.00  0.00    -0.125 NA
ATOM     32  H   UNL     1       2.505  -5.111  24.556  0.00  0.00    +0.146 HD
BRANCH  31  33
ATOM     33  P   UNL     1       1.965  -7.145  23.777  0.00  0.00    +0.412 P 
ATOM     34  O   UNL     1       1.584  -8.148  22.660  0.00  0.00    -0.240 OA
BRANCH  33  35
ATOM     35  O   UNL     1       3.444  -7.782  24.013  0.00  0.00    -0.312 OA
ATOM     36  H   UNL     1       3.772  -8.016  23.119  0.00  0.00    +0.221 HD
ENDBRANCH  33  35
BRANCH  33  37
ATOM     37  O   UNL     1       2.456  -5.964  22.764  0.00  0.00    -0.312 OA
ATOM     38  H   UNL     1       2.427  -5.104  23.228  0.00  0.00    +0.221 HD
ENDBRANCH  33  37
ENDBRANCH  31  33
ENDBRANCH  29  31
BRANCH  29  39
ATOM     39  O   UNL     1       3.759  -5.582  27.034  0.00  0.00    -0.312 OA
ATOM     40  H   UNL     1       4.401  -4.843  27.124  0.00  0.00    +0.221 HD
ENDBRANCH  29  39
ENDBRANCH  28  29
ENDBRANCH  24  28
ENDBRANCH  23  24
ENDBRANCH  22  23
ENDBRANCH   4  22
TORSDOF 14
ENDMDL
MODEL 6
REMARK VINA RESULT:      -6.5      1.641      2.132
REMARK  Name = 
REMARK  14 active torsions:
REMARK  status: ('A' for Active; 'I' for Inactive)
REMARK    1  A    between atoms: N_10  and  C_11
REMARK    2  A    between atoms: C_14  and  C_16
REMARK    3  A    between atoms: C_16  and  O_17
REMARK    4  A    between atoms: O_17  and  P_18
REMARK    5  A    between atoms: P_18  and  O_19
REMARK    6  A    between atoms: P_18  and  O_21
REMARK    7  A    between atoms: O_21  and  P_22
REMARK    8  A    between atoms: P_22  and  O_23
REMARK    9  A    between atoms: P_22  and  N_25
REMARK   10  A    between atoms: N_25  and  P_26
REMARK   11  A    between atoms: P_26  and  O_27
REMARK   12  A    between atoms: P_26  and  O_28
REMARK   13  A    between atoms: C_30  and  O_32
REMARK   14  A    between atoms: C_33  and  O_35
REMARK                            x       y       z     vdW  Elec       q    Type
REMARK                         _______ _______ _______ _____ _____    ______ ____
ROOT
ATOM      1  C   UNL     1       8.260  -3.205  24.206  0.00  0.00    +0.253 C 
ATOM      2  C   UNL     1       9.059  -4.422  24.706  0.00  0.00    +0.195 C 
ATOM      3  C   UNL     1       8.538  -4.681  26.132  0.00  0.00    +0.178 C 
ATOM      4  C   UNL     1       7.449  -3.626  26.310  0.00  0.00    +0.178 C 
ATOM      5  O   UNL     1       7.031  -3.262  24.980  0.00  0.00    -0.346 OA
ENDROOT
BRANCH   1  13
ATOM      6  N   UNL     1      10.778   2.301  23.787  0.00  0.00    -0.341 N 
ATOM      7  H   UNL     1      10.553   2.467  24.765  0.00  0.00    +0.144 HD
ATOM      8  H   UNL     1      10.704   3.088  23.153  0.00  0.00    +0.144 HD
ATOM      9  C   UNL     1      10.167   1.168  23.265  0.00  0.00    +0.147 A 
ATOM     10  C   UNL     1       9.711   0.099  24.054  0.00  0.00    +0.147 A 
ATOM     11  N   UNL     1       9.732  -0.135  25.414  0.00  0.00    -0.231 NA
ATOM     12  C   UNL     1       9.179  -1.322  25.555  0.00  0.00    +0.203 A 
ATOM     13  N   UNL     1       8.795  -1.866  24.351  0.00  0.00    -0.286 N 
ATOM     14  C   UNL     1       9.115  -0.956  23.383  0.00  0.00    +0.167 A 
ATOM     15  N   UNL     1       8.930  -1.060  22.062  0.00  0.00    -0.216 NA
ATOM     16  C   UNL     1       9.397   0.017  21.408  0.00  0.00    +0.225 A 
ATOM     17  N   UNL     1       9.995   1.109  21.925  0.00  0.00    -0.219 NA
ENDBRANCH   1  13
BRANCH   2  18
ATOM     18  O   UNL     1       8.741  -5.568  23.879  0.00  0.00    -0.385 OA
ATOM     19  H   UNL     1       8.901  -5.336  22.947  0.00  0.00    +0.210 HD
ENDBRANCH   2  18
BRANCH   3  20
ATOM     20  O   UNL     1       9.559  -4.515  27.109  0.00  0.00    -0.386 OA
ATOM     21  H   UNL     1       9.510  -3.608  27.477  0.00  0.00    +0.210 HD
ENDBRANCH   3  20
BRANCH   4  22
ATOM     22  C   UNL     1       6.253  -4.078  27.151  0.00  0.00    +0.206 C 
BRANCH  22  23
ATOM     23  O   UNL     1       6.169  -5.491  27.345  0.00  0.00    -0.284 OA
BRANCH  23  24
ATOM     24  P   UNL     1       4.693  -6.204  27.220  0.00  0.00    +0.483 P 
ATOM     25  O   UNL     1       4.640  -7.086  25.979  0.00  0.00    -0.227 OA
BRANCH  24  26
ATOM     26  O   UNL     1       5.323  -7.566  28.080  0.00  0.00    -0.302 OA
ATOM     27  H   UNL     1       4.515  -7.963  28.475  0.00  0.00    +0.222 HD
ENDBRANCH  24  26
BRANCH  24  28
ATOM     28  O   UNL     1       4.063  -4.841  26.361  0.00  0.00    -0.196 OA
BRANCH  28  29
ATOM     29  P   UNL     1       3.929  -5.231  24.681  0.00  0.00    +0.423 P 
ATOM     30  O   UNL     1       3.819  -3.752  24.310  0.00  0.00    -0.239 OA
BRANCH  29  31
ATOM     31  N   UNL     1       3.791  -5.632  22.952  0.00  0.00    -0.125 NA
ATOM     32  H   UNL     1       3.469  -4.755  22.542  0.00  0.00    +0.146 HD
BRANCH  31  33
ATOM     33  P   UNL     1       5.417  -5.831  22.258  0.00  0.00    +0.412 P 
ATOM     34  O   UNL     1       6.833  -6.004  21.654  0.00  0.00    -0.240 OA
BRANCH  33  35
ATOM     35  O   UNL     1       5.954  -5.705  23.789  0.00  0.00    -0.312 OA
ATOM     36  H   UNL     1       5.151  -5.581  24.338  0.00  0.00    +0.221 HD
ENDBRANCH  33  35
BRANCH  33  37
ATOM     37  O   UNL     1       5.327  -4.224  21.985  0.00  0.00    -0.312 OA
ATOM     38  H   UNL     1       5.783  -4.011  21.148  0.00  0.00    +0.221 HD
ENDBRANCH  33  37
ENDBRANCH  31  33
ENDBRANCH  29  31
BRANCH  29  39
ATOM     39  O   UNL     1       2.384  -5.683  24.932  0.00  0.00    -0.312 OA
ATOM     40  H   UNL     1       2.214  -5.631  25.898  0.00  0.00    +0.221 HD
ENDBRANCH  29  39
ENDBRANCH  28  29
ENDBRANCH  24  28
ENDBRANCH  23  24
ENDBRANCH  22  23
ENDBRANCH   4  22
TORSDOF 14
ENDMDL
MODEL 7
REMARK VINA RESULT:      -6.4      1.662      3.588
REMARK  Name = 
REMARK  14 active torsions:
REMARK  status: ('A' for Active; 'I' for Inactive)
REMARK    1  A    between atoms: N_10  and  C_11
REMARK    2  A    between atoms: C_14  and  C_16
REMARK    3  A    between atoms: C_16  and  O_17
REMARK    4  A    between atoms: O_17  and  P_18
REMARK    5  A    between atoms: P_18  and  O_19
REMARK    6  A    between atoms: P_18  and  O_21
REMARK    7  A    between atoms: O_21  and  P_22
REMARK    8  A    between atoms: P_22  and  O_23
REMARK    9  A    between atoms: P_22  and  N_25
REMARK   10  A    between atoms: N_25  and  P_26
REMARK   11  A    between atoms: P_26  and  O_27
REMARK   12  A    between atoms: P_26  and  O_28
REMARK   13  A    between atoms: C_30  and  O_32
REMARK   14  A    between atoms: C_33  and  O_35
REMARK                            x       y       z     vdW  Elec       q    Type
REMARK                         _______ _______ _______ _____ _____    ______ ____
ROOT
ATOM      1  C   UNL     1       9.246  -3.378  24.553  0.00  0.00    +0.253 C 
ATOM      2  C   UNL     1       8.440  -3.235  25.857  0.00  0.00    +0.195 C 
ATOM      3  C   UNL     1       7.056  -3.828  25.536  0.00  0.00    +0.178 C 
ATOM      4  C   UNL     1       7.201  -4.309  24.094  0.00  0.00    +0.178 C 
ATOM      5  O   UNL     1       8.613  -4.501  23.882  0.00  0.00    -0.346 OA
ENDROOT
BRANCH   1  13
ATOM      6  N   UNL     1       9.557   1.816  21.430  0.00  0.00    -0.341 N 
ATOM      7  H   UNL     1       9.481   1.288  20.564  0.00  0.00    +0.144 HD
ATOM      8  H   UNL     1      10.162   2.628  21.428  0.00  0.00    +0.144 HD
ATOM      9  C   UNL     1       9.779   1.019  22.545  0.00  0.00    +0.147 A 
ATOM     10  C   UNL     1       9.449  -0.346  22.601  0.00  0.00    +0.147 A 
ATOM     11  N   UNL     1       8.869  -1.206  21.692  0.00  0.00    -0.231 NA
ATOM     12  C   UNL     1       8.793  -2.358  22.325  0.00  0.00    +0.203 A 
ATOM     13  N   UNL     1       9.302  -2.287  23.602  0.00  0.00    -0.286 N 
ATOM     14  C   UNL     1       9.741  -1.006  23.784  0.00  0.00    +0.167 A 
ATOM     15  N   UNL     1      10.307  -0.476  24.875  0.00  0.00    -0.216 NA
ATOM     16  C   UNL     1      10.584   0.829  24.709  0.00  0.00    +0.225 A 
ATOM     17  N   UNL     1      10.357   1.594  23.623  0.00  0.00    -0.219 NA
ENDBRANCH   1  13
BRANCH   2  18
ATOM     18  O   UNL     1       9.063  -4.039  26.888  0.00  0.00    -0.385 OA
ATOM     19  H   UNL     1      10.027  -4.046  26.741  0.00  0.00    +0.210 HD
ENDBRANCH   2  18
BRANCH   3  20
ATOM     20  O   UNL     1       6.024  -2.854  25.636  0.00  0.00    -0.386 OA
ATOM     21  H   UNL     1       5.785  -2.541  24.739  0.00  0.00    +0.210 HD
ENDBRANCH   3  20
BRANCH   4  22
ATOM     22  C   UNL     1       6.424  -5.585  23.765  0.00  0.00    +0.206 C 
BRANCH  22  23
ATOM     23  O   UNL     1       5.143  -5.673  24.391  0.00  0.00    -0.284 OA
BRANCH  23  24
ATOM     24  P   UNL     1       3.856  -6.111  23.466  0.00  0.00    +0.483 P 
ATOM     25  O   UNL     1       3.120  -4.871  22.972  0.00  0.00    -0.227 OA
BRANCH  24  26
ATOM     26  O   UNL     1       4.869  -5.985  22.069  0.00  0.00    -0.302 OA
ATOM     27  H   UNL     1       4.306  -5.482  21.440  0.00  0.00    +0.222 HD
ENDBRANCH  24  26
BRANCH  24  28
ATOM     28  O   UNL     1       2.844  -6.236  24.863  0.00  0.00    -0.196 OA
BRANCH  28  29
ATOM     29  P   UNL     1       3.687  -5.625  26.244  0.00  0.00    +0.423 P 
ATOM     30  O   UNL     1       2.507  -5.958  27.156  0.00  0.00    -0.239 OA
BRANCH  29  31
ATOM     31  N   UNL     1       4.555  -4.996  27.665  0.00  0.00    -0.125 NA
ATOM     32  H   UNL     1       3.811  -4.884  28.353  0.00  0.00    +0.146 HD
BRANCH  31  33
ATOM     33  P   UNL     1       5.563  -6.285  28.363  0.00  0.00    +0.412 P 
ATOM     34  O   UNL     1       6.439  -7.408  28.971  0.00  0.00    -0.240 OA
BRANCH  33  35
ATOM     35  O   UNL     1       5.100  -7.175  27.081  0.00  0.00    -0.312 OA
ATOM     36  H   UNL     1       5.931  -7.436  26.631  0.00  0.00    +0.221 HD
ENDBRANCH  33  35
BRANCH  33  37
ATOM     37  O   UNL     1       4.245  -6.609  29.270  0.00  0.00    -0.312 OA
ATOM     38  H   UNL     1       3.664  -5.825  29.290  0.00  0.00    +0.221 HD
ENDBRANCH  33  37
ENDBRANCH  31  33
ENDBRANCH  29  31
BRANCH  29  39
ATOM     39  O   UNL     1       3.370  -4.109  25.738  0.00  0.00    -0.312 OA
ATOM     40  H   UNL     1       3.193  -3.562  26.535  0.00  0.00    +0.221 HD
ENDBRANCH  29  39
ENDBRANCH  28  29
ENDBRANCH  24  28
ENDBRANCH  23  24
ENDBRANCH  22  23
ENDBRANCH   4  22
TORSDOF 14
ENDMDL
MODEL 8
REMARK VINA RESULT:      -6.3      4.456      7.660
REMARK  Name = 
REMARK  14 active torsions:
REMARK  status: ('A' for Active; 'I' for Inactive)
REMARK    1  A    between atoms: N_10  and  C_11
REMARK    2  A    between atoms: C_14  and  C_16
REMARK    3  A    between atoms: C_16  and  O_17
REMARK    4  A    between atoms: O_17  and  P_18
REMARK    5  A    between atoms: P_18  and  O_19
REMARK    6  A    between atoms: P_18  and  O_21
REMARK    7  A    between atoms: O_21  and  P_22
REMARK    8  A    between atoms: P_22  and  O_23
REMARK    9  A    between atoms: P_22  and  N_25
REMARK   10  A    between atoms: N_25  and  P_26
REMARK   11  A    between atoms: P_26  and  O_27
REMARK   12  A    between atoms: P_26  and  O_28
REMARK   13  A    between atoms: C_30  and  O_32
REMARK   14  A    between atoms: C_33  and  O_35
REMARK                            x       y       z     vdW  Elec       q    Type
REMARK                         _______ _______ _______ _____ _____    ______ ____
ROOT
ATOM      1  C   UNL     1       7.968  -5.035  25.910  0.00  0.00    +0.253 C 
ATOM      2  C   UNL     1       8.772  -5.015  24.598  0.00  0.00    +0.195 C 
ATOM      3  C   UNL     1       8.619  -3.580  24.060  0.00  0.00    +0.178 C 
ATOM      4  C   UNL     1       7.784  -2.885  25.134  0.00  0.00    +0.178 C 
ATOM      5  O   UNL     1       7.980  -3.647  26.340  0.00  0.00    -0.346 OA
ENDROOT
BRANCH   1  13
ATOM      6  N   UNL     1       2.152  -6.480  24.949  0.00  0.00    -0.341 N 
ATOM      7  H   UNL     1       2.103  -6.864  25.889  0.00  0.00    +0.144 HD
ATOM      8  H   UNL     1       1.632  -6.958  24.223  0.00  0.00    +0.144 HD
ATOM      9  C   UNL     1       3.446  -6.187  24.539  0.00  0.00    +0.147 A 
ATOM     10  C   UNL     1       4.509  -5.959  25.429  0.00  0.00    +0.147 A 
ATOM     11  N   UNL     1       4.589  -5.947  26.807  0.00  0.00    -0.231 NA
ATOM     12  C   UNL     1       5.845  -5.649  27.064  0.00  0.00    +0.203 A 
ATOM     13  N   UNL     1       6.586  -5.473  25.917  0.00  0.00    -0.286 N 
ATOM     14  C   UNL     1       5.744  -5.687  24.863  0.00  0.00    +0.167 A 
ATOM     15  N   UNL     1       6.026  -5.620  23.557  0.00  0.00    -0.216 NA
ATOM     16  C   UNL     1       4.941  -5.859  22.800  0.00  0.00    +0.225 A 
ATOM     17  N   UNL     1       3.687  -6.135  23.210  0.00  0.00    -0.219 NA
ENDBRANCH   1  13
BRANCH   2  18
ATOM     18  O   UNL     1      10.169  -5.252  24.898  0.00  0.00    -0.385 OA
ATOM     19  H   UNL     1      10.596  -5.642  24.113  0.00  0.00    +0.210 HD
ENDBRANCH   2  18
BRANCH   3  20
ATOM     20  O   UNL     1       7.944  -3.552  22.808  0.00  0.00    -0.386 OA
ATOM     21  H   UNL     1       7.443  -2.714  22.728  0.00  0.00    +0.210 HD
ENDBRANCH   3  20
BRANCH   4  22
ATOM     22  C   UNL     1       8.132  -1.412  25.359  0.00  0.00    +0.206 C 
BRANCH  22  23
ATOM     23  O   UNL     1       8.826  -0.797  24.271  0.00  0.00    -0.284 OA
BRANCH  23  24
ATOM     24  P   UNL     1      10.131   0.141  24.616  0.00  0.00    +0.483 P 
ATOM     25  O   UNL     1       9.727   1.610  24.647  0.00  0.00    -0.227 OA
BRANCH  24  26
ATOM     26  O   UNL     1       9.700   0.056  26.289  0.00  0.00    -0.302 OA
ATOM     27  H   UNL     1       8.957  -0.588  26.287  0.00  0.00    +0.222 HD
ENDBRANCH  24  26
BRANCH  24  28
ATOM     28  O   UNL     1      10.562   0.225  22.943  0.00  0.00    -0.196 OA
BRANCH  28  29
ATOM     29  P   UNL     1       9.320   1.053  22.068  0.00  0.00    +0.423 P 
ATOM     30  O   UNL     1       9.319  -0.022  20.982  0.00  0.00    -0.239 OA
BRANCH  29  31
ATOM     31  N   UNL     1       8.043   1.905  21.168  0.00  0.00    -0.125 NA
ATOM     32  H   UNL     1       7.414   1.149  20.899  0.00  0.00    +0.146 HD
BRANCH  31  33
ATOM     33  P   UNL     1       7.061   2.866  22.299  0.00  0.00    +0.412 P 
ATOM     34  O   UNL     1       6.207   3.702  23.284  0.00  0.00    -0.240 OA
BRANCH  33  35
ATOM     35  O   UNL     1       8.468   3.552  22.747  0.00  0.00    -0.312 OA
ATOM     36  H   UNL     1       8.356   4.511  22.579  0.00  0.00    +0.221 HD
ENDBRANCH  33  35
BRANCH  33  37
ATOM     37  O   UNL     1       7.196   1.566  23.276  0.00  0.00    -0.312 OA
ATOM     38  H   UNL     1       6.405   1.505  23.846  0.00  0.00    +0.221 HD
ENDBRANCH  33  37
ENDBRANCH  31  33
ENDBRANCH  29  31
BRANCH  29  39
ATOM     39  O   UNL     1      10.432   2.126  21.551  0.00  0.00    -0.312 OA
ATOM     40  H   UNL     1      11.255   1.970  22.064  0.00  0.00    +0.221 HD
ENDBRANCH  29  39
ENDBRANCH  28  29
ENDBRANCH  24  28
ENDBRANCH  23  24
ENDBRANCH  22  23
ENDBRANCH   4  22
TORSDOF 14
ENDMDL
MODEL 9
REMARK VINA RESULT:      -6.2      3.935      6.874
REMARK  Name = 
REMARK  14 active torsions:
REMARK  status: ('A' for Active; 'I' for Inactive)
REMARK    1  A    between atoms: N_10  and  C_11
REMARK    2  A    between atoms: C_14  and  C_16
REMARK    3  A    between atoms: C_16  and  O_17
REMARK    4  A    between atoms: O_17  and  P_18
REMARK    5  A    between atoms: P_18  and  O_19
REMARK    6  A    between atoms: P_18  and  O_21
REMARK    7  A    between atoms: O_21  and  P_22
REMARK    8  A    between atoms: P_22  and  O_23
REMARK    9  A    between atoms: P_22  and  N_25
REMARK   10  A    between atoms: N_25  and  P_26
REMARK   11  A    between atoms: P_26  and  O_27
REMARK   12  A    between atoms: P_26  and  O_28
REMARK   13  A    between atoms: C_30  and  O_32
REMARK   14  A    between atoms: C_33  and  O_35
REMARK                            x       y       z     vdW  Elec       q    Type
REMARK                         _______ _______ _______ _____ _____    ______ ____
ROOT
ATOM      1  C   UNL     1       7.899  -5.232  23.868  0.00  0.00    +0.253 C 
ATOM      2  C   UNL     1       6.960  -4.986  22.673  0.00  0.00    +0.195 C 
ATOM      3  C   UNL     1       7.084  -3.481  22.373  0.00  0.00    +0.178 C 
ATOM      4  C   UNL     1       8.123  -3.001  23.385  0.00  0.00    +0.178 C 
ATOM      5  O   UNL     1       8.883  -4.168  23.753  0.00  0.00    -0.346 OA
ENDROOT
BRANCH   1  13
ATOM      6  N   UNL     1       4.844  -4.780  29.092  0.00  0.00    -0.341 N 
ATOM      7  H   UNL     1       5.681  -5.064  29.594  0.00  0.00    +0.144 HD
ATOM      8  H   UNL     1       3.954  -5.113  29.445  0.00  0.00    +0.144 HD
ATOM      9  C   UNL     1       4.940  -4.951  27.717  0.00  0.00    +0.147 A 
ATOM     10  C   UNL     1       6.163  -5.019  27.028  0.00  0.00    +0.147 A 
ATOM     11  N   UNL     1       7.476  -4.939  27.444  0.00  0.00    -0.231 NA
ATOM     12  C   UNL     1       8.182  -5.047  26.337  0.00  0.00    +0.203 A 
ATOM     13  N   UNL     1       7.388  -5.198  25.223  0.00  0.00    -0.286 N 
ATOM     14  C   UNL     1       6.092  -5.199  25.656  0.00  0.00    +0.167 A 
ATOM     15  N   UNL     1       4.979  -5.317  24.923  0.00  0.00    -0.216 NA
ATOM     16  C   UNL     1       3.872  -5.243  25.682  0.00  0.00    +0.225 A 
ATOM     17  N   UNL     1       3.790  -5.070  27.016  0.00  0.00    -0.219 NA
ENDBRANCH   1  13
BRANCH   2  18
ATOM     18  O   UNL     1       7.445  -5.731  21.530  0.00  0.00    -0.385 OA
ATOM     19  H   UNL     1       8.148  -6.337  21.826  0.00  0.00    +0.210 HD
ENDBRANCH   2  18
BRANCH   3  20
ATOM     20  O   UNL     1       5.850  -2.798  22.562  0.00  0.00    -0.386 OA
ATOM     21  H   UNL     1       6.018  -1.835  22.621  0.00  0.00    +0.210 HD
ENDBRANCH   3  20
BRANCH   4  22
ATOM     22  C   UNL     1       9.045  -1.891  22.876  0.00  0.00    +0.206 C 
BRANCH  22  23
ATOM     23  O   UNL     1       8.552  -0.568  23.098  0.00  0.00    -0.284 OA
BRANCH  23  24
ATOM     24  P   UNL     1       8.930   0.594  21.999  0.00  0.00    +0.483 P 
ATOM     25  O   UNL     1      10.304   1.177  22.304  0.00  0.00    -0.227 OA
BRANCH  24  26
ATOM     26  O   UNL     1       9.727  -0.616  21.054  0.00  0.00    -0.302 OA
ATOM     27  H   UNL     1       9.966  -0.126  20.236  0.00  0.00    +0.222 HD
ENDBRANCH  24  26
BRANCH  24  28
ATOM     28  O   UNL     1       8.133   1.804  22.944  0.00  0.00    -0.196 OA
BRANCH  28  29
ATOM     29  P   UNL     1       7.553   1.099  24.413  0.00  0.00    +0.423 P 
ATOM     30  O   UNL     1       6.683   2.322  24.699  0.00  0.00    -0.239 OA
BRANCH  29  31
ATOM     31  N   UNL     1       6.956   0.373  25.926  0.00  0.00    -0.125 NA
ATOM     32  H   UNL     1       6.441   1.140  26.356  0.00  0.00    +0.146 HD
BRANCH  31  33
ATOM     33  P   UNL     1       5.683  -0.812  25.552  0.00  0.00    +0.412 P 
ATOM     34  O   UNL     1       4.574  -1.843  25.227  0.00  0.00    -0.240 OA
BRANCH  33  35
ATOM     35  O   UNL     1       5.916  -0.391  23.997  0.00  0.00    -0.312 OA
ATOM     36  H   UNL     1       5.033  -0.452  23.575  0.00  0.00    +0.221 HD
ENDBRANCH  33  35
BRANCH  33  37
ATOM     37  O   UNL     1       4.660   0.411  25.900  0.00  0.00    -0.312 OA
ATOM     38  H   UNL     1       4.335   0.312  26.816  0.00  0.00    +0.221 HD
ENDBRANCH  33  37
ENDBRANCH  31  33
ENDBRANCH  29  31
BRANCH  29  39
ATOM     39  O   UNL     1       8.975   1.461  25.122  0.00  0.00    -0.312 OA
ATOM     40  H   UNL     1       9.683   1.306  24.459  0.00  0.00    +0.221 HD
ENDBRANCH  29  39
ENDBRANCH  28  29
ENDBRANCH  24  28
ENDBRANCH  23  24
ENDBRANCH  22  23
ENDBRANCH   4  22
TORSDOF 14
ENDMDL
