MODEL 1
REMARK VINA RESULT:      -6.7      0.000      0.000
REMARK  Name = 
REMARK  12 active torsions:
REMARK  status: ('A' for Active; 'I' for Inactive)
REMARK    1  A    between atoms: N_1  and  C_2
REMARK    2  A    between atoms: C_4  and  O_6
REMARK    3  A    between atoms: C_7  and  O_9
REMARK    4  A    between atoms: C_10  and  C_12
REMARK    5  A    between atoms: C_12  and  O_13
REMARK    6  A    between atoms: C_15  and  O_17
REMARK    7  A    between atoms: O_17  and  C_18
REMARK    8  A    between atoms: C_20  and  O_22
REMARK    9  A    between atoms: C_23  and  O_25
REMARK   10  A    between atoms: C_26  and  O_28
REMARK   11  A    between atoms: C_29  and  O_31
REMARK   12  A    between atoms: C_32  and  O_34
REMARK                            x       y       z     vdW  Elec       q    Type
REMARK                         _______ _______ _______ _____ _____    ______ ____
ROOT
ATOM      1  O   UNL     1       8.214  -1.132  24.130  0.00  0.00    -0.341 OA
ENDROOT
BRANCH   1   3
ATOM      2  C   UNL     1       7.973   1.319  24.457  0.00  0.00    +0.139 C 
ATOM      3  C   UNL     1       8.924   0.082  24.422  0.00  0.00    +0.270 C 
ATOM      4  O   UNL     1      10.068   0.273  23.579  0.00  0.00    -0.342 OA
ATOM      5  C   UNL     1       9.819   0.702  22.225  0.00  0.00    +0.178 C 
ATOM      6  C   UNL     1       8.984   1.991  22.211  0.00  0.00    +0.176 C 
ATOM      7  C   UNL     1       7.694   1.829  23.028  0.00  0.00    +0.167 C 
BRANCH   2   8
ATOM      8  N   UNL     1       8.503   2.376  25.351  0.00  0.00    -0.321 NA
ATOM      9  H   UNL     1       8.181   3.294  25.045  0.00  0.00    +0.119 HD
ATOM     10  H   UNL     1       8.136   2.258  26.298  0.00  0.00    +0.119 HD
ENDBRANCH   2   8
BRANCH   6  11
ATOM     11  O   UNL     1       9.777   3.066  22.752  0.00  0.00    -0.387 OA
ATOM     12  H   UNL     1      10.666   3.009  22.354  0.00  0.00    +0.210 HD
ENDBRANCH   6  11
BRANCH   7  13
ATOM     13  O   UNL     1       6.791   0.967  22.326  0.00  0.00    -0.387 OA
ATOM     14  H   UNL     1       6.084   0.687  22.935  0.00  0.00    +0.210 HD
ENDBRANCH   7  13
BRANCH   5  15
ATOM     15  C   UNL     1       9.258  -0.396  21.302  0.00  0.00    +0.190 C 
BRANCH  15  16
ATOM     16  O   UNL     1       9.962  -1.627  21.473  0.00  0.00    -0.392 OA
ATOM     17  H   UNL     1      10.907  -1.442  21.355  0.00  0.00    +0.210 HD
ENDBRANCH  15  16
ENDBRANCH   5  15
ENDBRANCH   1   3
BRANCH   1  18
ATOM     18  C   UNL     1       8.383  -2.164  25.140  0.00  0.00    +0.183 C 
ATOM     19  C   UNL     1       7.078  -2.581  25.878  0.00  0.00    +0.177 C 
ATOM     20  C   UNL     1       7.276  -3.808  26.777  0.00  0.00    +0.176 C 
ATOM     21  C   UNL     1       7.978  -4.972  26.087  0.00  0.00    +0.176 C 
ATOM     22  C   UNL     1       9.281  -4.514  25.437  0.00  0.00    +0.176 C 
ATOM     23  C   UNL     1       9.022  -3.385  24.439  0.00  0.00    +0.177 C 
BRANCH  19  24
ATOM     24  O   UNL     1       6.607  -1.518  26.729  0.00  0.00    -0.386 OA
ATOM     25  H   UNL     1       6.803  -1.745  27.655  0.00  0.00    +0.210 HD
ENDBRANCH  19  24
BRANCH  20  26
ATOM     26  O   UNL     1       6.006  -4.277  27.256  0.00  0.00    -0.386 OA
ATOM     27  H   UNL     1       5.605  -4.755  26.502  0.00  0.00    +0.210 HD
ENDBRANCH  20  26
BRANCH  21  28
ATOM     28  O   UNL     1       8.209  -5.962  27.109  0.00  0.00    -0.386 OA
ATOM     29  H   UNL     1       9.023  -5.704  27.582  0.00  0.00    +0.210 HD
ENDBRANCH  21  28
BRANCH  22  30
ATOM     30  O   UNL     1       9.897  -5.622  24.770  0.00  0.00    -0.386 OA
ATOM     31  H   UNL     1      10.621  -5.907  25.369  0.00  0.00    +0.210 HD
ENDBRANCH  22  30
BRANCH  23  32
ATOM     32  O   UNL     1      10.280  -3.048  23.849  0.00  0.00    -0.386 OA
ATOM     33  H   UNL     1      10.217  -3.291  22.911  0.00  0.00    +0.210 HD
ENDBRANCH  23  32
ENDBRANCH   1  18
TORSDOF 12
ENDMDL
MODEL 2
REMARK VINA RESULT:      -6.3      2.034      6.253
REMARK  Name = 
REMARK  12 active torsions:
REMARK  status: ('A' for Active; 'I' for Inactive)
REMARK    1  A    between atoms: N_1  and  C_2
REMARK    2  A    between atoms: C_4  and  O_6
REMARK    3  A    between atoms: C_7  and  O_9
REMARK    4  A    between atoms: C_10  and  C_12
REMARK    5  A    between atoms: C_12  and  O_13
REMARK    6  A    between atoms: C_15  and  O_17
REMARK    7  A    between atoms: O_17  and  C_18
REMARK    8  A    between atoms: C_20  and  O_22
REMARK    9  A    between atoms: C_23  and  O_25
REMARK   10  A    between atoms: C_26  and  O_28
REMARK   11  A    between atoms: C_29  and  O_31
REMARK   12  A    between atoms: C_32  and  O_34
REMARK                            x       y       z     vdW  Elec       q    Type
REMARK                         _______ _______ _______ _____ _____    ______ ____
ROOT
ATOM      1  O   UNL     1       9.383  -2.346  24.375  0.00  0.00    -0.341 OA
ENDROOT
BRANCH   1   3
ATOM      2  C   UNL     1       6.907  -2.537  24.354  0.00  0.00    +0.139 C 
ATOM      3  C   UNL     1       8.264  -2.921  23.685  0.00  0.00    +0.270 C 
ATOM      4  O   UNL     1       8.408  -4.332  23.470  0.00  0.00    -0.342 OA
ATOM      5  C   UNL     1       8.194  -5.192  24.607  0.00  0.00    +0.178 C 
ATOM      6  C   UNL     1       6.814  -4.934  25.229  0.00  0.00    +0.176 C 
ATOM      7  C   UNL     1       6.623  -3.449  25.566  0.00  0.00    +0.167 C 
BRANCH   2   8
ATOM      8  N   UNL     1       5.803  -2.538  23.364  0.00  0.00    -0.321 NA
ATOM      9  H   UNL     1       4.962  -2.948  23.771  0.00  0.00    +0.119 HD
ATOM     10  H   UNL     1       5.549  -1.580  23.114  0.00  0.00    +0.119 HD
ENDBRANCH   2   8
BRANCH   6  11
ATOM     11  O   UNL     1       5.797  -5.362  24.302  0.00  0.00    -0.387 OA
ATOM     12  H   UNL     1       6.170  -5.304  23.403  0.00  0.00    +0.210 HD
ENDBRANCH   6  11
BRANCH   7  13
ATOM     13  O   UNL     1       7.445  -3.105  26.688  0.00  0.00    -0.387 OA
ATOM     14  H   UNL     1       8.140  -3.781  26.789  0.00  0.00    +0.210 HD
ENDBRANCH   7  13
BRANCH   5  15
ATOM     15  C   UNL     1       9.338  -5.180  25.639  0.00  0.00    +0.190 C 
BRANCH  15  16
ATOM     16  O   UNL     1      10.615  -5.170  24.997  0.00  0.00    -0.392 OA
ATOM     17  H   UNL     1      11.267  -4.869  25.648  0.00  0.00    +0.210 HD
ENDBRANCH  15  16
ENDBRANCH   5  15
ENDBRANCH   1   3
BRANCH   1  18
ATOM     18  C   UNL     1       9.743  -1.019  23.901  0.00  0.00    +0.183 C 
ATOM     19  C   UNL     1       9.358  -0.722  22.424  0.00  0.00    +0.177 C 
ATOM     20  C   UNL     1       9.570   0.749  22.043  0.00  0.00    +0.176 C 
ATOM     21  C   UNL     1       8.965   1.736  23.035  0.00  0.00    +0.176 C 
ATOM     22  C   UNL     1       9.429   1.432  24.457  0.00  0.00    +0.176 C 
ATOM     23  C   UNL     1       9.070  -0.001  24.851  0.00  0.00    +0.177 C 
BRANCH  19  24
ATOM     24  O   UNL     1      10.161  -1.503  21.517  0.00  0.00    -0.386 OA
ATOM     25  H   UNL     1      11.101  -1.347  21.715  0.00  0.00    +0.210 HD
ENDBRANCH  19  24
BRANCH  20  26
ATOM     26  O   UNL     1       8.998   1.011  20.752  0.00  0.00    -0.386 OA
ATOM     27  H   UNL     1       8.054   0.768  20.833  0.00  0.00    +0.210 HD
ENDBRANCH  20  26
BRANCH  21  28
ATOM     28  O   UNL     1       9.386   3.044  22.603  0.00  0.00    -0.386 OA
ATOM     29  H   UNL     1      10.333   3.131  22.824  0.00  0.00    +0.210 HD
ENDBRANCH  21  28
BRANCH  22  30
ATOM     30  O   UNL     1       8.818   2.355  25.366  0.00  0.00    -0.386 OA
ATOM     31  H   UNL     1       9.538   2.622  25.978  0.00  0.00    +0.210 HD
ENDBRANCH  22  30
BRANCH  23  32
ATOM     32  O   UNL     1       9.500  -0.186  26.202  0.00  0.00    -0.386 OA
ATOM     33  H   UNL     1       8.977   0.429  26.742  0.00  0.00    +0.210 HD
ENDBRANCH  23  32
ENDBRANCH   1  18
TORSDOF 12
ENDMDL
MODEL 3
REMARK VINA RESULT:      -6.1      1.072      2.371
REMARK  Name = 
REMARK  12 active torsions:
REMARK  status: ('A' for Active; 'I' for Inactive)
REMARK    1  A    between atoms: N_1  and  C_2
REMARK    2  A    between atoms: C_4  and  O_6
REMARK    3  A    between atoms: C_7  and  O_9
REMARK    4  A    between atoms: C_10  and  C_12
REMARK    5  A    between atoms: C_12  and  O_13
REMARK    6  A    between atoms: C_15  and  O_17
REMARK    7  A    between atoms: O_17  and  C_18
REMARK    8  A    between atoms: C_20  and  O_22
REMARK    9  A    between atoms: C_23  and  O_25
REMARK   10  A    between atoms: C_26  and  O_28
REMARK   11  A    between atoms: C_29  and  O_31
REMARK   12  A    between atoms: C_32  and  O_34
REMARK                            x       y       z     vdW  Elec       q    Type
REMARK                         _______ _______ _______ _____ _____    ______ ____
ROOT
ATOM      1  O   UNL     1       7.818  -1.585  23.764  0.00  0.00    -0.341 OA
ENDROOT
BRANCH   1   3
ATOM      2  C   UNL     1       7.760   0.702  24.732  0.00  0.00    +0.139 C 
ATOM      3  C   UNL     1       8.548  -0.634  24.553  0.00  0.00    +0.270 C 
ATOM      4  O   UNL     1       9.890  -0.439  24.087  0.00  0.00    -0.342 OA
ATOM      5  C   UNL     1      10.061   0.360  22.899  0.00  0.00    +0.178 C 
ATOM      6  C   UNL     1       9.403   1.737  23.075  0.00  0.00    +0.176 C 
ATOM      7  C   UNL     1       7.932   1.603  23.491  0.00  0.00    +0.167 C 
BRANCH   2   8
ATOM      8  N   UNL     1       8.140   1.382  25.993  0.00  0.00    -0.321 NA
ATOM      9  H   UNL     1       7.797   2.343  25.995  0.00  0.00    +0.119 HD
ATOM     10  H   UNL     1       7.691   0.928  26.792  0.00  0.00    +0.119 HD
ENDBRANCH   2   8
BRANCH   6  11
ATOM     11  O   UNL     1      10.132   2.479  24.073  0.00  0.00    -0.387 OA
ATOM     12  H   UNL     1      11.082   2.311  23.933  0.00  0.00    +0.210 HD
ENDBRANCH   6  11
BRANCH   7  13
ATOM     13  O   UNL     1       7.164   1.125  22.381  0.00  0.00    -0.387 OA
ATOM     14  H   UNL     1       7.643   1.325  21.556  0.00  0.00    +0.210 HD
ENDBRANCH   7  13
BRANCH   5  15
ATOM     15  C   UNL     1       9.655  -0.345  21.591  0.00  0.00    +0.190 C 
BRANCH  15  16
ATOM     16  O   UNL     1      10.004  -1.731  21.621  0.00  0.00    -0.392 OA
ATOM     17  H   UNL     1      10.623  -1.893  20.892  0.00  0.00    +0.210 HD
ENDBRANCH  15  16
ENDBRANCH   5  15
ENDBRANCH   1   3
BRANCH   1  18
ATOM     18  C   UNL     1       7.772  -2.916  24.349  0.00  0.00    +0.183 C 
ATOM     19  C   UNL     1       9.077  -3.364  25.067  0.00  0.00    +0.177 C 
ATOM     20  C   UNL     1       8.904  -4.678  25.839  0.00  0.00    +0.176 C 
ATOM     21  C   UNL     1       7.677  -4.707  26.742  0.00  0.00    +0.176 C 
ATOM     22  C   UNL     1       6.420  -4.320  25.966  0.00  0.00    +0.176 C 
ATOM     23  C   UNL     1       6.578  -2.939  25.331  0.00  0.00    +0.177 C 
BRANCH  19  24
ATOM     24  O   UNL     1      10.138  -3.579  24.117  0.00  0.00    -0.386 OA
ATOM     25  H   UNL     1       9.814  -4.165  23.410  0.00  0.00    +0.210 HD
ENDBRANCH  19  24
BRANCH  20  26
ATOM     26  O   UNL     1      10.061  -4.927  26.653  0.00  0.00    -0.386 OA
ATOM     27  H   UNL     1      10.024  -4.259  27.366  0.00  0.00    +0.210 HD
ENDBRANCH  20  26
BRANCH  21  28
ATOM     28  O   UNL     1       7.594  -6.048  27.261  0.00  0.00    -0.386 OA
ATOM     29  H   UNL     1       8.507  -6.353  27.422  0.00  0.00    +0.210 HD
ENDBRANCH  21  28
BRANCH  22  30
ATOM     30  O   UNL     1       5.293  -4.324  26.851  0.00  0.00    -0.386 OA
ATOM     31  H   UNL     1       4.798  -5.141  26.626  0.00  0.00    +0.210 HD
ENDBRANCH  22  30
BRANCH  23  32
ATOM     32  O   UNL     1       5.349  -2.639  24.665  0.00  0.00    -0.386 OA
ATOM     33  H   UNL     1       4.981  -1.857  25.107  0.00  0.00    +0.210 HD
ENDBRANCH  23  32
ENDBRANCH   1  18
TORSDOF 12
ENDMDL
MODEL 4
REMARK VINA RESULT:      -6.1      2.237      6.660
REMARK  Name = 
REMARK  12 active torsions:
REMARK  status: ('A' for Active; 'I' for Inactive)
REMARK    1  A    between atoms: N_1  and  C_2
REMARK    2  A    between atoms: C_4  and  O_6
REMARK    3  A    between atoms: C_7  and  O_9
REMARK    4  A    between atoms: C_10  and  C_12
REMARK    5  A    between atoms: C_12  and  O_13
REMARK    6  A    between atoms: C_15  and  O_17
REMARK    7  A    between atoms: O_17  and  C_18
REMARK    8  A    between atoms: C_20  and  O_22
REMARK    9  A    between atoms: C_23  and  O_25
REMARK   10  A    between atoms: C_26  and  O_28
REMARK   11  A    between atoms: C_29  and  O_31
REMARK   12  A    between atoms: C_32  and  O_34
REMARK                            x       y       z     vdW  Elec       q    Type
REMARK                         _______ _______ _______ _____ _____    ______ ____
ROOT
ATOM      1  O   UNL     1       8.020  -2.190  24.282  0.00  0.00    -0.341 OA
ENDROOT
BRANCH   1   3
ATOM      2  C   UNL     1       8.731  -4.563  24.473  0.00  0.00    +0.139 C 
ATOM      3  C   UNL     1       8.772  -3.122  25.073  0.00  0.00    +0.270 C 
ATOM      4  O   UNL     1       8.423  -3.080  26.464  0.00  0.00    -0.342 OA
ATOM      5  C   UNL     1       7.181  -3.703  26.846  0.00  0.00    +0.178 C 
ATOM      6  C   UNL     1       7.145  -5.167  26.380  0.00  0.00    +0.176 C 
ATOM      7  C   UNL     1       7.426  -5.281  24.876  0.00  0.00    +0.167 C 
BRANCH   2   8
ATOM      8  N   UNL     1       9.945  -5.330  24.841  0.00  0.00    -0.321 NA
ATOM      9  H   UNL     1      10.753  -4.710  24.900  0.00  0.00    +0.119 HD
ATOM     10  H   UNL     1       9.841  -5.735  25.774  0.00  0.00    +0.119 HD
ENDBRANCH   2   8
BRANCH   6  11
ATOM     11  O   UNL     1       8.126  -5.917  27.122  0.00  0.00    -0.387 OA
ATOM     12  H   UNL     1       7.961  -6.864  26.959  0.00  0.00    +0.210 HD
ENDBRANCH   6  11
BRANCH   7  13
ATOM     13  O   UNL     1       6.302  -4.781  24.142  0.00  0.00    -0.387 OA
ATOM     14  H   UNL     1       6.479  -4.876  23.188  0.00  0.00    +0.210 HD
ENDBRANCH   7  13
BRANCH   5  15
ATOM     15  C   UNL     1       5.921  -2.909  26.452  0.00  0.00    +0.190 C 
BRANCH  15  16
ATOM     16  O   UNL     1       4.755  -3.734  26.494  0.00  0.00    -0.392 OA
ATOM     17  H   UNL     1       4.154  -3.428  25.796  0.00  0.00    +0.210 HD
ENDBRANCH  15  16
ENDBRANCH   5  15
ENDBRANCH   1   3
BRANCH   1  18
ATOM     18  C   UNL     1       8.770  -1.002  23.909  0.00  0.00    +0.183 C 
ATOM     19  C   UNL     1       8.654  -0.595  22.412  0.00  0.00    +0.177 C 
ATOM     20  C   UNL     1       9.291   0.770  22.120  0.00  0.00    +0.176 C 
ATOM     21  C   UNL     1       8.856   1.871  23.081  0.00  0.00    +0.176 C 
ATOM     22  C   UNL     1       9.052   1.437  24.531  0.00  0.00    +0.176 C 
ATOM     23  C   UNL     1       8.283   0.147  24.821  0.00  0.00    +0.177 C 
BRANCH  19  24
ATOM     24  O   UNL     1       9.324  -1.551  21.567  0.00  0.00    -0.386 OA
ATOM     25  H   UNL     1       9.472  -1.149  20.692  0.00  0.00    +0.210 HD
ENDBRANCH  19  24
BRANCH  20  26
ATOM     26  O   UNL     1       8.965   1.191  20.786  0.00  0.00    -0.386 OA
ATOM     27  H   UNL     1       9.278   2.115  20.722  0.00  0.00    +0.210 HD
ENDBRANCH  20  26
BRANCH  21  28
ATOM     28  O   UNL     1       9.655   3.024  22.755  0.00  0.00    -0.386 OA
ATOM     29  H   UNL     1       9.682   3.091  21.781  0.00  0.00    +0.210 HD
ENDBRANCH  21  28
BRANCH  22  30
ATOM     30  O   UNL     1       8.602   2.478  25.406  0.00  0.00    -0.386 OA
ATOM     31  H   UNL     1       8.881   2.193  26.303  0.00  0.00    +0.210 HD
ENDBRANCH  22  30
BRANCH  23  32
ATOM     32  O   UNL     1       8.485  -0.162  26.202  0.00  0.00    -0.386 OA
ATOM     33  H   UNL     1       9.446  -0.159  26.346  0.00  0.00    +0.210 HD
ENDBRANCH  23  32
ENDBRANCH   1  18
TORSDOF 12
ENDMDL
MODEL 5
REMARK VINA RESULT:      -6.1      1.538      3.391
REMARK  Name = 
REMARK  12 active torsions:
REMARK  status: ('A' for Active; 'I' for Inactive)
REMARK    1  A    between atoms: N_1  and  C_2
REMARK    2  A    between atoms: C_4  and  O_6
REMARK    3  A    between atoms: C_7  and  O_9
REMARK    4  A    between atoms: C_10  and  C_12
REMARK    5  A    between atoms: C_12  and  O_13
REMARK    6  A    between atoms: C_15  and  O_17
REMARK    7  A    between atoms: O_17  and  C_18
REMARK    8  A    between atoms: C_20  and  O_22
REMARK    9  A    between atoms: C_23  and  O_25
REMARK   10  A    between atoms: C_26  and  O_28
REMARK   11  A    between atoms: C_29  and  O_31
REMARK   12  A    between atoms: C_32  and  O_34
REMARK                            x       y       z     vdW  Elec       q    Type
REMARK                         _______ _______ _______ _____ _____    ______ ____
ROOT
ATOM      1  O   UNL     1       8.613  -0.951  24.738  0.00  0.00    -0.341 OA
ENDROOT
BRANCH   1   3
ATOM      2  C   UNL     1       9.757  -0.245  22.649  0.00  0.00    +0.139 C 
ATOM      3  C   UNL     1       8.408  -0.520  23.384  0.00  0.00    +0.270 C 
ATOM      4  O   UNL     1       7.477   0.566  23.282  0.00  0.00    -0.342 OA
ATOM      5  C   UNL     1       7.952   1.873  23.664  0.00  0.00    +0.178 C 
ATOM      6  C   UNL     1       9.217   2.240  22.874  0.00  0.00    +0.176 C 
ATOM      7  C   UNL     1      10.295   1.156  23.010  0.00  0.00    +0.167 C 
BRANCH   2   8
ATOM      8  N   UNL     1       9.620  -0.448  21.187  0.00  0.00    -0.321 NA
ATOM      9  H   UNL     1       9.895  -1.398  20.933  0.00  0.00    +0.119 HD
ATOM     10  H   UNL     1       8.641  -0.361  20.905  0.00  0.00    +0.119 HD
ENDBRANCH   2   8
BRANCH   6  11
ATOM     11  O   UNL     1       8.867   2.415  21.488  0.00  0.00    -0.387 OA
ATOM     12  H   UNL     1       9.627   2.830  21.039  0.00  0.00    +0.210 HD
ENDBRANCH   6  11
BRANCH   7  13
ATOM     13  O   UNL     1      10.838   1.187  24.335  0.00  0.00    -0.387 OA
ATOM     14  H   UNL     1      10.690   0.321  24.757  0.00  0.00    +0.210 HD
ENDBRANCH   7  13
BRANCH   5  15
ATOM     15  C   UNL     1       8.104   2.077  25.184  0.00  0.00    +0.190 C 
BRANCH  15  16
ATOM     16  O   UNL     1       7.138   1.313  25.908  0.00  0.00    -0.392 OA
ATOM     17  H   UNL     1       6.291   1.394  25.441  0.00  0.00    +0.210 HD
ENDBRANCH  15  16
ENDBRANCH   5  15
ENDBRANCH   1   3
BRANCH   1  18
ATOM     18  C   UNL     1       8.270  -2.346  24.965  0.00  0.00    +0.183 C 
ATOM     19  C   UNL     1       9.485  -3.303  25.135  0.00  0.00    +0.177 C 
ATOM     20  C   UNL     1       9.070  -4.712  25.576  0.00  0.00    +0.176 C 
ATOM     21  C   UNL     1       8.115  -4.731  26.764  0.00  0.00    +0.176 C 
ATOM     22  C   UNL     1       6.914  -3.824  26.511  0.00  0.00    +0.176 C 
ATOM     23  C   UNL     1       7.366  -2.393  26.218  0.00  0.00    +0.177 C 
BRANCH  19  24
ATOM     24  O   UNL     1      10.199  -3.452  23.893  0.00  0.00    -0.386 OA
ATOM     25  H   UNL     1       9.563  -3.667  23.188  0.00  0.00    +0.210 HD
ENDBRANCH  19  24
BRANCH  20  26
ATOM     26  O   UNL     1      10.231  -5.481  25.927  0.00  0.00    -0.386 OA
ATOM     27  H   UNL     1      10.233  -5.514  26.905  0.00  0.00    +0.210 HD
ENDBRANCH  20  26
BRANCH  21  28
ATOM     28  O   UNL     1       7.721  -6.106  26.938  0.00  0.00    -0.386 OA
ATOM     29  H   UNL     1       8.063  -6.603  26.171  0.00  0.00    +0.210 HD
ENDBRANCH  21  28
BRANCH  22  30
ATOM     30  O   UNL     1       6.056  -3.838  27.658  0.00  0.00    -0.386 OA
ATOM     31  H   UNL     1       6.177  -4.728  28.054  0.00  0.00    +0.210 HD
ENDBRANCH  22  30
BRANCH  23  32
ATOM     32  O   UNL     1       6.184  -1.608  26.037  0.00  0.00    -0.386 OA
ATOM     33  H   UNL     1       6.314  -0.795  26.553  0.00  0.00    +0.210 HD
ENDBRANCH  23  32
ENDBRANCH   1  18
TORSDOF 12
ENDMDL
MODEL 6
REMARK VINA RESULT:      -6.1      2.199      3.467
REMARK  Name = 
REMARK  12 active torsions:
REMARK  status: ('A' for Active; 'I' for Inactive)
REMARK    1  A    between atoms: N_1  and  C_2
REMARK    2  A    between atoms: C_4  and  O_6
REMARK    3  A    between atoms: C_7  and  O_9
REMARK    4  A    between atoms: C_10  and  C_12
REMARK    5  A    between atoms: C_12  and  O_13
REMARK    6  A    between atoms: C_15  and  O_17
REMARK    7  A    between atoms: O_17  and  C_18
REMARK    8  A    between atoms: C_20  and  O_22
REMARK    9  A    between atoms: C_23  and  O_25
REMARK   10  A    between atoms: C_26  and  O_28
REMARK   11  A    between atoms: C_29  and  O_31
REMARK   12  A    between atoms: C_32  and  O_34
REMARK                            x       y       z     vdW  Elec       q    Type
REMARK                         _______ _______ _______ _____ _____    ______ ____
ROOT
ATOM      1  O   UNL     1       7.932  -2.010  24.553  0.00  0.00    -0.341 OA
ENDROOT
BRANCH   1   3
ATOM      2  C   UNL     1       9.776  -1.215  23.092  0.00  0.00    +0.139 C 
ATOM      3  C   UNL     1       8.316  -1.757  23.193  0.00  0.00    +0.270 C 
ATOM      4  O   UNL     1       7.364  -0.950  22.487  0.00  0.00    -0.342 OA
ATOM      5  C   UNL     1       7.354   0.461  22.785  0.00  0.00    +0.178 C 
ATOM      6  C   UNL     1       8.750   1.067  22.581  0.00  0.00    +0.176 C 
ATOM      7  C   UNL     1       9.813   0.301  23.381  0.00  0.00    +0.167 C 
BRANCH   2   8
ATOM      8  N   UNL     1      10.388  -1.565  21.788  0.00  0.00    -0.321 NA
ATOM      9  H   UNL     1      10.123  -0.883  21.077  0.00  0.00    +0.119 HD
ATOM     10  H   UNL     1      11.408  -1.517  21.849  0.00  0.00    +0.119 HD
ENDBRANCH   2   8
BRANCH   6  11
ATOM     11  O   UNL     1       9.073   1.034  21.177  0.00  0.00    -0.387 OA
ATOM     12  H   UNL     1      10.035   0.900  21.097  0.00  0.00    +0.210 HD
ENDBRANCH   6  11
BRANCH   7  13
ATOM     13  O   UNL     1       9.648   0.576  24.777  0.00  0.00    -0.387 OA
ATOM     14  H   UNL     1       9.009  -0.058  25.151  0.00  0.00    +0.210 HD
ENDBRANCH   7  13
BRANCH   5  15
ATOM     15  C   UNL     1       6.727   0.821  24.146  0.00  0.00    +0.190 C 
BRANCH  15  16
ATOM     16  O   UNL     1       5.518   0.093  24.368  0.00  0.00    -0.392 OA
ATOM     17  H   UNL     1       4.984   0.160  23.560  0.00  0.00    +0.210 HD
ENDBRANCH  15  16
ENDBRANCH   5  15
ENDBRANCH   1   3
BRANCH   1  18
ATOM     18  C   UNL     1       7.464  -3.368  24.784  0.00  0.00    +0.183 C 
ATOM     19  C   UNL     1       8.146  -4.105  25.972  0.00  0.00    +0.177 C 
ATOM     20  C   UNL     1       7.475  -5.445  26.299  0.00  0.00    +0.176 C 
ATOM     21  C   UNL     1       5.959  -5.358  26.433  0.00  0.00    +0.176 C 
ATOM     22  C   UNL     1       5.342  -4.684  25.211  0.00  0.00    +0.176 C 
ATOM     23  C   UNL     1       5.935  -3.290  25.003  0.00  0.00    +0.177 C 
BRANCH  19  24
ATOM     24  O   UNL     1       9.525  -4.397  25.671  0.00  0.00    -0.386 OA
ATOM     25  H   UNL     1       9.999  -3.560  25.523  0.00  0.00    +0.210 HD
ENDBRANCH  19  24
BRANCH  20  26
ATOM     26  O   UNL     1       8.000  -5.971  27.528  0.00  0.00    -0.386 OA
ATOM     27  H   UNL     1       7.231  -6.355  27.994  0.00  0.00    +0.210 HD
ENDBRANCH  20  26
BRANCH  21  28
ATOM     28  O   UNL     1       5.494  -6.713  26.588  0.00  0.00    -0.386 OA
ATOM     29  H   UNL     1       5.521  -6.921  27.541  0.00  0.00    +0.210 HD
ENDBRANCH  21  28
BRANCH  22  30
ATOM     30  O   UNL     1       3.923  -4.588  25.383  0.00  0.00    -0.386 OA
ATOM     31  H   UNL     1       3.542  -4.955  24.556  0.00  0.00    +0.210 HD
ENDBRANCH  22  30
BRANCH  23  32
ATOM     32  O   UNL     1       5.276  -2.716  23.871  0.00  0.00    -0.386 OA
ATOM     33  H   UNL     1       5.975  -2.392  23.281  0.00  0.00    +0.210 HD
ENDBRANCH  23  32
ENDBRANCH   1  18
TORSDOF 12
ENDMDL
MODEL 7
REMARK VINA RESULT:      -5.9      2.790      6.252
REMARK  Name = 
REMARK  12 active torsions:
REMARK  status: ('A' for Active; 'I' for Inactive)
REMARK    1  A    between atoms: N_1  and  C_2
REMARK    2  A    between atoms: C_4  and  O_6
REMARK    3  A    between atoms: C_7  and  O_9
REMARK    4  A    between atoms: C_10  and  C_12
REMARK    5  A    between atoms: C_12  and  O_13
REMARK    6  A    between atoms: C_15  and  O_17
REMARK    7  A    between atoms: O_17  and  C_18
REMARK    8  A    between atoms: C_20  and  O_22
REMARK    9  A    between atoms: C_23  and  O_25
REMARK   10  A    between atoms: C_26  and  O_28
REMARK   11  A    between atoms: C_29  and  O_31
REMARK   12  A    between atoms: C_32  and  O_34
REMARK                            x       y       z     vdW  Elec       q    Type
REMARK                         _______ _______ _______ _____ _____    ______ ____
ROOT
ATOM      1  O   UNL     1       8.002  -1.904  23.332  0.00  0.00    -0.341 OA
ENDROOT
BRANCH   1   3
ATOM      2  C   UNL     1       5.982  -2.931  22.316  0.00  0.00    +0.139 C 
ATOM      3  C   UNL     1       7.533  -2.962  22.483  0.00  0.00    +0.270 C 
ATOM      4  O   UNL     1       8.033  -4.249  22.870  0.00  0.00    -0.342 OA
ATOM      5  C   UNL     1       7.433  -4.864  24.027  0.00  0.00    +0.178 C 
ATOM      6  C   UNL     1       5.910  -4.965  23.856  0.00  0.00    +0.176 C 
ATOM      7  C   UNL     1       5.293  -3.600  23.524  0.00  0.00    +0.167 C 
BRANCH   2   8
ATOM      8  N   UNL     1       5.571  -3.523  21.020  0.00  0.00    -0.321 NA
ATOM      9  H   UNL     1       6.340  -4.055  20.614  0.00  0.00    +0.119 HD
ATOM     10  H   UNL     1       4.814  -4.196  21.161  0.00  0.00    +0.119 HD
ENDBRANCH   2   8
BRANCH   6  11
ATOM     11  O   UNL     1       5.620  -5.905  22.803  0.00  0.00    -0.387 OA
ATOM     12  H   UNL     1       4.811  -5.604  22.350  0.00  0.00    +0.210 HD
ENDBRANCH   6  11
BRANCH   7  13
ATOM     13  O   UNL     1       5.335  -2.763  24.686  0.00  0.00    -0.387 OA
ATOM     14  H   UNL     1       4.438  -2.430  24.868  0.00  0.00    +0.210 HD
ENDBRANCH   7  13
BRANCH   5  15
ATOM     15  C   UNL     1       7.853  -4.239  25.372  0.00  0.00    +0.190 C 
BRANCH  15  16
ATOM     16  O   UNL     1       9.225  -3.840  25.350  0.00  0.00    -0.392 OA
ATOM     17  H   UNL     1       9.681  -4.395  24.699  0.00  0.00    +0.210 HD
ENDBRANCH  15  16
ENDBRANCH   5  15
ENDBRANCH   1   3
BRANCH   1  18
ATOM     18  C   UNL     1       7.728  -0.573  22.814  0.00  0.00    +0.183 C 
ATOM     19  C   UNL     1       6.982   0.374  23.796  0.00  0.00    +0.177 C 
ATOM     20  C   UNL     1       6.903   1.817  23.280  0.00  0.00    +0.176 C 
ATOM     21  C   UNL     1       8.240   2.374  22.802  0.00  0.00    +0.176 C 
ATOM     22  C   UNL     1       8.893   1.431  21.794  0.00  0.00    +0.176 C 
ATOM     23  C   UNL     1       9.085   0.040  22.397  0.00  0.00    +0.177 C 
BRANCH  19  24
ATOM     24  O   UNL     1       5.625  -0.065  24.001  0.00  0.00    -0.386 OA
ATOM     25  H   UNL     1       5.637  -0.945  24.417  0.00  0.00    +0.210 HD
ENDBRANCH  19  24
BRANCH  20  26
ATOM     26  O   UNL     1       6.405   2.682  24.312  0.00  0.00    -0.386 OA
ATOM     27  H   UNL     1       6.500   2.175  25.143  0.00  0.00    +0.210 HD
ENDBRANCH  20  26
BRANCH  21  28
ATOM     28  O   UNL     1       7.951   3.661  22.222  0.00  0.00    -0.386 OA
ATOM     29  H   UNL     1       7.232   3.531  21.575  0.00  0.00    +0.210 HD
ENDBRANCH  21  28
BRANCH  22  30
ATOM     30  O   UNL     1      10.159   1.967  21.391  0.00  0.00    -0.386 OA
ATOM     31  H   UNL     1       9.991   2.387  20.520  0.00  0.00    +0.210 HD
ENDBRANCH  22  30
BRANCH  23  32
ATOM     32  O   UNL     1       9.737  -0.761  21.408  0.00  0.00    -0.386 OA
ATOM     33  H   UNL     1       9.189  -0.710  20.609  0.00  0.00    +0.210 HD
ENDBRANCH  23  32
ENDBRANCH   1  18
TORSDOF 12
ENDMDL
MODEL 8
REMARK VINA RESULT:      -5.8      2.090      6.191
REMARK  Name = 
REMARK  12 active torsions:
REMARK  status: ('A' for Active; 'I' for Inactive)
REMARK    1  A    between atoms: N_1  and  C_2
REMARK    2  A    between atoms: C_4  and  O_6
REMARK    3  A    between atoms: C_7  and  O_9
REMARK    4  A    between atoms: C_10  and  C_12
REMARK    5  A    between atoms: C_12  and  O_13
REMARK    6  A    between atoms: C_15  and  O_17
REMARK    7  A    between atoms: O_17  and  C_18
REMARK    8  A    between atoms: C_20  and  O_22
REMARK    9  A    between atoms: C_23  and  O_25
REMARK   10  A    between atoms: C_26  and  O_28
REMARK   11  A    between atoms: C_29  and  O_31
REMARK   12  A    between atoms: C_32  and  O_34
REMARK                            x       y       z     vdW  Elec       q    Type
REMARK                         _______ _______ _______ _____ _____    ______ ____
ROOT
ATOM      1  O   UNL     1       8.363  -2.087  25.036  0.00  0.00    -0.341 OA
ENDROOT
BRANCH   1   3
ATOM      2  C   UNL     1       6.828  -3.033  26.746  0.00  0.00    +0.139 C 
ATOM      3  C   UNL     1       7.042  -2.605  25.260  0.00  0.00    +0.270 C 
ATOM      4  O   UNL     1       6.679  -3.626  24.321  0.00  0.00    -0.342 OA
ATOM      5  C   UNL     1       7.262  -4.930  24.514  0.00  0.00    +0.178 C 
ATOM      6  C   UNL     1       6.972  -5.448  25.930  0.00  0.00    +0.176 C 
ATOM      7  C   UNL     1       7.418  -4.437  26.996  0.00  0.00    +0.167 C 
BRANCH   2   8
ATOM      8  N   UNL     1       5.400  -2.933  27.131  0.00  0.00    -0.321 NA
ATOM      9  H   UNL     1       4.856  -3.663  26.670  0.00  0.00    +0.119 HD
ATOM     10  H   UNL     1       5.289  -3.099  28.133  0.00  0.00    +0.119 HD
ENDBRANCH   2   8
BRANCH   6  11
ATOM     11  O   UNL     1       5.559  -5.703  26.054  0.00  0.00    -0.387 OA
ATOM     12  H   UNL     1       5.428  -6.277  26.831  0.00  0.00    +0.210 HD
ENDBRANCH   6  11
BRANCH   7  13
ATOM     13  O   UNL     1       8.848  -4.406  27.054  0.00  0.00    -0.387 OA
ATOM     14  H   UNL     1       9.154  -3.510  26.824  0.00  0.00    +0.210 HD
ENDBRANCH   7  13
BRANCH   5  15
ATOM     15  C   UNL     1       8.749  -5.028  24.123  0.00  0.00    +0.190 C 
BRANCH  15  16
ATOM     16  O   UNL     1       9.398  -6.094  24.819  0.00  0.00    -0.392 OA
ATOM     17  H   UNL     1       9.803  -6.674  24.155  0.00  0.00    +0.210 HD
ENDBRANCH  15  16
ENDBRANCH   5  15
ENDBRANCH   1   3
BRANCH   1  18
ATOM     18  C   UNL     1       8.391  -0.907  24.187  0.00  0.00    +0.183 C 
ATOM     19  C   UNL     1       9.205   0.291  24.753  0.00  0.00    +0.177 C 
ATOM     20  C   UNL     1       9.374   1.425  23.734  0.00  0.00    +0.176 C 
ATOM     21  C   UNL     1       9.860   0.957  22.366  0.00  0.00    +0.176 C 
ATOM     22  C   UNL     1       8.985  -0.175  21.836  0.00  0.00    +0.176 C 
ATOM     23  C   UNL     1       8.958  -1.347  22.818  0.00  0.00    +0.177 C 
BRANCH  19  24
ATOM     24  O   UNL     1       8.546   0.863  25.900  0.00  0.00    -0.386 OA
ATOM     25  H   UNL     1       8.851   1.780  26.014  0.00  0.00    +0.210 HD
ENDBRANCH  19  24
BRANCH  20  26
ATOM     26  O   UNL     1      10.308   2.397  24.229  0.00  0.00    -0.386 OA
ATOM     27  H   UNL     1      10.941   1.892  24.778  0.00  0.00    +0.210 HD
ENDBRANCH  20  26
BRANCH  21  28
ATOM     28  O   UNL     1       9.815   2.114  21.510  0.00  0.00    -0.386 OA
ATOM     29  H   UNL     1       9.659   2.890  22.081  0.00  0.00    +0.210 HD
ENDBRANCH  21  28
BRANCH  22  30
ATOM     30  O   UNL     1       9.488  -0.614  20.568  0.00  0.00    -0.386 OA
ATOM     31  H   UNL     1      10.437  -0.361  20.572  0.00  0.00    +0.210 HD
ENDBRANCH  22  30
BRANCH  23  32
ATOM     32  O   UNL     1       8.157  -2.373  22.227  0.00  0.00    -0.386 OA
ATOM     33  H   UNL     1       7.242  -2.201  22.504  0.00  0.00    +0.210 HD
ENDBRANCH  23  32
ENDBRANCH   1  18
TORSDOF 12
ENDMDL
MODEL 9
REMARK VINA RESULT:      -5.7      2.614      3.547
REMARK  Name = 
REMARK  12 active torsions:
REMARK  status: ('A' for Active; 'I' for Inactive)
REMARK    1  A    between atoms: N_1  and  C_2
REMARK    2  A    between atoms: C_4  and  O_6
REMARK    3  A    between atoms: C_7  and  O_9
REMARK    4  A    between atoms: C_10  and  C_12
REMARK    5  A    between atoms: C_12  and  O_13
REMARK    6  A    between atoms: C_15  and  O_17
REMARK    7  A    between atoms: O_17  and  C_18
REMARK    8  A    between atoms: C_20  and  O_22
REMARK    9  A    between atoms: C_23  and  O_25
REMARK   10  A    between atoms: C_26  and  O_28
REMARK   11  A    between atoms: C_29  and  O_31
REMARK   12  A    between atoms: C_32  and  O_34
REMARK                            x       y       z     vdW  Elec       q    Type
REMARK                         _______ _______ _______ _____ _____    ______ ____
ROOT
ATOM      1  O   UNL     1       7.900  -1.643  24.457  0.00  0.00    -0.341 OA
ENDROOT
BRANCH   1   3
ATOM      2  C   UNL     1       9.806  -1.264  22.911  0.00  0.00    +0.139 C 
ATOM      3  C   UNL     1       8.260  -1.257  23.122  0.00  0.00    +0.270 C 
ATOM      4  O   UNL     1       7.640  -0.030  22.712  0.00  0.00    -0.342 OA
ATOM      5  C   UNL     1       8.184   1.191  23.251  0.00  0.00    +0.178 C 
ATOM      6  C   UNL     1       9.689   1.286  22.960  0.00  0.00    +0.176 C 
ATOM      7  C   UNL     1      10.433   0.038  23.454  0.00  0.00    +0.167 C 
BRANCH   2   8
ATOM      8  N   UNL     1      10.151  -1.519  21.491  0.00  0.00    -0.321 NA
ATOM      9  H   UNL     1      11.164  -1.554  21.373  0.00  0.00    +0.119 HD
ATOM     10  H   UNL     1       9.809  -2.437  21.201  0.00  0.00    +0.119 HD
ENDBRANCH   2   8
BRANCH   6  11
ATOM     11  O   UNL     1       9.881   1.445  21.541  0.00  0.00    -0.387 OA
ATOM     12  H   UNL     1       9.961   2.399  21.356  0.00  0.00    +0.210 HD
ENDBRANCH   6  11
BRANCH   7  13
ATOM     13  O   UNL     1      10.479   0.044  24.885  0.00  0.00    -0.387 OA
ATOM     14  H   UNL     1      10.865  -0.795  25.193  0.00  0.00    +0.210 HD
ENDBRANCH   7  13
BRANCH   5  15
ATOM     15  C   UNL     1       7.833   1.447  24.730  0.00  0.00    +0.190 C 
BRANCH  15  16
ATOM     16  O   UNL     1       8.724   2.399  25.315  0.00  0.00    -0.392 OA
ATOM     17  H   UNL     1       8.959   2.075  26.198  0.00  0.00    +0.210 HD
ENDBRANCH  15  16
ENDBRANCH   5  15
ENDBRANCH   1   3
BRANCH   1  18
ATOM     18  C   UNL     1       6.871  -2.670  24.510  0.00  0.00    +0.183 C 
ATOM     19  C   UNL     1       6.404  -3.204  23.125  0.00  0.00    +0.177 C 
ATOM     20  C   UNL     1       5.477  -4.421  23.244  0.00  0.00    +0.176 C 
ATOM     21  C   UNL     1       6.008  -5.513  24.166  0.00  0.00    +0.176 C 
ATOM     22  C   UNL     1       6.390  -4.939  25.527  0.00  0.00    +0.176 C 
ATOM     23  C   UNL     1       7.425  -3.824  25.376  0.00  0.00    +0.177 C 
BRANCH  19  24
ATOM     24  O   UNL     1       5.669  -2.195  22.407  0.00  0.00    -0.386 OA
ATOM     25  H   UNL     1       5.928  -2.224  21.469  0.00  0.00    +0.210 HD
ENDBRANCH  19  24
BRANCH  20  26
ATOM     26  O   UNL     1       5.257  -5.001  21.949  0.00  0.00    -0.386 OA
ATOM     27  H   UNL     1       6.086  -5.471  21.731  0.00  0.00    +0.210 HD
ENDBRANCH  20  26
BRANCH  21  28
ATOM     28  O   UNL     1       4.956  -6.491  24.273  0.00  0.00    -0.386 OA
ATOM     29  H   UNL     1       4.592  -6.624  23.377  0.00  0.00    +0.210 HD
ENDBRANCH  21  28
BRANCH  22  30
ATOM     30  O   UNL     1       6.916  -5.983  26.355  0.00  0.00    -0.386 OA
ATOM     31  H   UNL     1       7.601  -6.420  25.805  0.00  0.00    +0.210 HD
ENDBRANCH  22  30
BRANCH  23  32
ATOM     32  O   UNL     1       7.756  -3.375  26.692  0.00  0.00    -0.386 OA
ATOM     33  H   UNL     1       8.709  -3.187  26.687  0.00  0.00    +0.210 HD
ENDBRANCH  23  32
ENDBRANCH   1  18
TORSDOF 12
ENDMDL
