MODEL 1
REMARK VINA RESULT:      -7.6      0.000      0.000
REMARK  Name = 
REMARK  4 active torsions:
REMARK  status: ('A' for Active; 'I' for Inactive)
REMARK    1  A    between atoms: C_4  and  N_7
REMARK    2  A    between atoms: N_7  and  C_8
REMARK    3  A    between atoms: N_16  and  C_17
REMARK    4  A    between atoms: C_20  and  N_23
REMARK                            x       y       z     vdW  Elec       q    Type
REMARK                         _______ _______ _______ _____ _____    ______ ____
ROOT
ATOM      1  C   UNL     1       5.091  -6.667  26.842  0.00  0.00    +0.152 A 
ATOM      2  N   UNL     1       6.271  -6.015  27.003  0.00  0.00    -0.197 NA
ATOM      3  C   UNL     1       6.877  -5.431  25.950  0.00  0.00    +0.223 A 
ATOM      4  N   UNL     1       8.074  -4.786  26.259  0.00  0.00    -0.284 N 
ATOM      5  H   UNL     1       8.326  -4.983  27.216  0.00  0.00    +0.155 HD
ATOM      6  N   UNL     1       6.417  -5.436  24.686  0.00  0.00    -0.195 NA
ATOM      7  C   UNL     1       5.258  -6.082  24.564  0.00  0.00    +0.165 A 
ATOM      8  N   UNL     1       4.511  -6.204  23.429  0.00  0.00    -0.329 N 
ATOM      9  H   UNL     1       4.747  -5.805  22.532  0.00  0.00    +0.168 HD
ATOM     10  C   UNL     1       3.383  -6.901  23.758  0.00  0.00    +0.198 A 
ATOM     11  N   UNL     1       3.380  -7.260  25.026  0.00  0.00    -0.231 NA
ATOM     12  C   UNL     1       4.547  -6.734  25.551  0.00  0.00    +0.147 A 
ENDROOT
BRANCH   4  13
ATOM     13  C   UNL     1       8.643  -3.643  25.691  0.00  0.00    +0.034 A 
ATOM     14  C   UNL     1       9.444  -3.766  24.557  0.00  0.00    +0.025 A 
ATOM     15  C   UNL     1       9.942  -2.632  23.897  0.00  0.00    +0.025 A 
ATOM     16  C   UNL     1       9.646  -1.329  24.325  0.00  0.00    +0.030 A 
ATOM     17  C   UNL     1       8.873  -1.225  25.485  0.00  0.00    +0.025 A 
ATOM     18  C   UNL     1       8.380  -2.353  26.149  0.00  0.00    +0.025 A 
BRANCH  16  19
ATOM     19  N   UNL     1      10.064  -0.210  23.638  0.00  0.00    -0.326 N 
ATOM     20  C   UNL     1      10.661   0.964  24.288  0.00  0.00    +0.133 C 
ATOM     21  C   UNL     1       9.797   2.197  23.999  0.00  0.00    +0.178 C 
ATOM     22  O   UNL     1       9.642   2.406  22.583  0.00  0.00    -0.377 OA
ATOM     23  C   UNL     1       9.027   1.259  21.970  0.00  0.00    +0.178 C 
ATOM     24  C   UNL     1       9.849  -0.022  22.193  0.00  0.00    +0.133 C 
ENDBRANCH  16  19
ENDBRANCH   4  13
BRANCH   1  25
ATOM     25  N   UNL     1       4.437  -7.197  27.941  0.00  0.00    -0.324 N 
ATOM     26  H   UNL     1       4.715  -8.148  28.156  0.00  0.00    +0.148 HD
BRANCH  25  30
ATOM     27  C   UNL     1       1.092  -6.923  29.362  0.00  0.00    +0.000 C 
ATOM     28  C   UNL     1       2.163  -7.847  29.933  0.00  0.00    +0.002 C 
ATOM     29  C   UNL     1       3.463  -7.101  30.218  0.00  0.00    +0.022 C 
ATOM     30  C   UNL     1       3.978  -6.322  29.006  0.00  0.00    +0.072 C 
ATOM     31  C   UNL     1       2.888  -5.399  28.442  0.00  0.00    +0.022 C 
ATOM     32  C   UNL     1       1.585  -6.141  28.148  0.00  0.00    +0.002 C 
ENDBRANCH  25  30
ENDBRANCH   1  25
TORSDOF 4
ENDMDL
MODEL 2
REMARK VINA RESULT:      -7.3      2.499      4.222
REMARK  Name = 
REMARK  4 active torsions:
REMARK  status: ('A' for Active; 'I' for Inactive)
REMARK    1  A    between atoms: C_4  and  N_7
REMARK    2  A    between atoms: N_7  and  C_8
REMARK    3  A    between atoms: N_16  and  C_17
REMARK    4  A    between atoms: C_20  and  N_23
REMARK                            x       y       z     vdW  Elec       q    Type
REMARK                         _______ _______ _______ _____ _____    ______ ____
ROOT
ATOM      1  C   UNL     1       7.781  -4.202  25.520  0.00  0.00    +0.152 A 
ATOM      2  N   UNL     1       8.434  -3.054  25.838  0.00  0.00    -0.197 NA
ATOM      3  C   UNL     1       8.812  -2.195  24.872  0.00  0.00    +0.223 A 
ATOM      4  N   UNL     1       9.460  -1.052  25.340  0.00  0.00    -0.284 N 
ATOM      5  H   UNL     1       9.632  -1.143  26.330  0.00  0.00    +0.155 HD
ATOM      6  N   UNL     1       8.611  -2.367  23.553  0.00  0.00    -0.195 NA
ATOM      7  C   UNL     1       7.967  -3.501  23.276  0.00  0.00    +0.165 A 
ATOM      8  N   UNL     1       7.562  -3.924  22.045  0.00  0.00    -0.329 N 
ATOM      9  H   UNL     1       7.695  -3.418  21.183  0.00  0.00    +0.168 HD
ATOM     10  C   UNL     1       6.903  -5.109  22.220  0.00  0.00    +0.198 A 
ATOM     11  N   UNL     1       6.893  -5.483  23.484  0.00  0.00    -0.231 NA
ATOM     12  C   UNL     1       7.543  -4.469  24.163  0.00  0.00    +0.147 A 
ENDROOT
BRANCH   4  13
ATOM     13  C   UNL     1       9.455   0.249  24.828  0.00  0.00    +0.034 A 
ATOM     14  C   UNL     1       8.365   1.081  25.079  0.00  0.00    +0.025 A 
ATOM     15  C   UNL     1       8.374   2.425  24.675  0.00  0.00    +0.025 A 
ATOM     16  C   UNL     1       9.476   3.002  24.024  0.00  0.00    +0.030 A 
ATOM     17  C   UNL     1      10.544   2.143  23.747  0.00  0.00    +0.025 A 
ATOM     18  C   UNL     1      10.536   0.802  24.144  0.00  0.00    +0.025 A 
BRANCH  16  19
ATOM     19  N   UNL     1       9.525   4.339  23.696  0.00  0.00    -0.326 N 
ATOM     20  C   UNL     1      10.757   5.139  23.743  0.00  0.00    +0.133 C 
ATOM     21  C   UNL     1      10.569   6.299  24.728  0.00  0.00    +0.178 C 
ATOM     22  O   UNL     1       9.432   7.108  24.372  0.00  0.00    -0.377 OA
ATOM     23  C   UNL     1       8.233   6.314  24.362  0.00  0.00    +0.178 C 
ATOM     24  C   UNL     1       8.331   5.137  23.375  0.00  0.00    +0.133 C 
ENDBRANCH  16  19
ENDBRANCH   4  13
BRANCH   1  25
ATOM     25  N   UNL     1       7.327  -5.042  26.522  0.00  0.00    -0.324 N 
ATOM     26  H   UNL     1       8.004  -5.744  26.798  0.00  0.00    +0.148 HD
BRANCH  25  30
ATOM     27  C   UNL     1       4.047  -6.424  27.307  0.00  0.00    +0.000 C 
ATOM     28  C   UNL     1       5.315  -6.814  28.062  0.00  0.00    +0.002 C 
ATOM     29  C   UNL     1       6.064  -5.591  28.583  0.00  0.00    +0.022 C 
ATOM     30  C   UNL     1       6.353  -4.562  27.488  0.00  0.00    +0.072 C 
ATOM     31  C   UNL     1       5.068  -4.183  26.737  0.00  0.00    +0.022 C 
ATOM     32  C   UNL     1       4.316  -5.402  26.207  0.00  0.00    +0.002 C 
ENDBRANCH  25  30
ENDBRANCH   1  25
TORSDOF 4
ENDMDL
MODEL 3
REMARK VINA RESULT:      -6.9      1.198      1.991
REMARK  Name = 
REMARK  4 active torsions:
REMARK  status: ('A' for Active; 'I' for Inactive)
REMARK    1  A    between atoms: C_4  and  N_7
REMARK    2  A    between atoms: N_7  and  C_8
REMARK    3  A    between atoms: N_16  and  C_17
REMARK    4  A    between atoms: C_20  and  N_23
REMARK                            x       y       z     vdW  Elec       q    Type
REMARK                         _______ _______ _______ _____ _____    ______ ____
ROOT
ATOM      1  C   UNL     1       5.501  -6.431  26.333  0.00  0.00    +0.152 A 
ATOM      2  N   UNL     1       6.574  -5.597  26.318  0.00  0.00    -0.197 NA
ATOM      3  C   UNL     1       6.949  -4.989  25.176  0.00  0.00    +0.223 A 
ATOM      4  N   UNL     1       8.056  -4.152  25.306  0.00  0.00    -0.284 N 
ATOM      5  H   UNL     1       8.449  -4.254  26.230  0.00  0.00    +0.155 HD
ATOM      6  N   UNL     1       6.347  -5.135  23.981  0.00  0.00    -0.195 NA
ATOM      7  C   UNL     1       5.299  -5.957  24.032  0.00  0.00    +0.165 A 
ATOM      8  N   UNL     1       4.451  -6.255  23.007  0.00  0.00    -0.329 N 
ATOM      9  H   UNL     1       4.511  -5.877  22.073  0.00  0.00    +0.168 HD
ATOM     10  C   UNL     1       3.495  -7.097  23.502  0.00  0.00    +0.198 A 
ATOM     11  N   UNL     1       3.701  -7.379  24.773  0.00  0.00    -0.231 NA
ATOM     12  C   UNL     1       4.824  -6.653  25.125  0.00  0.00    +0.147 A 
ENDROOT
BRANCH   4  13
ATOM     13  C   UNL     1       8.365  -2.969  24.627  0.00  0.00    +0.034 A 
ATOM     14  C   UNL     1       7.436  -1.931  24.599  0.00  0.00    +0.025 A 
ATOM     15  C   UNL     1       7.754  -0.692  24.022  0.00  0.00    +0.025 A 
ATOM     16  C   UNL     1       9.017  -0.428  23.469  0.00  0.00    +0.030 A 
ATOM     17  C   UNL     1       9.923  -1.492  23.473  0.00  0.00    +0.025 A 
ATOM     18  C   UNL     1       9.608  -2.730  24.042  0.00  0.00    +0.025 A 
BRANCH  16  19
ATOM     19  N   UNL     1       9.364   0.810  22.973  0.00  0.00    -0.326 N 
ATOM     20  C   UNL     1      10.260   1.741  23.674  0.00  0.00    +0.133 C 
ATOM     21  C   UNL     1       9.511   3.048  23.956  0.00  0.00    +0.178 C 
ATOM     22  O   UNL     1       8.997   3.629  22.742  0.00  0.00    -0.377 OA
ATOM     23  C   UNL     1       8.099   2.715  22.088  0.00  0.00    +0.178 C 
ATOM     24  C   UNL     1       8.785   1.381  21.746  0.00  0.00    +0.133 C 
ENDBRANCH  16  19
ENDBRANCH   4  13
BRANCH   1  25
ATOM     25  N   UNL     1       5.076  -6.991  27.525  0.00  0.00    -0.324 N 
ATOM     26  H   UNL     1       5.837  -7.287  28.126  0.00  0.00    +0.148 HD
BRANCH  25  30
ATOM     27  C   UNL     1       4.521  -4.840  30.414  0.00  0.00    +0.000 C 
ATOM     28  C   UNL     1       4.576  -4.311  28.984  0.00  0.00    +0.002 C 
ATOM     29  C   UNL     1       3.617  -5.061  28.064  0.00  0.00    +0.022 C 
ATOM     30  C   UNL     1       3.813  -6.578  28.113  0.00  0.00    +0.072 C 
ATOM     31  C   UNL     1       3.757  -7.093  29.559  0.00  0.00    +0.022 C 
ATOM     32  C   UNL     1       4.721  -6.351  30.484  0.00  0.00    +0.002 C 
ENDBRANCH  25  30
ENDBRANCH   1  25
TORSDOF 4
ENDMDL
MODEL 4
REMARK VINA RESULT:      -6.9      3.688     10.162
REMARK  Name = 
REMARK  4 active torsions:
REMARK  status: ('A' for Active; 'I' for Inactive)
REMARK    1  A    between atoms: C_4  and  N_7
REMARK    2  A    between atoms: N_7  and  C_8
REMARK    3  A    between atoms: N_16  and  C_17
REMARK    4  A    between atoms: C_20  and  N_23
REMARK                            x       y       z     vdW  Elec       q    Type
REMARK                         _______ _______ _______ _____ _____    ______ ____
ROOT
ATOM      1  C   UNL     1       8.149   1.556  22.850  0.00  0.00    +0.152 A 
ATOM      2  N   UNL     1       7.164   0.651  22.610  0.00  0.00    -0.197 NA
ATOM      3  C   UNL     1       7.301  -0.628  23.009  0.00  0.00    +0.223 A 
ATOM      4  N   UNL     1       6.211  -1.445  22.710  0.00  0.00    -0.284 N 
ATOM      5  H   UNL     1       5.558  -0.938  22.131  0.00  0.00    +0.155 HD
ATOM      6  N   UNL     1       8.372  -1.135  23.647  0.00  0.00    -0.195 NA
ATOM      7  C   UNL     1       9.317  -0.221  23.869  0.00  0.00    +0.165 A 
ATOM      8  N   UNL     1      10.485  -0.410  24.546  0.00  0.00    -0.329 N 
ATOM      9  H   UNL     1      10.776  -1.275  24.975  0.00  0.00    +0.168 HD
ATOM     10  C   UNL     1      11.134   0.793  24.578  0.00  0.00    +0.198 A 
ATOM     11  N   UNL     1      10.466   1.728  23.934  0.00  0.00    -0.231 NA
ATOM     12  C   UNL     1       9.310   1.108  23.498  0.00  0.00    +0.147 A 
ENDROOT
BRANCH   4  13
ATOM     13  C   UNL     1       5.697  -2.540  23.412  0.00  0.00    +0.034 A 
ATOM     14  C   UNL     1       5.247  -2.367  24.719  0.00  0.00    +0.025 A 
ATOM     15  C   UNL     1       4.626  -3.416  25.414  0.00  0.00    +0.025 A 
ATOM     16  C   UNL     1       4.408  -4.673  24.829  0.00  0.00    +0.030 A 
ATOM     17  C   UNL     1       4.899  -4.840  23.531  0.00  0.00    +0.025 A 
ATOM     18  C   UNL     1       5.524  -3.798  22.838  0.00  0.00    +0.025 A 
BRANCH  16  19
ATOM     19  N   UNL     1       3.728  -5.683  25.475  0.00  0.00    -0.326 N 
ATOM     20  C   UNL     1       4.019  -7.110  25.278  0.00  0.00    +0.133 C 
ATOM     21  C   UNL     1       2.766  -7.813  24.744  0.00  0.00    +0.178 C 
ATOM     22  O   UNL     1       1.644  -7.624  25.627  0.00  0.00    -0.377 OA
ATOM     23  C   UNL     1       1.356  -6.224  25.782  0.00  0.00    +0.178 C 
ATOM     24  C   UNL     1       2.561  -5.447  26.340  0.00  0.00    +0.133 C 
ENDBRANCH  16  19
ENDBRANCH   4  13
BRANCH   1  25
ATOM     25  N   UNL     1       7.968   2.884  22.506  0.00  0.00    -0.324 N 
ATOM     26  H   UNL     1       7.982   3.047  21.505  0.00  0.00    +0.148 HD
BRANCH  25  30
ATOM     27  C   UNL     1       8.340   6.474  23.008  0.00  0.00    +0.000 C 
ATOM     28  C   UNL     1       7.400   5.875  21.966  0.00  0.00    +0.002 C 
ATOM     29  C   UNL     1       6.455   4.846  22.580  0.00  0.00    +0.022 C 
ATOM     30  C   UNL     1       7.192   3.760  23.367  0.00  0.00    +0.072 C 
ATOM     31  C   UNL     1       8.135   4.380  24.408  0.00  0.00    +0.022 C 
ATOM     32  C   UNL     1       9.088   5.406  23.800  0.00  0.00    +0.002 C 
ENDBRANCH  25  30
ENDBRANCH   1  25
TORSDOF 4
ENDMDL
MODEL 5
REMARK VINA RESULT:      -6.9      3.933     10.146
REMARK  Name = 
REMARK  4 active torsions:
REMARK  status: ('A' for Active; 'I' for Inactive)
REMARK    1  A    between atoms: C_4  and  N_7
REMARK    2  A    between atoms: N_7  and  C_8
REMARK    3  A    between atoms: N_16  and  C_17
REMARK    4  A    between atoms: C_20  and  N_23
REMARK                            x       y       z     vdW  Elec       q    Type
REMARK                         _______ _______ _______ _____ _____    ______ ____
ROOT
ATOM      1  C   UNL     1       7.921   2.737  22.523  0.00  0.00    +0.152 A 
ATOM      2  N   UNL     1       7.102   1.658  22.414  0.00  0.00    -0.197 NA
ATOM      3  C   UNL     1       7.538   0.433  22.765  0.00  0.00    +0.223 A 
ATOM      4  N   UNL     1       6.592  -0.580  22.616  0.00  0.00    -0.284 N 
ATOM      5  H   UNL     1       5.775  -0.213  22.150  0.00  0.00    +0.155 HD
ATOM      6  N   UNL     1       8.769   0.147  23.228  0.00  0.00    -0.195 NA
ATOM      7  C   UNL     1       9.545   1.226  23.324  0.00  0.00    +0.165 A 
ATOM      8  N   UNL     1      10.815   1.271  23.817  0.00  0.00    -0.329 N 
ATOM      9  H   UNL     1      11.326   0.482  24.182  0.00  0.00    +0.168 HD
ATOM     10  C   UNL     1      11.221   2.576  23.774  0.00  0.00    +0.198 A 
ATOM     11  N   UNL     1      10.299   3.360  23.253  0.00  0.00    -0.231 NA
ATOM     12  C   UNL     1       9.230   2.525  22.983  0.00  0.00    +0.147 A 
ENDROOT
BRANCH   4  13
ATOM     13  C   UNL     1       6.406  -1.745  23.366  0.00  0.00    +0.034 A 
ATOM     14  C   UNL     1       6.726  -2.980  22.806  0.00  0.00    +0.025 A 
ATOM     15  C   UNL     1       6.655  -4.158  23.566  0.00  0.00    +0.025 A 
ATOM     16  C   UNL     1       6.285  -4.153  24.919  0.00  0.00    +0.030 A 
ATOM     17  C   UNL     1       5.932  -2.911  25.454  0.00  0.00    +0.025 A 
ATOM     18  C   UNL     1       5.995  -1.735  24.698  0.00  0.00    +0.025 A 
BRANCH  16  19
ATOM     19  N   UNL     1       6.291  -5.293  25.693  0.00  0.00    -0.326 N 
ATOM     20  C   UNL     1       5.311  -6.377  25.545  0.00  0.00    +0.133 C 
ATOM     21  C   UNL     1       4.548  -6.554  26.864  0.00  0.00    +0.178 C 
ATOM     22  O   UNL     1       5.448  -6.807  27.958  0.00  0.00    -0.377 OA
ATOM     23  C   UNL     1       6.379  -5.721  28.107  0.00  0.00    +0.178 C 
ATOM     24  C   UNL     1       7.206  -5.493  26.829  0.00  0.00    +0.133 C 
ENDBRANCH  16  19
ENDBRANCH   4  13
BRANCH   1  25
ATOM     25  N   UNL     1       7.442   4.003  22.233  0.00  0.00    -0.324 N 
ATOM     26  H   UNL     1       6.780   4.017  21.466  0.00  0.00    +0.148 HD
BRANCH  25  30
ATOM     27  C   UNL     1       5.400   7.020  22.310  0.00  0.00    +0.000 C 
ATOM     28  C   UNL     1       4.931   5.686  22.883  0.00  0.00    +0.002 C 
ATOM     29  C   UNL     1       5.940   5.105  23.869  0.00  0.00    +0.022 C 
ATOM     30  C   UNL     1       7.350   5.003  23.283  0.00  0.00    +0.072 C 
ATOM     31  C   UNL     1       7.806   6.353  22.709  0.00  0.00    +0.022 C 
ATOM     32  C   UNL     1       6.803   6.938  21.716  0.00  0.00    +0.002 C 
ENDBRANCH  25  30
ENDBRANCH   1  25
TORSDOF 4
ENDMDL
MODEL 6
REMARK VINA RESULT:      -6.8      3.918      6.524
REMARK  Name = 
REMARK  4 active torsions:
REMARK  status: ('A' for Active; 'I' for Inactive)
REMARK    1  A    between atoms: C_4  and  N_7
REMARK    2  A    between atoms: N_7  and  C_8
REMARK    3  A    between atoms: N_16  and  C_17
REMARK    4  A    between atoms: C_20  and  N_23
REMARK                            x       y       z     vdW  Elec       q    Type
REMARK                         _______ _______ _______ _____ _____    ______ ____
ROOT
ATOM      1  C   UNL     1       7.688  -2.785  23.243  0.00  0.00    +0.152 A 
ATOM      2  N   UNL     1       7.585  -1.557  22.671  0.00  0.00    -0.197 NA
ATOM      3  C   UNL     1       7.757  -0.444  23.409  0.00  0.00    +0.223 A 
ATOM      4  N   UNL     1       7.637   0.746  22.693  0.00  0.00    -0.284 N 
ATOM      5  H   UNL     1       7.319   0.546  21.756  0.00  0.00    +0.155 HD
ATOM      6  N   UNL     1       8.025  -0.417  24.728  0.00  0.00    -0.195 NA
ATOM      7  C   UNL     1       8.120  -1.637  25.257  0.00  0.00    +0.165 A 
ATOM      8  N   UNL     1       8.445  -1.939  26.546  0.00  0.00    -0.329 N 
ATOM      9  H   UNL     1       8.663  -1.265  27.265  0.00  0.00    +0.168 HD
ATOM     10  C   UNL     1       8.474  -3.302  26.649  0.00  0.00    +0.198 A 
ATOM     11  N   UNL     1       8.156  -3.886  25.511  0.00  0.00    -0.231 NA
ATOM     12  C   UNL     1       7.949  -2.849  24.620  0.00  0.00    +0.147 A 
ENDROOT
BRANCH   4  13
ATOM     13  C   UNL     1       8.290   1.969  22.879  0.00  0.00    +0.034 A 
ATOM     14  C   UNL     1       7.550   3.095  23.233  0.00  0.00    +0.025 A 
ATOM     15  C   UNL     1       8.184   4.311  23.533  0.00  0.00    +0.025 A 
ATOM     16  C   UNL     1       9.580   4.449  23.514  0.00  0.00    +0.030 A 
ATOM     17  C   UNL     1      10.304   3.320  23.120  0.00  0.00    +0.025 A 
ATOM     18  C   UNL     1       9.675   2.109  22.814  0.00  0.00    +0.025 A 
BRANCH  16  19
ATOM     19  N   UNL     1      10.215   5.615  23.884  0.00  0.00    -0.326 N 
ATOM     20  C   UNL     1      11.558   5.990  23.420  0.00  0.00    +0.133 C 
ATOM     21  C   UNL     1      12.487   6.144  24.630  0.00  0.00    +0.178 C 
ATOM     22  O   UNL     1      11.969   7.107  25.567  0.00  0.00    -0.377 OA
ATOM     23  C   UNL     1      10.669   6.708  26.033  0.00  0.00    +0.178 C 
ATOM     24  C   UNL     1       9.665   6.554  24.877  0.00  0.00    +0.133 C 
ENDBRANCH  16  19
ENDBRANCH   4  13
BRANCH   1  25
ATOM     25  N   UNL     1       7.586  -3.924  22.463  0.00  0.00    -0.324 N 
ATOM     26  H   UNL     1       8.146  -4.698  22.804  0.00  0.00    +0.148 HD
BRANCH  25  30
ATOM     27  C   UNL     1       5.026  -6.429  23.136  0.00  0.00    +0.000 C 
ATOM     28  C   UNL     1       4.954  -5.004  23.674  0.00  0.00    +0.002 C 
ATOM     29  C   UNL     1       5.110  -3.968  22.564  0.00  0.00    +0.022 C 
ATOM     30  C   UNL     1       6.367  -4.190  21.719  0.00  0.00    +0.072 C 
ATOM     31  C   UNL     1       6.425  -5.629  21.187  0.00  0.00    +0.022 C 
ATOM     32  C   UNL     1       6.276  -6.671  22.295  0.00  0.00    +0.002 C 
ENDBRANCH  25  30
ENDBRANCH   1  25
TORSDOF 4
ENDMDL
MODEL 7
REMARK VINA RESULT:      -6.7      3.610     10.050
REMARK  Name = 
REMARK  4 active torsions:
REMARK  status: ('A' for Active; 'I' for Inactive)
REMARK    1  A    between atoms: C_4  and  N_7
REMARK    2  A    between atoms: N_7  and  C_8
REMARK    3  A    between atoms: N_16  and  C_17
REMARK    4  A    between atoms: C_20  and  N_23
REMARK                            x       y       z     vdW  Elec       q    Type
REMARK                         _______ _______ _______ _____ _____    ______ ____
ROOT
ATOM      1  C   UNL     1       8.068   1.838  22.710  0.00  0.00    +0.152 A 
ATOM      2  N   UNL     1       7.117   0.871  22.621  0.00  0.00    -0.197 NA
ATOM      3  C   UNL     1       7.372  -0.378  23.057  0.00  0.00    +0.223 A 
ATOM      4  N   UNL     1       6.306  -1.265  22.918  0.00  0.00    -0.284 N 
ATOM      5  H   UNL     1       5.564  -0.822  22.396  0.00  0.00    +0.155 HD
ATOM      6  N   UNL     1       8.535  -0.795  23.590  0.00  0.00    -0.195 NA
ATOM      7  C   UNL     1       9.444   0.177  23.664  0.00  0.00    +0.165 A 
ATOM      8  N   UNL     1      10.689   0.085  24.212  0.00  0.00    -0.329 N 
ATOM      9  H   UNL     1      11.076  -0.742  24.641  0.00  0.00    +0.168 HD
ATOM     10  C   UNL     1      11.266   1.320  24.118  0.00  0.00    +0.198 A 
ATOM     11  N   UNL     1      10.477   2.186  23.515  0.00  0.00    -0.231 NA
ATOM     12  C   UNL     1       9.318   1.485  23.240  0.00  0.00    +0.147 A 
ENDROOT
BRANCH   4  13
ATOM     13  C   UNL     1       5.938  -2.350  23.720  0.00  0.00    +0.034 A 
ATOM     14  C   UNL     1       6.349  -3.635  23.367  0.00  0.00    +0.025 A 
ATOM     15  C   UNL     1       6.091  -4.731  24.205  0.00  0.00    +0.025 A 
ATOM     16  C   UNL     1       5.434  -4.591  25.436  0.00  0.00    +0.030 A 
ATOM     17  C   UNL     1       4.996  -3.303  25.756  0.00  0.00    +0.025 A 
ATOM     18  C   UNL     1       5.246  -2.209  24.921  0.00  0.00    +0.025 A 
BRANCH  16  19
ATOM     19  N   UNL     1       5.248  -5.648  26.301  0.00  0.00    -0.326 N 
ATOM     20  C   UNL     1       4.199  -6.662  26.127  0.00  0.00    +0.133 C 
ATOM     21  C   UNL     1       3.275  -6.651  27.350  0.00  0.00    +0.178 C 
ATOM     22  O   UNL     1       4.015  -6.867  28.566  0.00  0.00    -0.377 OA
ATOM     23  C   UNL     1       5.015  -5.846  28.735  0.00  0.00    +0.178 C 
ATOM     24  C   UNL     1       6.002  -5.808  27.555  0.00  0.00    +0.133 C 
ENDBRANCH  16  19
ENDBRANCH   4  13
BRANCH   1  25
ATOM     25  N   UNL     1       7.772   3.136  22.332  0.00  0.00    -0.324 N 
ATOM     26  H   UNL     1       7.697   3.257  21.329  0.00  0.00    +0.148 HD
BRANCH  25  30
ATOM     27  C   UNL     1       8.311   6.663  23.078  0.00  0.00    +0.000 C 
ATOM     28  C   UNL     1       7.381   6.182  21.968  0.00  0.00    +0.002 C 
ATOM     29  C   UNL     1       6.362   5.169  22.481  0.00  0.00    +0.022 C 
ATOM     30  C   UNL     1       7.011   3.997  23.221  0.00  0.00    +0.072 C 
ATOM     31  C   UNL     1       7.944   4.498  24.332  0.00  0.00    +0.022 C 
ATOM     32  C   UNL     1       8.973   5.508  23.824  0.00  0.00    +0.002 C 
ENDBRANCH  25  30
ENDBRANCH   1  25
TORSDOF 4
ENDMDL
MODEL 8
REMARK VINA RESULT:      -6.4      4.718     10.218
REMARK  Name = 
REMARK  4 active torsions:
REMARK  status: ('A' for Active; 'I' for Inactive)
REMARK    1  A    between atoms: C_4  and  N_7
REMARK    2  A    between atoms: N_7  and  C_8
REMARK    3  A    between atoms: N_16  and  C_17
REMARK    4  A    between atoms: C_20  and  N_23
REMARK                            x       y       z     vdW  Elec       q    Type
REMARK                         _______ _______ _______ _____ _____    ______ ____
ROOT
ATOM      1  C   UNL     1       6.826   4.458  22.495  0.00  0.00    +0.152 A 
ATOM      2  N   UNL     1       6.519   3.158  22.244  0.00  0.00    -0.197 NA
ATOM      3  C   UNL     1       7.391   2.179  22.556  0.00  0.00    +0.223 A 
ATOM      4  N   UNL     1       6.943   0.893  22.258  0.00  0.00    -0.284 N 
ATOM      5  H   UNL     1       6.077   0.949  21.743  0.00  0.00    +0.155 HD
ATOM      6  N   UNL     1       8.603   2.363  23.111  0.00  0.00    -0.195 NA
ATOM      7  C   UNL     1       8.871   3.648  23.345  0.00  0.00    +0.165 A 
ATOM      8  N   UNL     1       9.983   4.146  23.955  0.00  0.00    -0.329 N 
ATOM      9  H   UNL     1      10.747   3.594  24.316  0.00  0.00    +0.168 HD
ATOM     10  C   UNL     1       9.831   5.503  24.031  0.00  0.00    +0.198 A 
ATOM     11  N   UNL     1       8.703   5.901  23.479  0.00  0.00    -0.231 NA
ATOM     12  C   UNL     1       8.079   4.741  23.059  0.00  0.00    +0.147 A 
ENDROOT
BRANCH   4  13
ATOM     13  C   UNL     1       7.199  -0.315  22.913  0.00  0.00    +0.034 A 
ATOM     14  C   UNL     1       6.428  -0.673  24.018  0.00  0.00    +0.025 A 
ATOM     15  C   UNL     1       6.585  -1.926  24.631  0.00  0.00    +0.025 A 
ATOM     16  C   UNL     1       7.498  -2.881  24.159  0.00  0.00    +0.030 A 
ATOM     17  C   UNL     1       8.288  -2.490  23.073  0.00  0.00    +0.025 A 
ATOM     18  C   UNL     1       8.139  -1.241  22.463  0.00  0.00    +0.025 A 
BRANCH  16  19
ATOM     19  N   UNL     1       7.601  -4.141  24.705  0.00  0.00    -0.326 N 
ATOM     20  C   UNL     1       6.645  -5.224  24.431  0.00  0.00    +0.133 C 
ATOM     21  C   UNL     1       5.999  -5.673  25.747  0.00  0.00    +0.178 C 
ATOM     22  O   UNL     1       6.993  -6.082  26.705  0.00  0.00    -0.377 OA
ATOM     23  C   UNL     1       7.900  -5.000  26.983  0.00  0.00    +0.178 C 
ATOM     24  C   UNL     1       8.612  -4.506  25.711  0.00  0.00    +0.133 C 
ENDBRANCH  16  19
ENDBRANCH   4  13
BRANCH   1  25
ATOM     25  N   UNL     1       5.895   5.451  22.243  0.00  0.00    -0.324 N 
ATOM     26  H   UNL     1       5.524   5.425  21.300  0.00  0.00    +0.148 HD
BRANCH  25  30
ATOM     27  C   UNL     1       2.261   5.511  22.509  0.00  0.00    +0.000 C 
ATOM     28  C   UNL     1       3.115   4.375  23.064  0.00  0.00    +0.002 C 
ATOM     29  C   UNL     1       4.220   4.891  23.982  0.00  0.00    +0.022 C 
ATOM     30  C   UNL     1       5.079   5.974  23.324  0.00  0.00    +0.072 C 
ATOM     31  C   UNL     1       4.204   7.108  22.770  0.00  0.00    +0.022 C 
ATOM     32  C   UNL     1       3.100   6.599  21.845  0.00  0.00    +0.002 C 
ENDBRANCH  25  30
ENDBRANCH   1  25
TORSDOF 4
ENDMDL
MODEL 9
REMARK VINA RESULT:      -6.1      2.595      3.609
REMARK  Name = 
REMARK  4 active torsions:
REMARK  status: ('A' for Active; 'I' for Inactive)
REMARK    1  A    between atoms: C_4  and  N_7
REMARK    2  A    between atoms: N_7  and  C_8
REMARK    3  A    between atoms: N_16  and  C_17
REMARK    4  A    between atoms: C_20  and  N_23
REMARK                            x       y       z     vdW  Elec       q    Type
REMARK                         _______ _______ _______ _____ _____    ______ ____
ROOT
ATOM      1  C   UNL     1       5.551  -5.650  24.581  0.00  0.00    +0.152 A 
ATOM      2  N   UNL     1       5.959  -4.700  25.462  0.00  0.00    -0.197 NA
ATOM      3  C   UNL     1       6.805  -3.727  25.073  0.00  0.00    +0.223 A 
ATOM      4  N   UNL     1       7.130  -2.812  26.073  0.00  0.00    -0.284 N 
ATOM      5  H   UNL     1       6.753  -3.128  26.955  0.00  0.00    +0.155 HD
ATOM      6  N   UNL     1       7.325  -3.594  23.839  0.00  0.00    -0.195 NA
ATOM      7  C   UNL     1       6.903  -4.540  23.000  0.00  0.00    +0.165 A 
ATOM      8  N   UNL     1       7.199  -4.638  21.673  0.00  0.00    -0.329 N 
ATOM      9  H   UNL     1       7.775  -3.992  21.155  0.00  0.00    +0.168 HD
ATOM     10  C   UNL     1       6.526  -5.724  21.186  0.00  0.00    +0.198 A 
ATOM     11  N   UNL     1       5.845  -6.342  22.130  0.00  0.00    -0.231 NA
ATOM     12  C   UNL     1       6.058  -5.596  23.274  0.00  0.00    +0.147 A 
ENDROOT
BRANCH   4  13
ATOM     13  C   UNL     1       7.418  -1.447  25.975  0.00  0.00    +0.034 A 
ATOM     14  C   UNL     1       8.716  -1.040  25.673  0.00  0.00    +0.025 A 
ATOM     15  C   UNL     1       9.017   0.314  25.460  0.00  0.00    +0.025 A 
ATOM     16  C   UNL     1       8.035   1.315  25.517  0.00  0.00    +0.030 A 
ATOM     17  C   UNL     1       6.747   0.893  25.858  0.00  0.00    +0.025 A 
ATOM     18  C   UNL     1       6.444  -0.455  26.077  0.00  0.00    +0.025 A 
BRANCH  16  19
ATOM     19  N   UNL     1       8.305   2.636  25.230  0.00  0.00    -0.326 N 
ATOM     20  C   UNL     1       7.696   3.762  25.951  0.00  0.00    +0.133 C 
ATOM     21  C   UNL     1       6.910   4.631  24.962  0.00  0.00    +0.178 C 
ATOM     22  O   UNL     1       7.751   5.090  23.887  0.00  0.00    -0.377 OA
ATOM     23  C   UNL     1       8.312   3.974  23.175  0.00  0.00    +0.178 C 
ATOM     24  C   UNL     1       9.141   3.062  24.096  0.00  0.00    +0.133 C 
ENDBRANCH  16  19
ENDBRANCH   4  13
BRANCH   1  25
ATOM     25  N   UNL     1       4.622  -6.601  24.967  0.00  0.00    -0.324 N 
ATOM     26  H   UNL     1       5.036  -7.406  25.425  0.00  0.00    +0.148 HD
BRANCH  25  30
ATOM     27  C   UNL     1       1.492  -7.793  23.531  0.00  0.00    +0.000 C 
ATOM     28  C   UNL     1       2.125  -8.413  24.773  0.00  0.00    +0.002 C 
ATOM     29  C   UNL     1       2.431  -7.365  25.838  0.00  0.00    +0.022 C 
ATOM     30  C   UNL     1       3.267  -6.200  25.301  0.00  0.00    +0.072 C 
ATOM     31  C   UNL     1       2.617  -5.589  24.051  0.00  0.00    +0.022 C 
ATOM     32  C   UNL     1       2.314  -6.633  22.977  0.00  0.00    +0.002 C 
ENDBRANCH  25  30
ENDBRANCH   1  25
TORSDOF 4
ENDMDL
