MODEL 1
REMARK VINA RESULT:      -5.3      0.000      0.000
REMARK  Name = 
REMARK  11 active torsions:
REMARK  status: ('A' for Active; 'I' for Inactive)
REMARK    1  A    between atoms: NE_4  and  CD_5
REMARK    2  A    between atoms: CD_5  and  CG_6
REMARK    3  A    between atoms: CG_6  and  CB_7
REMARK    4  A    between atoms: CB_7  and  CA_8
REMARK    5  A    between atoms: CA_8  and  N_10
REMARK    6  A    between atoms: CA_8  and  C_16
REMARK    7  A    between atoms: N_10  and  C_11
REMARK    8  A    between atoms: C_11  and  C_12
REMARK    9  A    between atoms: C_12  and  C_13
REMARK   10  A    between atoms: C_13  and  O_14
REMARK   11  A    between atoms: C_16  and  O_17
REMARK                            x       y       z     vdW  Elec       q    Type
REMARK                         _______ _______ _______ _____ _____    ______ ____
ROOT
ATOM      1  CA  ARG A   1       9.915  -2.132  23.758  0.00  0.00    +0.163 C 
ENDROOT
BRANCH   1   2
ATOM      2  C   ARG A   1       9.256  -1.958  22.376  0.00  0.00    +0.322 C 
ATOM      3  OXT ARG A   1       8.108  -2.251  22.085  0.00  0.00    -0.249 OA
BRANCH   2   4
ATOM      4  O   ARG A   1      10.138  -1.446  21.476  0.00  0.00    -0.480 OA
ATOM      5  H   ARG A   1       9.647  -1.277  20.638  0.00  0.00    +0.295 HD
ENDBRANCH   2   4
ENDBRANCH   1   2
BRANCH   1   6
ATOM      6  N   ARG A   1       9.763  -3.547  24.199  0.00  0.00    -0.304 NA
ATOM      7  H   ARG A   1      10.700  -3.902  24.421  0.00  0.00    +0.123 HD
BRANCH   6   8
ATOM      8  C   UNK A   0       8.938  -3.759  25.413  0.00  0.00    +0.093 C 
BRANCH   8   9
ATOM      9  C   UNK A   0       7.712  -4.655  25.233  0.00  0.00    +0.135 C 
BRANCH   9  10
ATOM     10  C   UNK A   0       7.511  -5.029  23.784  0.00  0.00    +0.306 C 
ATOM     11  O   UNK A   0       8.229  -5.783  23.148  0.00  0.00    -0.251 OA
BRANCH  10  12
ATOM     12  O   UNK A   0       6.426  -4.431  23.240  0.00  0.00    -0.481 OA
ATOM     13  H   UNK A   0       6.367  -3.474  23.424  0.00  0.00    +0.295 HD
ENDBRANCH  10  12
ENDBRANCH   9  10
ENDBRANCH   8   9
ENDBRANCH   6   8
ENDBRANCH   1   6
BRANCH   1  14
ATOM     14  CB  ARG A   1       9.490  -1.037  24.751  0.00  0.00    +0.033 C 
BRANCH  14  15
ATOM     15  CG  ARG A   1      10.418   0.182  24.823  0.00  0.00    +0.039 C 
BRANCH  15  16
ATOM     16  CD  ARG A   1       9.748   1.490  24.394  0.00  0.00    +0.196 C 
BRANCH  16  21
ATOM     17  NH1 ARG A   1       8.632   1.403  20.956  0.00  0.00    -0.289 N 
ATOM     18 HH11 ARG A   1       8.030   0.600  21.057  0.00  0.00    +0.255 HD
ATOM     19 HH12 ARG A   1       8.999   1.527  20.022  0.00  0.00    +0.255 HD
ATOM     20  CZ  ARG A   1       9.427   1.740  21.987  0.00  0.00    +0.376 C 
ATOM     21  NE  ARG A   1       8.980   1.277  23.176  0.00  0.00    -0.276 N 
ATOM     22  HE  ARG A   1       8.481   0.399  23.143  0.00  0.00    +0.258 HD
ATOM     23  NH2 ARG A   1      10.470   2.471  21.844  0.00  0.00    -0.130 NA
ATOM     24  HH2 ARG A   1      10.575   2.725  20.861  0.00  0.00    +0.306 HD
ENDBRANCH  16  21
ENDBRANCH  15  16
ENDBRANCH  14  15
ENDBRANCH   1  14
TORSDOF 11
ENDMDL
MODEL 2
REMARK VINA RESULT:      -5.3      2.340      6.224
REMARK  Name = 
REMARK  11 active torsions:
REMARK  status: ('A' for Active; 'I' for Inactive)
REMARK    1  A    between atoms: NE_4  and  CD_5
REMARK    2  A    between atoms: CD_5  and  CG_6
REMARK    3  A    between atoms: CG_6  and  CB_7
REMARK    4  A    between atoms: CB_7  and  CA_8
REMARK    5  A    between atoms: CA_8  and  N_10
REMARK    6  A    between atoms: CA_8  and  C_16
REMARK    7  A    between atoms: N_10  and  C_11
REMARK    8  A    between atoms: C_11  and  C_12
REMARK    9  A    between atoms: C_12  and  C_13
REMARK   10  A    between atoms: C_13  and  O_14
REMARK   11  A    between atoms: C_16  and  O_17
REMARK                            x       y       z     vdW  Elec       q    Type
REMARK                         _______ _______ _______ _____ _____    ______ ____
ROOT
ATOM      1  CA  ARG A   1       8.367  -1.376  23.068  0.00  0.00    +0.163 C 
ENDROOT
BRANCH   1   2
ATOM      2  C   ARG A   1       9.751  -2.028  22.884  0.00  0.00    +0.322 C 
ATOM      3  OXT ARG A   1      10.293  -2.795  23.661  0.00  0.00    -0.249 OA
BRANCH   2   4
ATOM      4  O   ARG A   1      10.334  -1.616  21.726  0.00  0.00    -0.480 OA
ATOM      5  H   ARG A   1       9.707  -1.003  21.276  0.00  0.00    +0.295 HD
ENDBRANCH   2   4
ENDBRANCH   1   2
BRANCH   1   6
ATOM      6  N   ARG A   1       8.533   0.097  23.207  0.00  0.00    -0.304 NA
ATOM      7  H   ARG A   1       7.601   0.498  23.362  0.00  0.00    +0.123 HD
BRANCH   6   8
ATOM      8  C   UNK A   0       9.374   0.546  24.344  0.00  0.00    +0.093 C 
BRANCH   8   9
ATOM      9  C   UNK A   0      10.608   1.370  23.970  0.00  0.00    +0.135 C 
BRANCH   9  10
ATOM     10  C   UNK A   0      10.243   2.536  23.083  0.00  0.00    +0.306 C 
ATOM     11  O   UNK A   0       9.975   3.660  23.476  0.00  0.00    -0.251 OA
BRANCH  10  12
ATOM     12  O   UNK A   0      10.243   2.210  21.770  0.00  0.00    -0.481 OA
ATOM     13  H   UNK A   0      10.576   1.310  21.586  0.00  0.00    +0.295 HD
ENDBRANCH  10  12
ENDBRANCH   9  10
ENDBRANCH   8   9
ENDBRANCH   6   8
ENDBRANCH   1   6
BRANCH   1  14
ATOM     14  CB  ARG A   1       7.521  -2.092  24.134  0.00  0.00    +0.033 C 
BRANCH  14  15
ATOM     15  CG  ARG A   1       6.686  -3.276  23.627  0.00  0.00    +0.039 C 
BRANCH  15  16
ATOM     16  CD  ARG A   1       6.967  -4.586  24.366  0.00  0.00    +0.196 C 
BRANCH  16  21
ATOM     17  NH1 ARG A   1      10.242  -5.501  25.596  0.00  0.00    -0.289 N 
ATOM     18 HH11 ARG A   1      10.697  -5.514  24.696  0.00  0.00    +0.255 HD
ATOM     19 HH12 ARG A   1      10.667  -6.113  26.279  0.00  0.00    +0.255 HD
ATOM     20  CZ  ARG A   1       8.905  -5.356  25.635  0.00  0.00    +0.376 C 
ATOM     21  NE  ARG A   1       8.402  -4.766  24.528  0.00  0.00    -0.276 N 
ATOM     22  HE  ARG A   1       8.900  -4.954  23.668  0.00  0.00    +0.258 HD
ATOM     23  NH2 ARG A   1       8.204  -5.698  26.651  0.00  0.00    -0.130 NA
ATOM     24  HH2 ARG A   1       8.815  -6.083  27.373  0.00  0.00    +0.306 HD
ENDBRANCH  16  21
ENDBRANCH  15  16
ENDBRANCH  14  15
ENDBRANCH   1  14
TORSDOF 11
ENDMDL
MODEL 3
REMARK VINA RESULT:      -5.3      3.339      5.775
REMARK  Name = 
REMARK  11 active torsions:
REMARK  status: ('A' for Active; 'I' for Inactive)
REMARK    1  A    between atoms: NE_4  and  CD_5
REMARK    2  A    between atoms: CD_5  and  CG_6
REMARK    3  A    between atoms: CG_6  and  CB_7
REMARK    4  A    between atoms: CB_7  and  CA_8
REMARK    5  A    between atoms: CA_8  and  N_10
REMARK    6  A    between atoms: CA_8  and  C_16
REMARK    7  A    between atoms: N_10  and  C_11
REMARK    8  A    between atoms: C_11  and  C_12
REMARK    9  A    between atoms: C_12  and  C_13
REMARK   10  A    between atoms: C_13  and  O_14
REMARK   11  A    between atoms: C_16  and  O_17
REMARK                            x       y       z     vdW  Elec       q    Type
REMARK                         _______ _______ _______ _____ _____    ______ ____
ROOT
ATOM      1  CA  ARG A   1       6.382  -4.741  23.661  0.00  0.00    +0.163 C 
ENDROOT
BRANCH   1   2
ATOM      2  C   ARG A   1       7.353  -5.540  22.772  0.00  0.00    +0.322 C 
ATOM      3  OXT ARG A   1       7.112  -5.984  21.662  0.00  0.00    -0.249 OA
BRANCH   2   4
ATOM      4  O   ARG A   1       8.546  -5.727  23.398  0.00  0.00    -0.480 OA
ATOM      5  H   ARG A   1       8.403  -5.592  24.364  0.00  0.00    +0.295 HD
ENDBRANCH   2   4
ENDBRANCH   1   2
BRANCH   1   6
ATOM      6  N   ARG A   1       7.012  -3.442  24.032  0.00  0.00    -0.304 NA
ATOM      7  H   ARG A   1       7.968  -3.643  24.346  0.00  0.00    +0.123 HD
BRANCH   6   8
ATOM      8  C   UNK A   0       7.133  -2.449  22.937  0.00  0.00    +0.093 C 
BRANCH   8   9
ATOM      9  C   UNK A   0       8.522  -1.836  22.750  0.00  0.00    +0.135 C 
BRANCH   9  10
ATOM     10  C   UNK A   0       9.455  -2.233  23.868  0.00  0.00    +0.306 C 
ATOM     11  O   UNK A   0      10.180  -3.214  23.861  0.00  0.00    -0.251 OA
BRANCH  10  12
ATOM     12  O   UNK A   0       9.411  -1.373  24.911  0.00  0.00    -0.481 OA
ATOM     13  H   UNK A   0      10.230  -1.354  25.444  0.00  0.00    +0.295 HD
ENDBRANCH  10  12
ENDBRANCH   9  10
ENDBRANCH   8   9
ENDBRANCH   6   8
ENDBRANCH   1   6
BRANCH   1  14
ATOM     14  CB  ARG A   1       5.801  -5.591  24.804  0.00  0.00    +0.033 C 
BRANCH  14  15
ATOM     15  CG  ARG A   1       5.711  -4.890  26.166  0.00  0.00    +0.039 C 
BRANCH  15  16
ATOM     16  CD  ARG A   1       6.690  -5.441  27.206  0.00  0.00    +0.196 C 
BRANCH  16  21
ATOM     17  NH1 ARG A   1      10.073  -5.380  25.930  0.00  0.00    -0.289 N 
ATOM     18 HH11 ARG A   1      10.212  -6.379  25.942  0.00  0.00    +0.255 HD
ATOM     19 HH12 ARG A   1      10.925  -4.845  26.028  0.00  0.00    +0.255 HD
ATOM     20  CZ  ARG A   1       8.958  -4.882  26.494  0.00  0.00    +0.376 C 
ATOM     21  NE  ARG A   1       7.952  -5.783  26.566  0.00  0.00    -0.276 N 
ATOM     22  HE  ARG A   1       8.235  -6.746  26.687  0.00  0.00    +0.258 HD
ATOM     23  NH2 ARG A   1       8.859  -3.661  26.868  0.00  0.00    -0.130 NA
ATOM     24  HH2 ARG A   1       9.735  -3.174  26.675  0.00  0.00    +0.306 HD
ENDBRANCH  16  21
ENDBRANCH  15  16
ENDBRANCH  14  15
ENDBRANCH   1  14
TORSDOF 11
ENDMDL
MODEL 4
REMARK VINA RESULT:      -5.1      3.021      4.927
REMARK  Name = 
REMARK  11 active torsions:
REMARK  status: ('A' for Active; 'I' for Inactive)
REMARK    1  A    between atoms: NE_4  and  CD_5
REMARK    2  A    between atoms: CD_5  and  CG_6
REMARK    3  A    between atoms: CG_6  and  CB_7
REMARK    4  A    between atoms: CB_7  and  CA_8
REMARK    5  A    between atoms: CA_8  and  N_10
REMARK    6  A    between atoms: CA_8  and  C_16
REMARK    7  A    between atoms: N_10  and  C_11
REMARK    8  A    between atoms: C_11  and  C_12
REMARK    9  A    between atoms: C_12  and  C_13
REMARK   10  A    between atoms: C_13  and  O_14
REMARK   11  A    between atoms: C_16  and  O_17
REMARK                            x       y       z     vdW  Elec       q    Type
REMARK                         _______ _______ _______ _____ _____    ______ ____
ROOT
ATOM      1  CA  ARG A   1       9.269   1.699  24.306  0.00  0.00    +0.163 C 
ENDROOT
BRANCH   1   2
ATOM      2  C   ARG A   1      10.284   0.700  24.893  0.00  0.00    +0.322 C 
ATOM      3  OXT ARG A   1      11.395   0.459  24.449  0.00  0.00    -0.249 OA
BRANCH   2   4
ATOM      4  O   ARG A   1       9.775   0.073  25.987  0.00  0.00    -0.480 OA
ATOM      5  H   ARG A   1       9.328  -0.750  25.680  0.00  0.00    +0.295 HD
ENDBRANCH   2   4
ENDBRANCH   1   2
BRANCH   1   6
ATOM      6  N   ARG A   1       8.297   0.964  23.448  0.00  0.00    -0.304 NA
ATOM      7  H   ARG A   1       7.365   1.344  23.645  0.00  0.00    +0.123 HD
BRANCH   6   8
ATOM      8  C   UNK A   0       8.501   1.097  21.985  0.00  0.00    +0.093 C 
BRANCH   8   9
ATOM      9  C   UNK A   0       9.499   0.119  21.364  0.00  0.00    +0.135 C 
BRANCH   9  10
ATOM     10  C   UNK A   0       9.383  -1.254  21.982  0.00  0.00    +0.306 C 
ATOM     11  O   UNK A   0       8.338  -1.859  22.153  0.00  0.00    -0.251 OA
BRANCH  10  12
ATOM     12  O   UNK A   0      10.583  -1.766  22.338  0.00  0.00    -0.481 OA
ATOM     13  H   UNK A   0      10.916  -1.436  23.196  0.00  0.00    +0.295 HD
ENDBRANCH  10  12
ENDBRANCH   9  10
ENDBRANCH   8   9
ENDBRANCH   6   8
ENDBRANCH   1   6
BRANCH   1  14
ATOM     14  CB  ARG A   1       9.951   2.935  23.696  0.00  0.00    +0.033 C 
BRANCH  14  15
ATOM     15  CG  ARG A   1       9.204   4.262  23.889  0.00  0.00    +0.039 C 
BRANCH  15  16
ATOM     16  CD  ARG A   1      10.128   5.479  23.968  0.00  0.00    +0.196 C 
BRANCH  16  21
ATOM     17  NH1 ARG A   1      13.590   5.286  22.942  0.00  0.00    -0.289 N 
ATOM     18 HH11 ARG A   1      13.488   4.463  22.369  0.00  0.00    +0.255 HD
ATOM     19 HH12 ARG A   1      14.517   5.407  23.327  0.00  0.00    +0.255 HD
ATOM     20  CZ  ARG A   1      12.547   5.673  23.699  0.00  0.00    +0.376 C 
ATOM     21  NE  ARG A   1      11.360   5.215  23.240  0.00  0.00    -0.276 N 
ATOM     22  HE  ARG A   1      11.388   4.318  22.775  0.00  0.00    +0.258 HD
ATOM     23  NH2 ARG A   1      12.679   6.441  24.715  0.00  0.00    -0.130 NA
ATOM     24  HH2 ARG A   1      13.664   6.681  24.836  0.00  0.00    +0.306 HD
ENDBRANCH  16  21
ENDBRANCH  15  16
ENDBRANCH  14  15
ENDBRANCH   1  14
TORSDOF 11
ENDMDL
MODEL 5
REMARK VINA RESULT:      -5.1      2.250      5.888
REMARK  Name = 
REMARK  11 active torsions:
REMARK  status: ('A' for Active; 'I' for Inactive)
REMARK    1  A    between atoms: NE_4  and  CD_5
REMARK    2  A    between atoms: CD_5  and  CG_6
REMARK    3  A    between atoms: CG_6  and  CB_7
REMARK    4  A    between atoms: CB_7  and  CA_8
REMARK    5  A    between atoms: CA_8  and  N_10
REMARK    6  A    between atoms: CA_8  and  C_16
REMARK    7  A    between atoms: N_10  and  C_11
REMARK    8  A    between atoms: C_11  and  C_12
REMARK    9  A    between atoms: C_12  and  C_13
REMARK   10  A    between atoms: C_13  and  O_14
REMARK   11  A    between atoms: C_16  and  O_17
REMARK                            x       y       z     vdW  Elec       q    Type
REMARK                         _______ _______ _______ _____ _____    ______ ____
ROOT
ATOM      1  CA  ARG A   1       8.387  -1.315  22.959  0.00  0.00    +0.163 C 
ENDROOT
BRANCH   1   2
ATOM      2  C   ARG A   1       9.782  -1.798  22.518  0.00  0.00    +0.322 C 
ATOM      3  OXT ARG A   1      10.507  -2.561  23.135  0.00  0.00    -0.249 OA
BRANCH   2   4
ATOM      4  O   ARG A   1      10.141  -1.237  21.332  0.00  0.00    -0.480 OA
ATOM      5  H   ARG A   1       9.315  -1.041  20.832  0.00  0.00    +0.295 HD
ENDBRANCH   2   4
ENDBRANCH   1   2
BRANCH   1   6
ATOM      6  N   ARG A   1       8.517   0.003  23.640  0.00  0.00    -0.304 NA
ATOM      7  H   ARG A   1       7.815   0.032  24.389  0.00  0.00    +0.123 HD
BRANCH   6   8
ATOM      8  C   UNK A   0       9.826   0.270  24.285  0.00  0.00    +0.093 C 
BRANCH   8   9
ATOM      9  C   UNK A   0      10.519   1.566  23.863  0.00  0.00    +0.135 C 
BRANCH   9  10
ATOM     10  C   UNK A   0       9.726   2.298  22.807  0.00  0.00    +0.306 C 
ATOM     11  O   UNK A   0       8.887   3.154  23.028  0.00  0.00    -0.251 OA
BRANCH  10  12
ATOM     12  O   UNK A   0      10.044   1.902  21.553  0.00  0.00    -0.481 OA
ATOM     13  H   UNK A   0      10.953   2.135  21.282  0.00  0.00    +0.295 HD
ENDBRANCH  10  12
ENDBRANCH   9  10
ENDBRANCH   8   9
ENDBRANCH   6   8
ENDBRANCH   1   6
BRANCH   1  14
ATOM     14  CB  ARG A   1       7.594  -2.410  23.692  0.00  0.00    +0.033 C 
BRANCH  14  15
ATOM     15  CG  ARG A   1       7.202  -2.082  25.139  0.00  0.00    +0.039 C 
BRANCH  15  16
ATOM     16  CD  ARG A   1       8.210  -2.584  26.176  0.00  0.00    +0.196 C 
BRANCH  16  21
ATOM     17  NH1 ARG A   1       9.699  -5.792  25.421  0.00  0.00    -0.289 N 
ATOM     18 HH11 ARG A   1       9.948  -5.575  24.469  0.00  0.00    +0.255 HD
ATOM     19 HH12 ARG A   1       9.540  -6.775  25.591  0.00  0.00    +0.255 HD
ATOM     20  CZ  ARG A   1       8.941  -4.913  26.100  0.00  0.00    +0.376 C 
ATOM     21  NE  ARG A   1       9.014  -3.656  25.607  0.00  0.00    -0.276 N 
ATOM     22  HE  ARG A   1       9.161  -3.586  24.610  0.00  0.00    +0.258 HD
ATOM     23  NH2 ARG A   1       8.266  -5.241  27.139  0.00  0.00    -0.130 NA
ATOM     24  HH2 ARG A   1       8.402  -6.234  27.334  0.00  0.00    +0.306 HD
ENDBRANCH  16  21
ENDBRANCH  15  16
ENDBRANCH  14  15
ENDBRANCH   1  14
TORSDOF 11
ENDMDL
MODEL 6
REMARK VINA RESULT:      -4.9      2.511      5.877
REMARK  Name = 
REMARK  11 active torsions:
REMARK  status: ('A' for Active; 'I' for Inactive)
REMARK    1  A    between atoms: NE_4  and  CD_5
REMARK    2  A    between atoms: CD_5  and  CG_6
REMARK    3  A    between atoms: CG_6  and  CB_7
REMARK    4  A    between atoms: CB_7  and  CA_8
REMARK    5  A    between atoms: CA_8  and  N_10
REMARK    6  A    between atoms: CA_8  and  C_16
REMARK    7  A    between atoms: N_10  and  C_11
REMARK    8  A    between atoms: C_11  and  C_12
REMARK    9  A    between atoms: C_12  and  C_13
REMARK   10  A    between atoms: C_13  and  O_14
REMARK   11  A    between atoms: C_16  and  O_17
REMARK                            x       y       z     vdW  Elec       q    Type
REMARK                         _______ _______ _______ _____ _____    ______ ____
ROOT
ATOM      1  CA  ARG A   1       8.198  -1.903  22.523  0.00  0.00    +0.163 C 
ENDROOT
BRANCH   1   2
ATOM      2  C   ARG A   1       9.689  -1.991  22.901  0.00  0.00    +0.322 C 
ATOM      3  OXT ARG A   1      10.631  -1.705  22.181  0.00  0.00    -0.249 OA
BRANCH   2   4
ATOM      4  O   ARG A   1       9.844  -2.466  24.166  0.00  0.00    -0.480 OA
ATOM      5  H   ARG A   1       9.784  -1.700  24.783  0.00  0.00    +0.295 HD
ENDBRANCH   2   4
ENDBRANCH   1   2
BRANCH   1   6
ATOM      6  N   ARG A   1       7.523  -0.919  23.414  0.00  0.00    -0.304 NA
ATOM      7  H   ARG A   1       7.915  -1.037  24.355  0.00  0.00    +0.123 HD
BRANCH   6   8
ATOM      8  C   UNK A   0       7.713   0.509  23.059  0.00  0.00    +0.093 C 
BRANCH   8   9
ATOM      9  C   UNK A   0       8.399   1.370  24.121  0.00  0.00    +0.135 C 
BRANCH   9  10
ATOM     10  C   UNK A   0       8.504   0.641  25.439  0.00  0.00    +0.306 C 
ATOM     11  O   UNK A   0       7.593   0.508  26.240  0.00  0.00    -0.251 OA
BRANCH  10  12
ATOM     12  O   UNK A   0       9.738   0.132  25.654  0.00  0.00    -0.481 OA
ATOM     13  H   UNK A   0      10.308   0.126  24.861  0.00  0.00    +0.295 HD
ENDBRANCH  10  12
ENDBRANCH   9  10
ENDBRANCH   8   9
ENDBRANCH   6   8
ENDBRANCH   1   6
BRANCH   1  14
ATOM     14  CB  ARG A   1       7.547  -3.290  22.388  0.00  0.00    +0.033 C 
BRANCH  14  15
ATOM     15  CG  ARG A   1       6.575  -3.674  23.511  0.00  0.00    +0.039 C 
BRANCH  15  16
ATOM     16  CD  ARG A   1       6.959  -4.963  24.241  0.00  0.00    +0.196 C 
BRANCH  16  21
ATOM     17  NH1 ARG A   1      10.258  -5.458  25.636  0.00  0.00    -0.289 N 
ATOM     18 HH11 ARG A   1      10.740  -5.531  24.753  0.00  0.00    +0.255 HD
ATOM     19 HH12 ARG A   1      10.710  -5.952  26.393  0.00  0.00    +0.255 HD
ATOM     20  CZ  ARG A   1       8.914  -5.422  25.631  0.00  0.00    +0.376 C 
ATOM     21  NE  ARG A   1       8.399  -5.002  24.453  0.00  0.00    -0.276 N 
ATOM     22  HE  ARG A   1       8.936  -5.241  23.631  0.00  0.00    +0.258 HD
ATOM     23  NH2 ARG A   1       8.211  -5.709  26.663  0.00  0.00    -0.130 NA
ATOM     24  HH2 ARG A   1       8.829  -5.959  27.436  0.00  0.00    +0.306 HD
ENDBRANCH  16  21
ENDBRANCH  15  16
ENDBRANCH  14  15
ENDBRANCH   1  14
TORSDOF 11
ENDMDL
MODEL 7
REMARK VINA RESULT:      -4.9      2.400      3.399
REMARK  Name = 
REMARK  11 active torsions:
REMARK  status: ('A' for Active; 'I' for Inactive)
REMARK    1  A    between atoms: NE_4  and  CD_5
REMARK    2  A    between atoms: CD_5  and  CG_6
REMARK    3  A    between atoms: CG_6  and  CB_7
REMARK    4  A    between atoms: CB_7  and  CA_8
REMARK    5  A    between atoms: CA_8  and  N_10
REMARK    6  A    between atoms: CA_8  and  C_16
REMARK    7  A    between atoms: N_10  and  C_11
REMARK    8  A    between atoms: C_11  and  C_12
REMARK    9  A    between atoms: C_12  and  C_13
REMARK   10  A    between atoms: C_13  and  O_14
REMARK   11  A    between atoms: C_16  and  O_17
REMARK                            x       y       z     vdW  Elec       q    Type
REMARK                         _______ _______ _______ _____ _____    ______ ____
ROOT
ATOM      1  CA  ARG A   1       8.239  -3.924  24.939  0.00  0.00    +0.163 C 
ENDROOT
BRANCH   1   2
ATOM      2  C   ARG A   1       8.759  -4.848  26.057  0.00  0.00    +0.322 C 
ATOM      3  OXT ARG A   1       8.254  -5.001  27.156  0.00  0.00    -0.249 OA
BRANCH   2   4
ATOM      4  O   ARG A   1       9.902  -5.479  25.676  0.00  0.00    -0.480 OA
ATOM      5  H   ARG A   1      10.426  -5.668  26.489  0.00  0.00    +0.295 HD
ENDBRANCH   2   4
ENDBRANCH   1   2
BRANCH   1   6
ATOM      6  N   ARG A   1       7.213  -4.650  24.139  0.00  0.00    -0.304 NA
ATOM      7  H   ARG A   1       6.402  -4.030  24.044  0.00  0.00    +0.123 HD
BRANCH   6   8
ATOM      8  C   UNK A   0       7.616  -5.024  22.761  0.00  0.00    +0.093 C 
BRANCH   8   9
ATOM      9  C   UNK A   0       6.508  -5.607  21.882  0.00  0.00    +0.135 C 
BRANCH   9  10
ATOM     10  C   UNK A   0       5.183  -5.624  22.605  0.00  0.00    +0.306 C 
ATOM     11  O   UNK A   0       4.379  -4.706  22.616  0.00  0.00    -0.251 OA
BRANCH  10  12
ATOM     12  O   UNK A   0       4.962  -6.787  23.258  0.00  0.00    -0.481 OA
ATOM     13  H   UNK A   0       5.411  -6.847  24.124  0.00  0.00    +0.295 HD
ENDBRANCH  10  12
ENDBRANCH   9  10
ENDBRANCH   8   9
ENDBRANCH   6   8
ENDBRANCH   1   6
BRANCH   1  14
ATOM     14  CB  ARG A   1       9.381  -3.244  24.165  0.00  0.00    +0.033 C 
BRANCH  14  15
ATOM     15  CG  ARG A   1       9.194  -1.743  23.900  0.00  0.00    +0.039 C 
BRANCH  15  16
ATOM     16  CD  ARG A   1       9.828  -1.269  22.590  0.00  0.00    +0.196 C 
BRANCH  16  21
ATOM     17  NH1 ARG A   1      10.277   2.305  22.280  0.00  0.00    -0.289 N 
ATOM     18 HH11 ARG A   1      10.672   2.446  23.197  0.00  0.00    +0.255 HD
ATOM     19 HH12 ARG A   1       9.797   3.114  21.911  0.00  0.00    +0.255 HD
ATOM     20  CZ  ARG A   1       9.779   1.093  21.976  0.00  0.00    +0.376 C 
ATOM     21  NE  ARG A   1      10.298   0.101  22.734  0.00  0.00    -0.276 N 
ATOM     22  HE  ARG A   1      10.552   0.360  23.678  0.00  0.00    +0.258 HD
ATOM     23  NH2 ARG A   1       8.940   0.910  21.025  0.00  0.00    -0.130 NA
ATOM     24  HH2 ARG A   1       8.732   1.804  20.578  0.00  0.00    +0.306 HD
ENDBRANCH  16  21
ENDBRANCH  15  16
ENDBRANCH  14  15
ENDBRANCH   1  14
TORSDOF 11
ENDMDL
MODEL 8
REMARK VINA RESULT:      -4.8      2.947      4.539
REMARK  Name = 
REMARK  11 active torsions:
REMARK  status: ('A' for Active; 'I' for Inactive)
REMARK    1  A    between atoms: NE_4  and  CD_5
REMARK    2  A    between atoms: CD_5  and  CG_6
REMARK    3  A    between atoms: CG_6  and  CB_7
REMARK    4  A    between atoms: CB_7  and  CA_8
REMARK    5  A    between atoms: CA_8  and  N_10
REMARK    6  A    between atoms: CA_8  and  C_16
REMARK    7  A    between atoms: N_10  and  C_11
REMARK    8  A    between atoms: C_11  and  C_12
REMARK    9  A    between atoms: C_12  and  C_13
REMARK   10  A    between atoms: C_13  and  O_14
REMARK   11  A    between atoms: C_16  and  O_17
REMARK                            x       y       z     vdW  Elec       q    Type
REMARK                         _______ _______ _______ _____ _____    ______ ____
ROOT
ATOM      1  CA  ARG A   1       9.566   2.010  24.108  0.00  0.00    +0.163 C 
ENDROOT
BRANCH   1   2
ATOM      2  C   ARG A   1      10.514   2.629  23.064  0.00  0.00    +0.322 C 
ATOM      3  OXT ARG A   1      11.423   3.410  23.292  0.00  0.00    -0.249 OA
BRANCH   2   4
ATOM      4  O   ARG A   1      10.197   2.212  21.809  0.00  0.00    -0.480 OA
ATOM      5  H   ARG A   1       9.725   2.951  21.358  0.00  0.00    +0.295 HD
ENDBRANCH   2   4
ENDBRANCH   1   2
BRANCH   1   6
ATOM      6  N   ARG A   1       9.204   0.628  23.684  0.00  0.00    -0.304 NA
ATOM      7  H   ARG A   1       9.174   0.620  22.658  0.00  0.00    +0.123 HD
BRANCH   6   8
ATOM      8  C   UNK A   0      10.155  -0.438  24.082  0.00  0.00    +0.093 C 
BRANCH   8   9
ATOM      9  C   UNK A   0      10.295  -1.602  23.099  0.00  0.00    +0.135 C 
BRANCH   9  10
ATOM     10  C   UNK A   0       9.260  -1.524  22.002  0.00  0.00    +0.306 C 
ATOM     11  O   UNK A   0       8.194  -2.116  22.001  0.00  0.00    -0.251 OA
BRANCH  10  12
ATOM     12  O   UNK A   0       9.638  -0.711  20.989  0.00  0.00    -0.481 OA
ATOM     13  H   UNK A   0       9.019  -0.705  20.234  0.00  0.00    +0.295 HD
ENDBRANCH  10  12
ENDBRANCH   9  10
ENDBRANCH   8   9
ENDBRANCH   6   8
ENDBRANCH   1   6
BRANCH   1  14
ATOM     14  CB  ARG A   1       8.411   2.955  24.482  0.00  0.00    +0.033 C 
BRANCH  14  15
ATOM     15  CG  ARG A   1       7.032   2.558  23.938  0.00  0.00    +0.039 C 
BRANCH  15  16
ATOM     16  CD  ARG A   1       6.812   2.956  22.476  0.00  0.00    +0.196 C 
BRANCH  16  21
ATOM     17  NH1 ARG A   1       7.953   6.331  21.855  0.00  0.00    -0.289 N 
ATOM     18 HH11 ARG A   1       8.922   6.161  22.077  0.00  0.00    +0.255 HD
ATOM     19 HH12 ARG A   1       7.658   7.285  22.006  0.00  0.00    +0.255 HD
ATOM     20  CZ  ARG A   1       7.059   5.356  22.102  0.00  0.00    +0.376 C 
ATOM     21  NE  ARG A   1       7.617   4.125  22.154  0.00  0.00    -0.276 N 
ATOM     22  HE  ARG A   1       8.565   4.090  22.502  0.00  0.00    +0.258 HD
ATOM     23  NH2 ARG A   1       5.804   5.584  22.219  0.00  0.00    -0.130 NA
ATOM     24  HH2 ARG A   1       5.627   6.583  22.103  0.00  0.00    +0.306 HD
ENDBRANCH  16  21
ENDBRANCH  15  16
ENDBRANCH  14  15
ENDBRANCH   1  14
TORSDOF 11
ENDMDL
MODEL 9
REMARK VINA RESULT:      -4.8      1.620      1.885
REMARK  Name = 
REMARK  11 active torsions:
REMARK  status: ('A' for Active; 'I' for Inactive)
REMARK    1  A    between atoms: NE_4  and  CD_5
REMARK    2  A    between atoms: CD_5  and  CG_6
REMARK    3  A    between atoms: CG_6  and  CB_7
REMARK    4  A    between atoms: CB_7  and  CA_8
REMARK    5  A    between atoms: CA_8  and  N_10
REMARK    6  A    between atoms: CA_8  and  C_16
REMARK    7  A    between atoms: N_10  and  C_11
REMARK    8  A    between atoms: C_11  and  C_12
REMARK    9  A    between atoms: C_12  and  C_13
REMARK   10  A    between atoms: C_13  and  O_14
REMARK   11  A    between atoms: C_16  and  O_17
REMARK                            x       y       z     vdW  Elec       q    Type
REMARK                         _______ _______ _______ _____ _____    ______ ____
ROOT
ATOM      1  CA  ARG A   1       9.402  -1.826  24.274  0.00  0.00    +0.163 C 
ENDROOT
BRANCH   1   2
ATOM      2  C   ARG A   1       9.065  -1.685  22.778  0.00  0.00    +0.322 C 
ATOM      3  OXT ARG A   1       9.746  -2.082  21.847  0.00  0.00    -0.249 OA
BRANCH   2   4
ATOM      4  O   ARG A   1       7.892  -1.019  22.602  0.00  0.00    -0.480 OA
ATOM      5  H   ARG A   1       7.678  -1.037  21.641  0.00  0.00    +0.295 HD
ENDBRANCH   2   4
ENDBRANCH   1   2
BRANCH   1   6
ATOM      6  N   ARG A   1       8.641  -2.975  24.842  0.00  0.00    -0.304 NA
ATOM      7  H   ARG A   1       9.258  -3.794  24.818  0.00  0.00    +0.123 HD
BRANCH   6   8
ATOM      8  C   UNK A   0       8.203  -2.824  26.252  0.00  0.00    +0.093 C 
BRANCH   8   9
ATOM      9  C   UNK A   0       7.290  -3.930  26.783  0.00  0.00    +0.135 C 
BRANCH   9  10
ATOM     10  C   UNK A   0       7.974  -5.276  26.743  0.00  0.00    +0.306 C 
ATOM     11  O   UNK A   0       8.769  -5.633  25.890  0.00  0.00    -0.251 OA
BRANCH  10  12
ATOM     12  O   UNK A   0       7.611  -6.072  27.774  0.00  0.00    -0.481 OA
ATOM     13  H   UNK A   0       6.650  -6.084  27.947  0.00  0.00    +0.295 HD
ENDBRANCH  10  12
ENDBRANCH   9  10
ENDBRANCH   8   9
ENDBRANCH   6   8
ENDBRANCH   1   6
BRANCH   1  14
ATOM     14  CB  ARG A   1       9.312  -0.486  25.022  0.00  0.00    +0.033 C 
BRANCH  14  15
ATOM     15  CG  ARG A   1      10.531   0.435  24.872  0.00  0.00    +0.039 C 
BRANCH  15  16
ATOM     16  CD  ARG A   1      10.189   1.818  24.310  0.00  0.00    +0.196 C 
BRANCH  16  21
ATOM     17  NH1 ARG A   1       8.249   1.719  21.260  0.00  0.00    -0.289 N 
ATOM     18 HH11 ARG A   1       7.522   1.116  21.613  0.00  0.00    +0.255 HD
ATOM     19 HH12 ARG A   1       8.385   1.657  20.261  0.00  0.00    +0.255 HD
ATOM     20  CZ  ARG A   1       9.336   1.926  22.025  0.00  0.00    +0.376 C 
ATOM     21  NE  ARG A   1       9.110   1.706  23.340  0.00  0.00    -0.276 N 
ATOM     22  HE  ARG A   1       8.427   0.991  23.553  0.00  0.00    +0.258 HD
ATOM     23  NH2 ARG A   1      10.449   2.340  21.545  0.00  0.00    -0.130 NA
ATOM     24  HH2 ARG A   1      10.358   2.468  20.536  0.00  0.00    +0.306 HD
ENDBRANCH  16  21
ENDBRANCH  15  16
ENDBRANCH  14  15
ENDBRANCH   1  14
TORSDOF 11
ENDMDL
