MODEL 1
REMARK VINA RESULT:      -3.7      0.000      0.000
REMARK  Name = 
REMARK  7 active torsions:
REMARK  status: ('A' for Active; 'I' for Inactive)
REMARK    1  A    between atoms: O_1  and  C_2
REMARK    2  A    between atoms: C_2  and  C_3
REMARK    3  A    between atoms: C_3  and  C_4
REMARK    4  A    between atoms: C_4  and  C_5
REMARK    5  A    between atoms: C_5  and  C_6
REMARK    6  A    between atoms: C_6  and  C_7
REMARK    7  A    between atoms: C_7  and  O_8
REMARK                            x       y       z     vdW  Elec       q    Type
REMARK                         _______ _______ _______ _____ _____    ______ ____
ROOT
ATOM      1  C   UNL     1       9.641   4.764  23.992  0.00  0.00    +0.002 C 
ENDROOT
BRANCH   1   2
ATOM      2  C   UNL     1      10.136   3.341  23.742  0.00  0.00    +0.028 C 
BRANCH   2   3
ATOM      3  C   UNL     1       9.252   2.606  22.744  0.00  0.00    +0.156 C 
BRANCH   3   4
ATOM      4  O   UNL     1      10.030   2.272  21.603  0.00  0.00    -0.395 OA
ATOM      5  H   UNL     1       9.581   1.532  21.158  0.00  0.00    +0.209 HD
ENDBRANCH   3   4
ENDBRANCH   2   3
ENDBRANCH   1   2
BRANCH   1   6
ATOM      6  C   UNL     1      10.643   5.801  23.483  0.00  0.00    +0.002 C 
BRANCH   6   7
ATOM      7  C   UNL     1      12.072   5.435  23.880  0.00  0.00    +0.028 C 
BRANCH   7   8
ATOM      8  C   UNL     1      13.003   5.419  22.675  0.00  0.00    +0.156 C 
BRANCH   8   9
ATOM      9  O   UNL     1      14.325   5.109  23.095  0.00  0.00    -0.395 OA
ATOM     10  H   UNL     1      14.622   5.825  23.683  0.00  0.00    +0.209 HD
ENDBRANCH   8   9
ENDBRANCH   7   8
ENDBRANCH   6   7
ENDBRANCH   1   6
TORSDOF 7
ENDMDL
MODEL 2
REMARK VINA RESULT:      -3.7      3.115      5.587
REMARK  Name = 
REMARK  7 active torsions:
REMARK  status: ('A' for Active; 'I' for Inactive)
REMARK    1  A    between atoms: O_1  and  C_2
REMARK    2  A    between atoms: C_2  and  C_3
REMARK    3  A    between atoms: C_3  and  C_4
REMARK    4  A    between atoms: C_4  and  C_5
REMARK    5  A    between atoms: C_5  and  C_6
REMARK    6  A    between atoms: C_6  and  C_7
REMARK    7  A    between atoms: C_7  and  O_8
REMARK                            x       y       z     vdW  Elec       q    Type
REMARK                         _______ _______ _______ _____ _____    ______ ____
ROOT
ATOM      1  C   UNL     1      10.522   0.435  24.469  0.00  0.00    +0.002 C 
ENDROOT
BRANCH   1   2
ATOM      2  C   UNL     1       9.647   1.569  23.937  0.00  0.00    +0.028 C 
BRANCH   2   3
ATOM      3  C   UNL     1      10.420   2.477  22.992  0.00  0.00    +0.156 C 
BRANCH   3   4
ATOM      4  O   UNL     1      10.084   2.138  21.654  0.00  0.00    -0.395 OA
ATOM      5  H   UNL     1       9.470   1.384  21.695  0.00  0.00    +0.209 HD
ENDBRANCH   3   4
ENDBRANCH   2   3
ENDBRANCH   1   2
BRANCH   1   6
ATOM      6  C   UNL     1       9.837  -0.922  24.300  0.00  0.00    +0.002 C 
BRANCH   6   7
ATOM      7  C   UNL     1      10.284  -1.614  23.013  0.00  0.00    +0.028 C 
BRANCH   7   8
ATOM      8  C   UNL     1       9.191  -1.589  21.953  0.00  0.00    +0.156 C 
BRANCH   8   9
ATOM      9  O   UNL     1       9.521  -0.644  20.945  0.00  0.00    -0.395 OA
ATOM     10  H   UNL     1       8.737  -0.085  20.799  0.00  0.00    +0.209 HD
ENDBRANCH   8   9
ENDBRANCH   7   8
ENDBRANCH   6   7
ENDBRANCH   1   6
TORSDOF 7
ENDMDL
MODEL 3
REMARK VINA RESULT:      -3.6      3.338      4.666
REMARK  Name = 
REMARK  7 active torsions:
REMARK  status: ('A' for Active; 'I' for Inactive)
REMARK    1  A    between atoms: O_1  and  C_2
REMARK    2  A    between atoms: C_2  and  C_3
REMARK    3  A    between atoms: C_3  and  C_4
REMARK    4  A    between atoms: C_4  and  C_5
REMARK    5  A    between atoms: C_5  and  C_6
REMARK    6  A    between atoms: C_6  and  C_7
REMARK    7  A    between atoms: C_7  and  O_8
REMARK                            x       y       z     vdW  Elec       q    Type
REMARK                         _______ _______ _______ _____ _____    ______ ____
ROOT
ATOM      1  C   UNL     1       9.792  -0.413  24.343  0.00  0.00    +0.002 C 
ENDROOT
BRANCH   1   2
ATOM      2  C   UNL     1      10.059  -1.586  23.402  0.00  0.00    +0.028 C 
BRANCH   2   3
ATOM      3  C   UNL     1       9.129  -1.562  22.197  0.00  0.00    +0.156 C 
BRANCH   3   4
ATOM      4  O   UNL     1       9.794  -0.920  21.118  0.00  0.00    -0.395 OA
ATOM      5  H   UNL     1       9.183  -0.926  20.361  0.00  0.00    +0.209 HD
ENDBRANCH   3   4
ENDBRANCH   2   3
ENDBRANCH   1   2
BRANCH   1   6
ATOM      6  C   UNL     1      10.817   0.705  24.144  0.00  0.00    +0.002 C 
BRANCH   6   7
ATOM      7  C   UNL     1      10.137   2.066  24.013  0.00  0.00    +0.028 C 
BRANCH   7   8
ATOM      8  C   UNL     1       9.308   2.159  22.738  0.00  0.00    +0.156 C 
BRANCH   8   9
ATOM      9  O   UNL     1      10.160   2.069  21.604  0.00  0.00    -0.395 OA
ATOM     10  H   UNL     1       9.797   1.380  21.019  0.00  0.00    +0.209 HD
ENDBRANCH   8   9
ENDBRANCH   7   8
ENDBRANCH   6   7
ENDBRANCH   1   6
TORSDOF 7
ENDMDL
MODEL 4
REMARK VINA RESULT:      -3.5      3.876      4.659
REMARK  Name = 
REMARK  7 active torsions:
REMARK  status: ('A' for Active; 'I' for Inactive)
REMARK    1  A    between atoms: O_1  and  C_2
REMARK    2  A    between atoms: C_2  and  C_3
REMARK    3  A    between atoms: C_3  and  C_4
REMARK    4  A    between atoms: C_4  and  C_5
REMARK    5  A    between atoms: C_5  and  C_6
REMARK    6  A    between atoms: C_6  and  C_7
REMARK    7  A    between atoms: C_7  and  O_8
REMARK                            x       y       z     vdW  Elec       q    Type
REMARK                         _______ _______ _______ _____ _____    ______ ____
ROOT
ATOM      1  C   UNL     1       8.908   1.149  21.974  0.00  0.00    +0.002 C 
ENDROOT
BRANCH   1   2
ATOM      2  C   UNL     1       9.238  -0.087  21.141  0.00  0.00    +0.028 C 
BRANCH   2   3
ATOM      3  C   UNL     1       9.309  -1.341  22.000  0.00  0.00    +0.156 C 
BRANCH   3   4
ATOM      4  O   UNL     1      10.655  -1.795  22.037  0.00  0.00    -0.395 OA
ATOM      5  H   UNL     1      11.213  -1.063  21.723  0.00  0.00    +0.209 HD
ENDBRANCH   3   4
ENDBRANCH   2   3
ENDBRANCH   1   2
BRANCH   1   6
ATOM      6  C   UNL     1      10.168   1.951  22.304  0.00  0.00    +0.002 C 
BRANCH   6   7
ATOM      7  C   UNL     1      10.357   2.093  23.813  0.00  0.00    +0.028 C 
BRANCH   7   8
ATOM      8  C   UNL     1      10.995   0.849  24.419  0.00  0.00    +0.156 C 
BRANCH   8   9
ATOM      9  O   UNL     1      10.221   0.403  25.524  0.00  0.00    -0.395 OA
ATOM     10  H   UNL     1      10.303  -0.566  25.567  0.00  0.00    +0.209 HD
ENDBRANCH   8   9
ENDBRANCH   7   8
ENDBRANCH   6   7
ENDBRANCH   1   6
TORSDOF 7
ENDMDL
MODEL 5
REMARK VINA RESULT:      -3.4      1.981      4.258
REMARK  Name = 
REMARK  7 active torsions:
REMARK  status: ('A' for Active; 'I' for Inactive)
REMARK    1  A    between atoms: O_1  and  C_2
REMARK    2  A    between atoms: C_2  and  C_3
REMARK    3  A    between atoms: C_3  and  C_4
REMARK    4  A    between atoms: C_4  and  C_5
REMARK    5  A    between atoms: C_5  and  C_6
REMARK    6  A    between atoms: C_6  and  C_7
REMARK    7  A    between atoms: C_7  and  O_8
REMARK                            x       y       z     vdW  Elec       q    Type
REMARK                         _______ _______ _______ _____ _____    ______ ____
ROOT
ATOM      1  C   UNL     1      10.994   6.056  23.916  0.00  0.00    +0.002 C 
ENDROOT
BRANCH   1   2
ATOM      2  C   UNL     1      11.852   4.907  23.391  0.00  0.00    +0.028 C 
BRANCH   2   3
ATOM      3  C   UNL     1      13.001   5.413  22.531  0.00  0.00    +0.156 C 
BRANCH   3   4
ATOM      4  O   UNL     1      14.229   5.074  23.161  0.00  0.00    -0.395 OA
ATOM      5  H   UNL     1      14.828   5.831  23.046  0.00  0.00    +0.209 HD
ENDBRANCH   3   4
ENDBRANCH   2   3
ENDBRANCH   1   2
BRANCH   1   6
ATOM      6  C   UNL     1       9.687   5.543  24.522  0.00  0.00    +0.002 C 
BRANCH   6   7
ATOM      7  C   UNL     1       8.811   4.871  23.465  0.00  0.00    +0.028 C 
BRANCH   7   8
ATOM      8  C   UNL     1       7.692   5.791  22.994  0.00  0.00    +0.156 C 
BRANCH   8   9
ATOM      9  O   UNL     1       7.900   6.141  21.633  0.00  0.00    -0.395 OA
ATOM     10  H   UNL     1       7.026   6.191  21.207  0.00  0.00    +0.209 HD
ENDBRANCH   8   9
ENDBRANCH   7   8
ENDBRANCH   6   7
ENDBRANCH   1   6
TORSDOF 7
ENDMDL
MODEL 6
REMARK VINA RESULT:      -3.3      4.368      6.775
REMARK  Name = 
REMARK  7 active torsions:
REMARK  status: ('A' for Active; 'I' for Inactive)
REMARK    1  A    between atoms: O_1  and  C_2
REMARK    2  A    between atoms: C_2  and  C_3
REMARK    3  A    between atoms: C_3  and  C_4
REMARK    4  A    between atoms: C_4  and  C_5
REMARK    5  A    between atoms: C_5  and  C_6
REMARK    6  A    between atoms: C_6  and  C_7
REMARK    7  A    between atoms: C_7  and  O_8
REMARK                            x       y       z     vdW  Elec       q    Type
REMARK                         _______ _______ _______ _____ _____    ______ ____
ROOT
ATOM      1  C   UNL     1       9.362  -0.890  21.672  0.00  0.00    +0.002 C 
ENDROOT
BRANCH   1   2
ATOM      2  C   UNL     1       8.777   0.317  22.403  0.00  0.00    +0.028 C 
BRANCH   2   3
ATOM      3  C   UNL     1       8.725   1.545  21.506  0.00  0.00    +0.156 C 
BRANCH   3   4
ATOM      4  O   UNL     1       9.992   2.187  21.535  0.00  0.00    -0.395 OA
ATOM      5  H   UNL     1       9.857   3.099  21.225  0.00  0.00    +0.209 HD
ENDBRANCH   3   4
ENDBRANCH   2   3
ENDBRANCH   1   2
BRANCH   1   6
ATOM      6  C   UNL     1      10.366  -1.640  22.550  0.00  0.00    +0.002 C 
BRANCH   6   7
ATOM      7  C   UNL     1       9.810  -1.875  23.953  0.00  0.00    +0.028 C 
BRANCH   7   8
ATOM      8  C   UNL     1       9.105  -3.221  24.059  0.00  0.00    +0.156 C 
BRANCH   8   9
ATOM      9  O   UNL     1      10.003  -4.195  24.572  0.00  0.00    -0.395 OA
ATOM     10  H   UNL     1      10.781  -3.722  24.918  0.00  0.00    +0.209 HD
ENDBRANCH   8   9
ENDBRANCH   7   8
ENDBRANCH   6   7
ENDBRANCH   1   6
TORSDOF 7
ENDMDL
MODEL 7
REMARK VINA RESULT:      -3.3      6.960      9.290
REMARK  Name = 
REMARK  7 active torsions:
REMARK  status: ('A' for Active; 'I' for Inactive)
REMARK    1  A    between atoms: O_1  and  C_2
REMARK    2  A    between atoms: C_2  and  C_3
REMARK    3  A    between atoms: C_3  and  C_4
REMARK    4  A    between atoms: C_4  and  C_5
REMARK    5  A    between atoms: C_5  and  C_6
REMARK    6  A    between atoms: C_6  and  C_7
REMARK    7  A    between atoms: C_7  and  O_8
REMARK                            x       y       z     vdW  Elec       q    Type
REMARK                         _______ _______ _______ _____ _____    ______ ____
ROOT
ATOM      1  C   UNL     1       8.451  -3.043  23.759  0.00  0.00    +0.002 C 
ENDROOT
BRANCH   1   2
ATOM      2  C   UNL     1       9.909  -2.590  23.810  0.00  0.00    +0.028 C 
BRANCH   2   3
ATOM      3  C   UNL     1      10.132  -1.323  22.996  0.00  0.00    +0.156 C 
BRANCH   3   4
ATOM      4  O   UNL     1      10.289  -1.678  21.630  0.00  0.00    -0.395 OA
ATOM      5  H   UNL     1       9.400  -1.852  21.276  0.00  0.00    +0.209 HD
ENDBRANCH   3   4
ENDBRANCH   2   3
ENDBRANCH   1   2
BRANCH   1   6
ATOM      6  C   UNL     1       8.318  -4.529  24.093  0.00  0.00    +0.002 C 
BRANCH   6   7
ATOM      7  C   UNL     1       7.522  -4.741  25.379  0.00  0.00    +0.028 C 
BRANCH   7   8
ATOM      8  C   UNL     1       8.435  -4.856  26.593  0.00  0.00    +0.156 C 
BRANCH   8   9
ATOM      9  O   UNL     1       7.922  -5.833  27.488  0.00  0.00    -0.395 OA
ATOM     10  H   UNL     1       6.952  -5.820  27.411  0.00  0.00    +0.209 HD
ENDBRANCH   8   9
ENDBRANCH   7   8
ENDBRANCH   6   7
ENDBRANCH   1   6
TORSDOF 7
ENDMDL
MODEL 8
REMARK VINA RESULT:      -3.2      2.832      3.756
REMARK  Name = 
REMARK  7 active torsions:
REMARK  status: ('A' for Active; 'I' for Inactive)
REMARK    1  A    between atoms: O_1  and  C_2
REMARK    2  A    between atoms: C_2  and  C_3
REMARK    3  A    between atoms: C_3  and  C_4
REMARK    4  A    between atoms: C_4  and  C_5
REMARK    5  A    between atoms: C_5  and  C_6
REMARK    6  A    between atoms: C_6  and  C_7
REMARK    7  A    between atoms: C_7  and  O_8
REMARK                            x       y       z     vdW  Elec       q    Type
REMARK                         _______ _______ _______ _____ _____    ______ ____
ROOT
ATOM      1  C   UNL     1      10.064   1.467  24.371  0.00  0.00    +0.002 C 
ENDROOT
BRANCH   1   2
ATOM      2  C   UNL     1      10.301   0.531  23.188  0.00  0.00    +0.028 C 
BRANCH   2   3
ATOM      3  C   UNL     1       9.663   1.065  21.913  0.00  0.00    +0.156 C 
BRANCH   3   4
ATOM      4  O   UNL     1      10.319   2.269  21.542  0.00  0.00    -0.395 OA
ATOM      5  H   UNL     1       9.661   2.826  21.092  0.00  0.00    +0.209 HD
ENDBRANCH   3   4
ENDBRANCH   2   3
ENDBRANCH   1   2
BRANCH   1   6
ATOM      6  C   UNL     1       8.591   1.868  24.477  0.00  0.00    +0.002 C 
BRANCH   6   7
ATOM      7  C   UNL     1       8.440   3.295  25.000  0.00  0.00    +0.028 C 
BRANCH   7   8
ATOM      8  C   UNL     1       9.224   4.290  24.153  0.00  0.00    +0.156 C 
BRANCH   8   9
ATOM      9  O   UNL     1       8.662   4.357  22.849  0.00  0.00    -0.395 OA
ATOM     10  H   UNL     1       9.213   3.807  22.264  0.00  0.00    +0.209 HD
ENDBRANCH   8   9
ENDBRANCH   7   8
ENDBRANCH   6   7
ENDBRANCH   1   6
TORSDOF 7
ENDMDL
MODEL 9
REMARK VINA RESULT:      -3.2      4.291      5.991
REMARK  Name = 
REMARK  7 active torsions:
REMARK  status: ('A' for Active; 'I' for Inactive)
REMARK    1  A    between atoms: O_1  and  C_2
REMARK    2  A    between atoms: C_2  and  C_3
REMARK    3  A    between atoms: C_3  and  C_4
REMARK    4  A    between atoms: C_4  and  C_5
REMARK    5  A    between atoms: C_5  and  C_6
REMARK    6  A    between atoms: C_6  and  C_7
REMARK    7  A    between atoms: C_7  and  O_8
REMARK                            x       y       z     vdW  Elec       q    Type
REMARK                         _______ _______ _______ _____ _____    ______ ____
ROOT
ATOM      1  C   UNL     1      10.215  -1.473  22.702  0.00  0.00    +0.002 C 
ENDROOT
BRANCH   1   2
ATOM      2  C   UNL     1       9.412  -1.438  24.000  0.00  0.00    +0.028 C 
BRANCH   2   3
ATOM      3  C   UNL     1       8.920  -2.823  24.394  0.00  0.00    +0.156 C 
BRANCH   3   4
ATOM      4  O   UNL     1      10.008  -3.734  24.321  0.00  0.00    -0.395 OA
ATOM      5  H   UNL     1      10.709  -3.390  24.901  0.00  0.00    +0.209 HD
ENDBRANCH   3   4
ENDBRANCH   2   3
ENDBRANCH   1   2
BRANCH   1   6
ATOM      6  C   UNL     1       9.750  -0.387  21.730  0.00  0.00    +0.002 C 
BRANCH   6   7
ATOM      7  C   UNL     1       8.593   0.421  22.313  0.00  0.00    +0.028 C 
BRANCH   7   8
ATOM      8  C   UNL     1       8.491   1.800  21.673  0.00  0.00    +0.156 C 
BRANCH   8   9
ATOM      9  O   UNL     1       9.792   2.343  21.495  0.00  0.00    -0.395 OA
ATOM     10  H   UNL     1       9.838   3.168  22.009  0.00  0.00    +0.209 HD
ENDBRANCH   8   9
ENDBRANCH   7   8
ENDBRANCH   6   7
ENDBRANCH   1   6
TORSDOF 7
ENDMDL
