MODEL 1
REMARK VINA RESULT:      -8.1      0.000      0.000
REMARK  Name = 
REMARK  8 active torsions:
REMARK  status: ('A' for Active; 'I' for Inactive)
REMARK    1  A    between atoms: C_2  and  O_24
REMARK    2  A    between atoms: C_15  and  O_16
REMARK    3  A    between atoms: C_22  and  C_23
REMARK    4  A    between atoms: O_24  and  C_25
REMARK    5  A    between atoms: C_25  and  C_27
REMARK    6  A    between atoms: C_27  and  C_28
REMARK    7  A    between atoms: C_28  and  C_29
REMARK    8  A    between atoms: C_29  and  O_30
REMARK                            x       y       z     vdW  Elec       q    Type
REMARK                         _______ _______ _______ _____ _____    ______ ____
ROOT
ATOM      1  C   UNL     1      10.279   1.132  23.483  0.00  0.00    +0.183 C 
ATOM      2  C   UNL     1       9.372  -0.082  23.035  0.00  0.00    +0.008 C 
ATOM      3  C   UNL     1       7.959   0.472  22.692  0.00  0.00    +0.015 C 
ATOM      4  C   UNL     1       9.542  -1.038  24.243  0.00  0.00    +0.002 C 
ATOM      5  C   UNL     1       8.428  -2.042  24.342  0.00  0.00    +0.000 C 
ATOM      6  C   UNL     1       8.557  -3.018  23.134  0.00  0.00    +0.023 C 
ATOM      7  C   UNL     1       8.765  -2.253  21.776  0.00  0.00    +0.009 C 
ATOM      8  C   UNL     1       7.452  -4.076  23.243  0.00  0.00    -0.041 A 
ATOM      9  C   UNL     1       7.038  -4.845  22.143  0.00  0.00    +0.008 A 
ATOM     10  C   UNL     1       6.071  -5.855  22.293  0.00  0.00    +0.046 A 
ATOM     11  C   UNL     1       5.511  -6.099  23.542  0.00  0.00    +0.117 A 
ATOM     12  C   UNL     1       5.902  -5.364  24.645  0.00  0.00    +0.049 A 
ATOM     13  C   UNL     1       6.888  -4.381  24.515  0.00  0.00    -0.040 A 
ATOM     14  C   UNL     1       7.265  -3.663  25.786  0.00  0.00    +0.036 C 
ATOM     15  C   UNL     1       8.518  -2.839  25.640  0.00  0.00    +0.009 C 
ATOM     16  C   UNL     1       9.926  -0.183  25.431  0.00  0.00    +0.008 C 
ATOM     17  C   UNL     1       9.745  -1.011  21.847  0.00  0.00    +0.011 C 
ATOM     18  C   UNL     1      10.997   0.680  24.763  0.00  0.00    +0.045 C 
ENDROOT
BRANCH  11  19
ATOM     19  O   UNL     1       4.564  -7.061  23.744  0.00  0.00    -0.507 OA
ATOM     20  H   UNL     1       4.525  -7.633  22.963  0.00  0.00    +0.292 HD
ENDBRANCH  11  19
BRANCH   1  21
ATOM     21  O   UNL     1       9.380   2.156  24.014  0.00  0.00    -0.461 OA
BRANCH  21  22
ATOM     22  C   UNL     1       9.662   3.462  24.022  0.00  0.00    +0.308 C 
ATOM     23  O   UNL     1       9.100   4.330  24.675  0.00  0.00    -0.251 OA
BRANCH  22  24
ATOM     24  C   UNL     1      10.762   3.766  23.043  0.00  0.00    +0.132 C 
BRANCH  24  25
ATOM     25  C   UNL     1      11.747   4.768  23.612  0.00  0.00    +0.131 C 
BRANCH  25  26
ATOM     26  C   UNL     1      12.978   5.119  22.804  0.00  0.00    +0.305 C 
ATOM     27  O   UNL     1      12.877   5.505  21.644  0.00  0.00    -0.251 OA
BRANCH  26  28
ATOM     28  O   UNL     1      14.183   4.997  23.382  0.00  0.00    -0.481 OA
ATOM     29  H   UNL     1      14.443   5.621  24.095  0.00  0.00    +0.295 HD
ENDBRANCH  26  28
ENDBRANCH  25  26
ENDBRANCH  24  25
ENDBRANCH  22  24
ENDBRANCH  21  22
ENDBRANCH   1  21
TORSDOF 7
ENDMDL
MODEL 2
REMARK VINA RESULT:      -7.8      2.439      3.515
REMARK  Name = 
REMARK  8 active torsions:
REMARK  status: ('A' for Active; 'I' for Inactive)
REMARK    1  A    between atoms: C_2  and  O_24
REMARK    2  A    between atoms: C_15  and  O_16
REMARK    3  A    between atoms: C_22  and  C_23
REMARK    4  A    between atoms: O_24  and  C_25
REMARK    5  A    between atoms: C_25  and  C_27
REMARK    6  A    between atoms: C_27  and  C_28
REMARK    7  A    between atoms: C_28  and  C_29
REMARK    8  A    between atoms: C_29  and  O_30
REMARK                            x       y       z     vdW  Elec       q    Type
REMARK                         _______ _______ _______ _____ _____    ______ ____
ROOT
ATOM      1  C   UNL     1       8.626  -1.256  21.921  0.00  0.00    +0.183 C 
ATOM      2  C   UNL     1       7.607  -2.209  22.662  0.00  0.00    +0.008 C 
ATOM      3  C   UNL     1       6.510  -1.323  23.321  0.00  0.00    +0.015 C 
ATOM      4  C   UNL     1       8.568  -3.026  23.562  0.00  0.00    +0.002 C 
ATOM      5  C   UNL     1       7.864  -3.657  24.730  0.00  0.00    +0.000 C 
ATOM      6  C   UNL     1       6.917  -4.765  24.176  0.00  0.00    +0.023 C 
ATOM      7  C   UNL     1       6.057  -4.253  22.963  0.00  0.00    +0.009 C 
ATOM      8  C   UNL     1       6.221  -5.448  25.359  0.00  0.00    -0.041 A 
ATOM      9  C   UNL     1       5.040  -6.192  25.207  0.00  0.00    +0.008 A 
ATOM     10  C   UNL     1       4.466  -6.864  26.301  0.00  0.00    +0.046 A 
ATOM     11  C   UNL     1       5.069  -6.792  27.553  0.00  0.00    +0.117 A 
ATOM     12  C   UNL     1       6.235  -6.074  27.733  0.00  0.00    +0.049 A 
ATOM     13  C   UNL     1       6.834  -5.432  26.645  0.00  0.00    -0.040 A 
ATOM     14  C   UNL     1       8.120  -4.705  26.945  0.00  0.00    +0.036 C 
ATOM     15  C   UNL     1       8.859  -4.290  25.697  0.00  0.00    +0.009 C 
ATOM     16  C   UNL     1       9.807  -2.182  23.765  0.00  0.00    +0.008 C 
ATOM     17  C   UNL     1       6.832  -3.338  21.927  0.00  0.00    +0.011 C 
ATOM     18  C   UNL     1      10.029  -1.740  22.318  0.00  0.00    +0.045 C 
ENDROOT
BRANCH  11  19
ATOM     19  O   UNL     1       4.552  -7.419  28.650  0.00  0.00    -0.507 OA
ATOM     20  H   UNL     1       3.667  -7.750  28.436  0.00  0.00    +0.292 HD
ENDBRANCH  11  19
BRANCH   1  21
ATOM     21  O   UNL     1       8.572   0.034  22.608  0.00  0.00    -0.461 OA
BRANCH  21  22
ATOM     22  C   UNL     1       8.645   1.212  21.982  0.00  0.00    +0.308 C 
ATOM     23  O   UNL     1       7.742   1.784  21.386  0.00  0.00    -0.251 OA
BRANCH  22  24
ATOM     24  C   UNL     1      10.047   1.752  22.044  0.00  0.00    +0.132 C 
BRANCH  24  25
ATOM     25  C   UNL     1      10.232   2.675  23.233  0.00  0.00    +0.131 C 
BRANCH  25  26
ATOM     26  C   UNL     1       9.490   2.369  24.516  0.00  0.00    +0.305 C 
ATOM     27  O   UNL     1       8.660   3.153  24.962  0.00  0.00    -0.251 OA
BRANCH  26  28
ATOM     28  O   UNL     1       9.761   1.221  25.156  0.00  0.00    -0.481 OA
ATOM     29  H   UNL     1       9.996   0.422  24.637  0.00  0.00    +0.295 HD
ENDBRANCH  26  28
ENDBRANCH  25  26
ENDBRANCH  24  25
ENDBRANCH  22  24
ENDBRANCH  21  22
ENDBRANCH   1  21
TORSDOF 7
ENDMDL
MODEL 3
REMARK VINA RESULT:      -7.7      1.496      2.292
REMARK  Name = 
REMARK  8 active torsions:
REMARK  status: ('A' for Active; 'I' for Inactive)
REMARK    1  A    between atoms: C_2  and  O_24
REMARK    2  A    between atoms: C_15  and  O_16
REMARK    3  A    between atoms: C_22  and  C_23
REMARK    4  A    between atoms: O_24  and  C_25
REMARK    5  A    between atoms: C_25  and  C_27
REMARK    6  A    between atoms: C_27  and  C_28
REMARK    7  A    between atoms: C_28  and  C_29
REMARK    8  A    between atoms: C_29  and  O_30
REMARK                            x       y       z     vdW  Elec       q    Type
REMARK                         _______ _______ _______ _____ _____    ______ ____
ROOT
ATOM      1  C   UNL     1      10.030   1.170  23.475  0.00  0.00    +0.183 C 
ATOM      2  C   UNL     1       9.149  -0.064  23.032  0.00  0.00    +0.008 C 
ATOM      3  C   UNL     1       7.715   0.454  22.722  0.00  0.00    +0.015 C 
ATOM      4  C   UNL     1       9.368  -1.027  24.227  0.00  0.00    +0.002 C 
ATOM      5  C   UNL     1       8.283  -2.062  24.338  0.00  0.00    +0.000 C 
ATOM      6  C   UNL     1       8.415  -3.023  23.118  0.00  0.00    +0.023 C 
ATOM      7  C   UNL     1       8.576  -2.239  21.764  0.00  0.00    +0.009 C 
ATOM      8  C   UNL     1       7.342  -4.111  23.236  0.00  0.00    -0.041 A 
ATOM      9  C   UNL     1       6.927  -4.881  22.137  0.00  0.00    +0.008 A 
ATOM     10  C   UNL     1       5.991  -5.918  22.295  0.00  0.00    +0.046 A 
ATOM     11  C   UNL     1       5.462  -6.189  23.553  0.00  0.00    +0.117 A 
ATOM     12  C   UNL     1       5.854  -5.455  24.655  0.00  0.00    +0.049 A 
ATOM     13  C   UNL     1       6.811  -4.444  24.516  0.00  0.00    -0.040 A 
ATOM     14  C   UNL     1       7.192  -3.728  25.787  0.00  0.00    +0.036 C 
ATOM     15  C   UNL     1       8.420  -2.868  25.625  0.00  0.00    +0.009 C 
ATOM     16  C   UNL     1       9.751  -0.173  25.417  0.00  0.00    +0.008 C 
ATOM     17  C   UNL     1       9.524  -0.972  21.828  0.00  0.00    +0.011 C 
ATOM     18  C   UNL     1      10.786   0.724  24.737  0.00  0.00    +0.045 C 
ENDROOT
BRANCH  11  19
ATOM     19  O   UNL     1       4.546  -7.178  23.763  0.00  0.00    -0.507 OA
ATOM     20  H   UNL     1       4.646  -7.853  23.074  0.00  0.00    +0.292 HD
ENDBRANCH  11  19
BRANCH   1  21
ATOM     21  O   UNL     1       9.115   2.163  24.034  0.00  0.00    -0.461 OA
BRANCH  21  22
ATOM     22  C   UNL     1       9.265   3.482  23.881  0.00  0.00    +0.308 C 
ATOM     23  O   UNL     1      10.312   4.082  23.675  0.00  0.00    -0.251 OA
BRANCH  22  24
ATOM     24  C   UNL     1       7.948   4.184  24.062  0.00  0.00    +0.132 C 
BRANCH  24  25
ATOM     25  C   UNL     1       7.406   4.692  22.740  0.00  0.00    +0.131 C 
BRANCH  25  26
ATOM     26  C   UNL     1       7.689   6.123  22.338  0.00  0.00    +0.305 C 
ATOM     27  O   UNL     1       8.415   6.834  23.023  0.00  0.00    -0.251 OA
BRANCH  26  28
ATOM     28  O   UNL     1       7.126   6.598  21.216  0.00  0.00    -0.481 OA
ATOM     29  H   UNL     1       7.389   7.482  20.879  0.00  0.00    +0.295 HD
ENDBRANCH  26  28
ENDBRANCH  25  26
ENDBRANCH  24  25
ENDBRANCH  22  24
ENDBRANCH  21  22
ENDBRANCH   1  21
TORSDOF 7
ENDMDL
MODEL 4
REMARK VINA RESULT:      -7.5      2.540      8.277
REMARK  Name = 
REMARK  8 active torsions:
REMARK  status: ('A' for Active; 'I' for Inactive)
REMARK    1  A    between atoms: C_2  and  O_24
REMARK    2  A    between atoms: C_15  and  O_16
REMARK    3  A    between atoms: C_22  and  C_23
REMARK    4  A    between atoms: O_24  and  C_25
REMARK    5  A    between atoms: C_25  and  C_27
REMARK    6  A    between atoms: C_27  and  C_28
REMARK    7  A    between atoms: C_28  and  C_29
REMARK    8  A    between atoms: C_29  and  O_30
REMARK                            x       y       z     vdW  Elec       q    Type
REMARK                         _______ _______ _______ _____ _____    ______ ____
ROOT
ATOM      1  C   UNL     1       7.948  -2.965  22.274  0.00  0.00    +0.183 C 
ATOM      2  C   UNL     1       8.548  -1.552  22.643  0.00  0.00    +0.008 C 
ATOM      3  C   UNL     1       9.606  -1.755  23.766  0.00  0.00    +0.015 C 
ATOM      4  C   UNL     1       7.255  -0.754  22.951  0.00  0.00    +0.002 C 
ATOM      5  C   UNL     1       7.517   0.458  23.801  0.00  0.00    +0.000 C 
ATOM      6  C   UNL     1       8.330   1.475  22.945  0.00  0.00    +0.023 C 
ATOM      7  C   UNL     1       9.541   0.792  22.210  0.00  0.00    +0.009 C 
ATOM      8  C   UNL     1       8.570   2.736  23.783  0.00  0.00    -0.041 A 
ATOM      9  C   UNL     1       9.581   3.661  23.476  0.00  0.00    +0.008 A 
ATOM     10  C   UNL     1       9.729   4.843  24.224  0.00  0.00    +0.046 A 
ATOM     11  C   UNL     1       8.868   5.103  25.285  0.00  0.00    +0.117 A 
ATOM     12  C   UNL     1       7.859   4.217  25.609  0.00  0.00    +0.049 A 
ATOM     13  C   UNL     1       7.681   3.056  24.849  0.00  0.00    -0.040 A 
ATOM     14  C   UNL     1       6.530   2.175  25.266  0.00  0.00    +0.036 C 
ATOM     15  C   UNL     1       6.212   1.111  24.246  0.00  0.00    +0.009 C 
ATOM     16  C   UNL     1       6.197  -1.763  23.342  0.00  0.00    +0.008 C 
ATOM     17  C   UNL     1       9.237  -0.635  21.595  0.00  0.00    +0.011 C 
ATOM     18  C   UNL     1       6.423  -2.783  22.225  0.00  0.00    +0.045 C 
ENDROOT
BRANCH  11  19
ATOM     19  O   UNL     1       8.970   6.230  26.049  0.00  0.00    -0.507 OA
ATOM     20  H   UNL     1       8.118   6.692  26.044  0.00  0.00    +0.292 HD
ENDBRANCH  11  19
BRANCH   1  21
ATOM     21  O   UNL     1       8.090  -3.807  23.461  0.00  0.00    -0.461 OA
BRANCH  21  22
ATOM     22  C   UNL     1       7.725  -5.091  23.510  0.00  0.00    +0.308 C 
ATOM     23  O   UNL     1       8.102  -5.990  22.771  0.00  0.00    -0.251 OA
BRANCH  22  24
ATOM     24  C   UNL     1       6.701  -5.304  24.590  0.00  0.00    +0.132 C 
BRANCH  24  25
ATOM     25  C   UNL     1       7.015  -4.476  25.821  0.00  0.00    +0.131 C 
BRANCH  25  26
ATOM     26  C   UNL     1       8.100  -4.954  26.762  0.00  0.00    +0.305 C 
ATOM     27  O   UNL     1       9.209  -4.432  26.757  0.00  0.00    -0.251 OA
BRANCH  26  28
ATOM     28  O   UNL     1       7.822  -5.963  27.603  0.00  0.00    -0.481 OA
ATOM     29  H   UNL     1       8.191  -6.855  27.425  0.00  0.00    +0.295 HD
ENDBRANCH  26  28
ENDBRANCH  25  26
ENDBRANCH  24  25
ENDBRANCH  22  24
ENDBRANCH  21  22
ENDBRANCH   1  21
TORSDOF 7
ENDMDL
MODEL 5
REMARK VINA RESULT:      -7.4      2.487      3.752
REMARK  Name = 
REMARK  8 active torsions:
REMARK  status: ('A' for Active; 'I' for Inactive)
REMARK    1  A    between atoms: C_2  and  O_24
REMARK    2  A    between atoms: C_15  and  O_16
REMARK    3  A    between atoms: C_22  and  C_23
REMARK    4  A    between atoms: O_24  and  C_25
REMARK    5  A    between atoms: C_25  and  C_27
REMARK    6  A    between atoms: C_27  and  C_28
REMARK    7  A    between atoms: C_28  and  C_29
REMARK    8  A    between atoms: C_29  and  O_30
REMARK                            x       y       z     vdW  Elec       q    Type
REMARK                         _______ _______ _______ _____ _____    ______ ____
ROOT
ATOM      1  C   UNL     1       7.123   3.696  23.311  0.00  0.00    +0.183 C 
ATOM      2  C   UNL     1       7.344   2.368  24.139  0.00  0.00    +0.008 C 
ATOM      3  C   UNL     1       8.474   2.629  25.176  0.00  0.00    +0.015 C 
ATOM      4  C   UNL     1       7.580   1.346  22.997  0.00  0.00    +0.002 C 
ATOM      5  C   UNL     1       8.302   0.115  23.468  0.00  0.00    +0.000 C 
ATOM      6  C   UNL     1       7.342  -0.669  24.413  0.00  0.00    +0.023 C 
ATOM      7  C   UNL     1       6.671   0.269  25.483  0.00  0.00    +0.009 C 
ATOM      8  C   UNL     1       8.048  -1.950  24.871  0.00  0.00    -0.041 A 
ATOM      9  C   UNL     1       7.642  -2.666  26.009  0.00  0.00    +0.008 A 
ATOM     10  C   UNL     1       8.267  -3.876  26.361  0.00  0.00    +0.046 A 
ATOM     11  C   UNL     1       9.303  -4.374  25.578  0.00  0.00    +0.117 A 
ATOM     12  C   UNL     1       9.721  -3.698  24.448  0.00  0.00    +0.049 A 
ATOM     13  C   UNL     1       9.083  -2.513  24.069  0.00  0.00    -0.040 A 
ATOM     14  C   UNL     1       9.594  -1.873  22.803  0.00  0.00    +0.036 C 
ATOM     15  C   UNL     1       8.688  -0.780  22.295  0.00  0.00    +0.009 C 
ATOM     16  C   UNL     1       8.077   2.128  21.801  0.00  0.00    +0.008 C 
ATOM     17  C   UNL     1       6.204   1.682  24.940  0.00  0.00    +0.011 C 
ATOM     18  C   UNL     1       7.066   3.276  21.835  0.00  0.00    +0.045 C 
ENDROOT
BRANCH  11  19
ATOM     19  O   UNL     1       9.949  -5.539  25.876  0.00  0.00    -0.507 OA
ATOM     20  H   UNL     1       9.647  -6.232  25.269  0.00  0.00    +0.292 HD
ENDBRANCH  11  19
BRANCH   1  21
ATOM     21  O   UNL     1       8.387   4.429  23.345  0.00  0.00    -0.461 OA
BRANCH  21  22
ATOM     22  C   UNL     1       8.486   5.750  23.167  0.00  0.00    +0.308 C 
ATOM     23  O   UNL     1       7.671   6.479  22.618  0.00  0.00    -0.251 OA
BRANCH  22  24
ATOM     24  C   UNL     1       9.804   6.251  23.686  0.00  0.00    +0.132 C 
BRANCH  24  25
ATOM     25  C   UNL     1      10.858   5.161  23.664  0.00  0.00    +0.131 C 
BRANCH  25  26
ATOM     26  C   UNL     1      12.316   5.559  23.578  0.00  0.00    +0.305 C 
ATOM     27  O   UNL     1      12.991   5.257  22.600  0.00  0.00    -0.251 OA
BRANCH  26  28
ATOM     28  O   UNL     1      12.855   6.246  24.597  0.00  0.00    -0.481 OA
ATOM     29  H   UNL     1      13.759   6.020  24.908  0.00  0.00    +0.295 HD
ENDBRANCH  26  28
ENDBRANCH  25  26
ENDBRANCH  24  25
ENDBRANCH  22  24
ENDBRANCH  21  22
ENDBRANCH   1  21
TORSDOF 7
ENDMDL
MODEL 6
REMARK VINA RESULT:      -7.3      1.497      2.993
REMARK  Name = 
REMARK  8 active torsions:
REMARK  status: ('A' for Active; 'I' for Inactive)
REMARK    1  A    between atoms: C_2  and  O_24
REMARK    2  A    between atoms: C_15  and  O_16
REMARK    3  A    between atoms: C_22  and  C_23
REMARK    4  A    between atoms: O_24  and  C_25
REMARK    5  A    between atoms: C_25  and  C_27
REMARK    6  A    between atoms: C_27  and  C_28
REMARK    7  A    between atoms: C_28  and  C_29
REMARK    8  A    between atoms: C_29  and  O_30
REMARK                            x       y       z     vdW  Elec       q    Type
REMARK                         _______ _______ _______ _____ _____    ______ ____
ROOT
ATOM      1  C   UNL     1      10.018   1.159  23.494  0.00  0.00    +0.183 C 
ATOM      2  C   UNL     1       9.134  -0.075  23.056  0.00  0.00    +0.008 C 
ATOM      3  C   UNL     1       7.692   0.439  22.778  0.00  0.00    +0.015 C 
ATOM      4  C   UNL     1       9.380  -1.047  24.238  0.00  0.00    +0.002 C 
ATOM      5  C   UNL     1       8.303  -2.089  24.360  0.00  0.00    +0.000 C 
ATOM      6  C   UNL     1       8.417  -3.038  23.129  0.00  0.00    +0.023 C 
ATOM      7  C   UNL     1       8.549  -2.241  21.779  0.00  0.00    +0.009 C 
ATOM      8  C   UNL     1       7.352  -4.133  23.258  0.00  0.00    -0.041 A 
ATOM      9  C   UNL     1       6.921  -4.894  22.159  0.00  0.00    +0.008 A 
ATOM     10  C   UNL     1       5.993  -5.938  22.325  0.00  0.00    +0.046 A 
ATOM     11  C   UNL     1       5.489  -6.223  23.590  0.00  0.00    +0.117 A 
ATOM     12  C   UNL     1       5.898  -5.497  24.692  0.00  0.00    +0.049 A 
ATOM     13  C   UNL     1       6.847  -4.480  24.544  0.00  0.00    -0.040 A 
ATOM     14  C   UNL     1       7.248  -3.774  25.814  0.00  0.00    +0.036 C 
ATOM     15  C   UNL     1       8.469  -2.906  25.637  0.00  0.00    +0.009 C 
ATOM     16  C   UNL     1       9.781  -0.202  25.428  0.00  0.00    +0.008 C 
ATOM     17  C   UNL     1       9.491  -0.970  21.838  0.00  0.00    +0.011 C 
ATOM     18  C   UNL     1      10.799   0.707  24.737  0.00  0.00    +0.045 C 
ENDROOT
BRANCH  11  19
ATOM     19  O   UNL     1       4.582  -7.219  23.808  0.00  0.00    -0.507 OA
ATOM     20  H   UNL     1       3.787  -7.043  23.282  0.00  0.00    +0.292 HD
ENDBRANCH  11  19
BRANCH   1  21
ATOM     21  O   UNL     1       9.108   2.143  24.079  0.00  0.00    -0.461 OA
BRANCH  21  22
ATOM     22  C   UNL     1       9.357   3.455  24.120  0.00  0.00    +0.308 C 
ATOM     23  O   UNL     1      10.320   4.034  23.635  0.00  0.00    -0.251 OA
BRANCH  22  24
ATOM     24  C   UNL     1       8.301   4.165  24.920  0.00  0.00    +0.132 C 
BRANCH  24  25
ATOM     25  C   UNL     1       7.267   3.193  25.455  0.00  0.00    +0.131 C 
BRANCH  25  26
ATOM     26  C   UNL     1       7.188   2.962  26.949  0.00  0.00    +0.305 C 
ATOM     27  O   UNL     1       6.866   3.870  27.707  0.00  0.00    -0.251 OA
BRANCH  26  28
ATOM     28  O   UNL     1       7.482   1.743  27.427  0.00  0.00    -0.481 OA
ATOM     29  H   UNL     1       7.712   1.637  28.375  0.00  0.00    +0.295 HD
ENDBRANCH  26  28
ENDBRANCH  25  26
ENDBRANCH  24  25
ENDBRANCH  22  24
ENDBRANCH  21  22
ENDBRANCH   1  21
TORSDOF 7
ENDMDL
MODEL 7
REMARK VINA RESULT:      -7.3      2.273      8.699
REMARK  Name = 
REMARK  8 active torsions:
REMARK  status: ('A' for Active; 'I' for Inactive)
REMARK    1  A    between atoms: C_2  and  O_24
REMARK    2  A    between atoms: C_15  and  O_16
REMARK    3  A    between atoms: C_22  and  C_23
REMARK    4  A    between atoms: O_24  and  C_25
REMARK    5  A    between atoms: C_25  and  C_27
REMARK    6  A    between atoms: C_27  and  C_28
REMARK    7  A    between atoms: C_28  and  C_29
REMARK    8  A    between atoms: C_29  and  O_30
REMARK                            x       y       z     vdW  Elec       q    Type
REMARK                         _______ _______ _______ _____ _____    ______ ____
ROOT
ATOM      1  C   UNL     1       8.092  -2.392  22.752  0.00  0.00    +0.183 C 
ATOM      2  C   UNL     1       8.835  -1.018  22.991  0.00  0.00    +0.008 C 
ATOM      3  C   UNL     1       9.836  -1.209  24.167  0.00  0.00    +0.015 C 
ATOM      4  C   UNL     1       7.630  -0.059  23.166  0.00  0.00    +0.002 C 
ATOM      5  C   UNL     1       8.001   1.204  23.891  0.00  0.00    +0.000 C 
ATOM      6  C   UNL     1       8.942   2.029  22.962  0.00  0.00    +0.023 C 
ATOM      7  C   UNL     1      10.089   1.145  22.348  0.00  0.00    +0.009 C 
ATOM      8  C   UNL     1       9.297   3.341  23.670  0.00  0.00    -0.041 A 
ATOM      9  C   UNL     1      10.411   4.115  23.304  0.00  0.00    +0.008 A 
ATOM     10  C   UNL     1      10.668   5.349  23.927  0.00  0.00    +0.046 A 
ATOM     11  C   UNL     1       9.816   5.814  24.922  0.00  0.00    +0.117 A 
ATOM     12  C   UNL     1       8.708   5.080  25.301  0.00  0.00    +0.049 A 
ATOM     13  C   UNL     1       8.422   3.869  24.663  0.00  0.00    -0.040 A 
ATOM     14  C   UNL     1       7.173   3.166  25.129  0.00  0.00    +0.036 C 
ATOM     15  C   UNL     1       6.765   2.037  24.216  0.00  0.00    +0.009 C 
ATOM     16  C   UNL     1       6.458  -0.901  23.622  0.00  0.00    +0.008 C 
ATOM     17  C   UNL     1       9.645  -0.300  21.877  0.00  0.00    +0.011 C 
ATOM     18  C   UNL     1       6.598  -2.055  22.628  0.00  0.00    +0.045 C 
ENDROOT
BRANCH  11  19
ATOM     19  O   UNL     1      10.021   7.000  25.566  0.00  0.00    -0.507 OA
ATOM     20  H   UNL     1      10.827   6.934  26.099  0.00  0.00    +0.292 HD
ENDBRANCH  11  19
BRANCH   1  21
ATOM     21  O   UNL     1       8.112  -3.109  24.026  0.00  0.00    -0.461 OA
BRANCH  21  22
ATOM     22  C   UNL     1       8.407  -4.407  24.144  0.00  0.00    +0.308 C 
ATOM     23  O   UNL     1       9.490  -4.889  24.447  0.00  0.00    -0.251 OA
BRANCH  22  24
ATOM     24  C   UNL     1       7.215  -5.250  23.784  0.00  0.00    +0.132 C 
BRANCH  24  25
ATOM     25  C   UNL     1       7.271  -5.699  22.337  0.00  0.00    +0.131 C 
BRANCH  25  26
ATOM     26  C   UNL     1       5.986  -5.758  21.542  0.00  0.00    +0.305 C 
ATOM     27  O   UNL     1       5.994  -5.608  20.325  0.00  0.00    -0.251 OA
BRANCH  26  28
ATOM     28  O   UNL     1       4.835  -5.977  22.197  0.00  0.00    -0.481 OA
ATOM     29  H   UNL     1       4.085  -5.353  22.080  0.00  0.00    +0.295 HD
ENDBRANCH  26  28
ENDBRANCH  25  26
ENDBRANCH  24  25
ENDBRANCH  22  24
ENDBRANCH  21  22
ENDBRANCH   1  21
TORSDOF 7
ENDMDL
MODEL 8
REMARK VINA RESULT:      -7.3      2.131      8.810
REMARK  Name = 
REMARK  8 active torsions:
REMARK  status: ('A' for Active; 'I' for Inactive)
REMARK    1  A    between atoms: C_2  and  O_24
REMARK    2  A    between atoms: C_15  and  O_16
REMARK    3  A    between atoms: C_22  and  C_23
REMARK    4  A    between atoms: O_24  and  C_25
REMARK    5  A    between atoms: C_25  and  C_27
REMARK    6  A    between atoms: C_27  and  C_28
REMARK    7  A    between atoms: C_28  and  C_29
REMARK    8  A    between atoms: C_29  and  O_30
REMARK                            x       y       z     vdW  Elec       q    Type
REMARK                         _______ _______ _______ _____ _____    ______ ____
ROOT
ATOM      1  C   UNL     1       7.792  -3.512  24.389  0.00  0.00    +0.183 C 
ATOM      2  C   UNL     1       7.558  -1.954  24.503  0.00  0.00    +0.008 C 
ATOM      3  C   UNL     1       6.635  -1.518  23.329  0.00  0.00    +0.015 C 
ATOM      4  C   UNL     1       9.020  -1.440  24.553  0.00  0.00    +0.002 C 
ATOM      5  C   UNL     1       9.134   0.007  24.162  0.00  0.00    +0.000 C 
ATOM      6  C   UNL     1       8.452   0.857  25.277  0.00  0.00    +0.023 C 
ATOM      7  C   UNL     1       7.039   0.290  25.670  0.00  0.00    +0.009 C 
ATOM      8  C   UNL     1       8.596   2.340  24.916  0.00  0.00    -0.041 A 
ATOM      9  C   UNL     1       7.774   3.332  25.474  0.00  0.00    +0.008 A 
ATOM     10  C   UNL     1       7.978   4.691  25.174  0.00  0.00    +0.046 A 
ATOM     11  C   UNL     1       9.004   5.064  24.312  0.00  0.00    +0.117 A 
ATOM     12  C   UNL     1       9.835   4.112  23.752  0.00  0.00    +0.049 A 
ATOM     13  C   UNL     1       9.663   2.762  24.071  0.00  0.00    -0.040 A 
ATOM     14  C   UNL     1      10.643   1.811  23.432  0.00  0.00    +0.036 C 
ATOM     15  C   UNL     1      10.594   0.430  24.035  0.00  0.00    +0.009 C 
ATOM     16  C   UNL     1       9.881  -2.494  23.889  0.00  0.00    +0.008 C 
ATOM     17  C   UNL     1       6.951  -1.289  25.769  0.00  0.00    +0.011 C 
ATOM     18  C   UNL     1       9.301  -3.733  24.573  0.00  0.00    +0.045 C 
ENDROOT
BRANCH  11  19
ATOM     19  O   UNL     1       9.244   6.366  23.981  0.00  0.00    -0.507 OA
ATOM     20  H   UNL     1       8.560   6.665  23.363  0.00  0.00    +0.292 HD
ENDBRANCH  11  19
BRANCH   1  21
ATOM     21  O   UNL     1       7.628  -3.861  22.979  0.00  0.00    -0.461 OA
BRANCH  21  22
ATOM     22  C   UNL     1       7.268  -5.075  22.550  0.00  0.00    +0.308 C 
ATOM     23  O   UNL     1       7.976  -6.071  22.489  0.00  0.00    -0.251 OA
BRANCH  22  24
ATOM     24  C   UNL     1       5.843  -5.060  22.072  0.00  0.00    +0.132 C 
BRANCH  24  25
ATOM     25  C   UNL     1       4.870  -5.119  23.232  0.00  0.00    +0.131 C 
BRANCH  25  26
ATOM     26  C   UNL     1       4.961  -6.277  24.202  0.00  0.00    +0.305 C 
ATOM     27  O   UNL     1       5.425  -6.119  25.326  0.00  0.00    -0.251 OA
BRANCH  26  28
ATOM     28  O   UNL     1       4.525  -7.483  23.805  0.00  0.00    -0.481 OA
ATOM     29  H   UNL     1       5.175  -8.176  23.558  0.00  0.00    +0.295 HD
ENDBRANCH  26  28
ENDBRANCH  25  26
ENDBRANCH  24  25
ENDBRANCH  22  24
ENDBRANCH  21  22
ENDBRANCH   1  21
TORSDOF 7
ENDMDL
MODEL 9
REMARK VINA RESULT:      -7.2      2.467      8.496
REMARK  Name = 
REMARK  8 active torsions:
REMARK  status: ('A' for Active; 'I' for Inactive)
REMARK    1  A    between atoms: C_2  and  O_24
REMARK    2  A    between atoms: C_15  and  O_16
REMARK    3  A    between atoms: C_22  and  C_23
REMARK    4  A    between atoms: O_24  and  C_25
REMARK    5  A    between atoms: C_25  and  C_27
REMARK    6  A    between atoms: C_27  and  C_28
REMARK    7  A    between atoms: C_28  and  C_29
REMARK    8  A    between atoms: C_29  and  O_30
REMARK                            x       y       z     vdW  Elec       q    Type
REMARK                         _______ _______ _______ _____ _____    ______ ____
ROOT
ATOM      1  C   UNL     1       7.628  -4.092  25.694  0.00  0.00    +0.183 C 
ATOM      2  C   UNL     1       7.595  -2.513  25.651  0.00  0.00    +0.008 C 
ATOM      3  C   UNL     1       6.107  -2.059  25.704  0.00  0.00    +0.015 C 
ATOM      4  C   UNL     1       8.430  -2.235  24.376  0.00  0.00    +0.002 C 
ATOM      5  C   UNL     1       8.163  -0.872  23.800  0.00  0.00    +0.000 C 
ATOM      6  C   UNL     1       8.728   0.185  24.795  0.00  0.00    +0.023 C 
ATOM      7  C   UNL     1       8.292  -0.107  26.277  0.00  0.00    +0.009 C 
ATOM      8  C   UNL     1       8.502   1.581  24.203  0.00  0.00    -0.041 A 
ATOM      9  C   UNL     1       8.524   2.744  24.991  0.00  0.00    +0.008 A 
ATOM     10  C   UNL     1       8.382   4.014  24.405  0.00  0.00    +0.046 A 
ATOM     11  C   UNL     1       8.215   4.129  23.029  0.00  0.00    +0.117 A 
ATOM     12  C   UNL     1       8.196   3.005  22.225  0.00  0.00    +0.049 A 
ATOM     13  C   UNL     1       8.371   1.739  22.793  0.00  0.00    -0.040 A 
ATOM     14  C   UNL     1       8.368   0.584  21.824  0.00  0.00    +0.036 C 
ATOM     15  C   UNL     1       8.849  -0.702  22.448  0.00  0.00    +0.009 C 
ATOM     16  C   UNL     1       8.342  -3.474  23.512  0.00  0.00    +0.008 C 
ATOM     17  C   UNL     1       8.327  -1.632  26.701  0.00  0.00    +0.011 C 
ATOM     18  C   UNL     1       8.601  -4.529  24.589  0.00  0.00    +0.045 C 
ENDROOT
BRANCH  11  19
ATOM     19  O   UNL     1       8.066   5.335  22.408  0.00  0.00    -0.507 OA
ATOM     20  H   UNL     1       7.685   5.192  21.529  0.00  0.00    +0.292 HD
ENDBRANCH  11  19
BRANCH   1  21
ATOM     21  O   UNL     1       6.355  -4.555  25.143  0.00  0.00    -0.461 OA
BRANCH  21  22
ATOM     22  C   UNL     1       5.796  -5.730  25.447  0.00  0.00    +0.308 C 
ATOM     23  O   UNL     1       5.961  -6.377  26.472  0.00  0.00    -0.251 OA
BRANCH  22  24
ATOM     24  C   UNL     1       4.951  -6.219  24.304  0.00  0.00    +0.132 C 
BRANCH  24  25
ATOM     25  C   UNL     1       4.992  -5.256  23.134  0.00  0.00    +0.131 C 
BRANCH  25  26
ATOM     26  C   UNL     1       5.793  -5.634  21.907  0.00  0.00    +0.305 C 
ATOM     27  O   UNL     1       5.857  -4.880  20.943  0.00  0.00    -0.251 OA
BRANCH  26  28
ATOM     28  O   UNL     1       6.429  -6.816  21.894  0.00  0.00    -0.481 OA
ATOM     29  H   UNL     1       7.361  -6.867  22.200  0.00  0.00    +0.295 HD
ENDBRANCH  26  28
ENDBRANCH  25  26
ENDBRANCH  24  25
ENDBRANCH  22  24
ENDBRANCH  21  22
ENDBRANCH   1  21
TORSDOF 7
ENDMDL
