MODEL 1
REMARK VINA RESULT:      -3.4      0.000      0.000
REMARK  Name = 
REMARK  5 active torsions:
REMARK  status: ('A' for Active; 'I' for Inactive)
REMARK    1  A    between atoms: N_1  and  CA_2
REMARK    2  A    between atoms: CA_2  and  C_4
REMARK    3  A    between atoms: CA_2  and  C_6
REMARK    4  A    between atoms: C_4  and  O_5
REMARK    5  A    between atoms: C_6  and  O_7
REMARK                            x       y       z     vdW  Elec       q    Type
REMARK                         _______ _______ _______ _____ _____    ______ ____
ROOT
ATOM      1  CA  UNL     1       7.961  -5.024  25.342  0.00  0.00    +0.186 C 
ENDROOT
BRANCH   1   2
ATOM      2  N   UNL     1       7.175  -4.113  24.445  0.00  0.00    -0.317 NA
ATOM      3  H1  UNL     1       7.571  -3.170  24.526  0.00  0.00    +0.119 HD
ATOM      4  H2  UNL     1       7.370  -4.380  23.473  0.00  0.00    +0.119 HD
ENDBRANCH   1   2
BRANCH   1   5
ATOM      5  C   UNL     1       9.455  -4.752  25.086  0.00  0.00    +0.324 C 
ATOM      6  O   UNL     1       9.928  -3.861  24.399  0.00  0.00    -0.249 OA
BRANCH   5   7
ATOM      7  O   UNL     1      10.231  -5.620  25.795  0.00  0.00    -0.479 OA
ATOM      8  H   UNL     1       9.753  -5.787  26.646  0.00  0.00    +0.295 HD
ENDBRANCH   5   7
ENDBRANCH   1   5
BRANCH   1   9
ATOM      9  C   UNL     1       7.578  -4.831  26.817  0.00  0.00    +0.185 C 
BRANCH   9  10
ATOM     10  O   UNL     1       7.828  -5.974  27.625  0.00  0.00    -0.393 OA
ATOM     11  H   UNL     1       8.623  -5.825  28.163  0.00  0.00    +0.209 HD
ENDBRANCH   9  10
ENDBRANCH   1   9
TORSDOF 5
ENDMDL
MODEL 2
REMARK VINA RESULT:      -3.4      1.840      2.098
REMARK  Name = 
REMARK  5 active torsions:
REMARK  status: ('A' for Active; 'I' for Inactive)
REMARK    1  A    between atoms: N_1  and  CA_2
REMARK    2  A    between atoms: CA_2  and  C_4
REMARK    3  A    between atoms: CA_2  and  C_6
REMARK    4  A    between atoms: C_4  and  O_5
REMARK    5  A    between atoms: C_6  and  O_7
REMARK                            x       y       z     vdW  Elec       q    Type
REMARK                         _______ _______ _______ _____ _____    ______ ____
ROOT
ATOM      1  CA  UNL     1       8.067  -4.697  25.972  0.00  0.00    +0.186 C 
ENDROOT
BRANCH   1   2
ATOM      2  N   UNL     1       8.205  -5.643  27.128  0.00  0.00    -0.317 NA
ATOM      3  H1  UNL     1       8.504  -5.102  27.947  0.00  0.00    +0.119 HD
ATOM      4  H2  UNL     1       7.266  -5.973  27.381  0.00  0.00    +0.119 HD
ENDBRANCH   1   2
BRANCH   1   5
ATOM      5  C   UNL     1       9.354  -4.797  25.133  0.00  0.00    +0.324 C 
ATOM      6  O   UNL     1       9.874  -3.903  24.485  0.00  0.00    -0.249 OA
BRANCH   5   7
ATOM      7  O   UNL     1       9.910  -6.037  25.250  0.00  0.00    -0.479 OA
ATOM      8  H   UNL     1       9.664  -6.366  26.150  0.00  0.00    +0.295 HD
ENDBRANCH   5   7
ENDBRANCH   1   5
BRANCH   1   9
ATOM      9  C   UNL     1       6.808  -4.998  25.145  0.00  0.00    +0.185 C 
BRANCH   9  10
ATOM     10  O   UNL     1       7.081  -5.326  23.789  0.00  0.00    -0.393 OA
ATOM     11  H   UNL     1       8.039  -5.290  23.632  0.00  0.00    +0.209 HD
ENDBRANCH   9  10
ENDBRANCH   1   9
TORSDOF 5
ENDMDL
MODEL 3
REMARK VINA RESULT:      -3.3      2.127      2.334
REMARK  Name = 
REMARK  5 active torsions:
REMARK  status: ('A' for Active; 'I' for Inactive)
REMARK    1  A    between atoms: N_1  and  CA_2
REMARK    2  A    between atoms: CA_2  and  C_4
REMARK    3  A    between atoms: CA_2  and  C_6
REMARK    4  A    between atoms: C_4  and  O_5
REMARK    5  A    between atoms: C_6  and  O_7
REMARK                            x       y       z     vdW  Elec       q    Type
REMARK                         _______ _______ _______ _____ _____    ______ ____
ROOT
ATOM      1  CA  UNL     1       9.003  -4.661  25.305  0.00  0.00    +0.186 C 
ENDROOT
BRANCH   1   2
ATOM      2  N   UNL     1      10.128  -5.653  25.293  0.00  0.00    -0.317 NA
ATOM      3  H1  UNL     1       9.846  -6.446  24.706  0.00  0.00    +0.119 HD
ATOM      4  H2  UNL     1      10.913  -5.235  24.780  0.00  0.00    +0.119 HD
ENDBRANCH   1   2
BRANCH   1   5
ATOM      5  C   UNL     1       7.965  -5.121  24.265  0.00  0.00    +0.324 C 
ATOM      6  O   UNL     1       8.193  -5.526  23.137  0.00  0.00    -0.249 OA
BRANCH   5   7
ATOM      7  O   UNL     1       6.708  -5.084  24.790  0.00  0.00    -0.479 OA
ATOM      8  H   UNL     1       6.135  -5.604  24.173  0.00  0.00    +0.295 HD
ENDBRANCH   5   7
ENDBRANCH   1   5
BRANCH   1   9
ATOM      9  C   UNL     1       8.396  -4.514  26.709  0.00  0.00    +0.185 C 
BRANCH   9  10
ATOM     10  O   UNL     1       8.073  -5.756  27.322  0.00  0.00    -0.393 OA
ATOM     11  H   UNL     1       7.862  -5.611  28.259  0.00  0.00    +0.209 HD
ENDBRANCH   9  10
ENDBRANCH   1   9
TORSDOF 5
ENDMDL
MODEL 4
REMARK VINA RESULT:      -3.3      1.849      3.055
REMARK  Name = 
REMARK  5 active torsions:
REMARK  status: ('A' for Active; 'I' for Inactive)
REMARK    1  A    between atoms: N_1  and  CA_2
REMARK    2  A    between atoms: CA_2  and  C_4
REMARK    3  A    between atoms: CA_2  and  C_6
REMARK    4  A    between atoms: C_4  and  O_5
REMARK    5  A    between atoms: C_6  and  O_7
REMARK                            x       y       z     vdW  Elec       q    Type
REMARK                         _______ _______ _______ _____ _____    ______ ____
ROOT
ATOM      1  CA  UNL     1       8.838  -5.300  25.291  0.00  0.00    +0.186 C 
ENDROOT
BRANCH   1   2
ATOM      2  N   UNL     1      10.314  -5.539  25.419  0.00  0.00    -0.317 NA
ATOM      3  H1  UNL     1      10.800  -4.809  24.886  0.00  0.00    +0.119 HD
ATOM      4  H2  UNL     1      10.581  -5.353  26.392  0.00  0.00    +0.119 HD
ENDBRANCH   1   2
BRANCH   1   5
ATOM      5  C   UNL     1       8.323  -4.826  26.662  0.00  0.00    +0.324 C 
ATOM      6  O   UNL     1       8.176  -3.671  27.028  0.00  0.00    -0.249 OA
BRANCH   5   7
ATOM      7  O   UNL     1       7.974  -5.890  27.440  0.00  0.00    -0.479 OA
ATOM      8  H   UNL     1       7.897  -6.665  26.829  0.00  0.00    +0.295 HD
ENDBRANCH   5   7
ENDBRANCH   1   5
BRANCH   1   9
ATOM      9  C   UNL     1       8.524  -4.296  24.172  0.00  0.00    +0.185 C 
BRANCH   9  10
ATOM     10  O   UNL     1       9.291  -3.100  24.247  0.00  0.00    -0.393 OA
ATOM     11  H   UNL     1       9.756  -3.065  25.099  0.00  0.00    +0.209 HD
ENDBRANCH   9  10
ENDBRANCH   1   9
TORSDOF 5
ENDMDL
MODEL 5
REMARK VINA RESULT:      -3.3      5.924      6.538
REMARK  Name = 
REMARK  5 active torsions:
REMARK  status: ('A' for Active; 'I' for Inactive)
REMARK    1  A    between atoms: N_1  and  CA_2
REMARK    2  A    between atoms: CA_2  and  C_4
REMARK    3  A    between atoms: CA_2  and  C_6
REMARK    4  A    between atoms: C_4  and  O_5
REMARK    5  A    between atoms: C_6  and  O_7
REMARK                            x       y       z     vdW  Elec       q    Type
REMARK                         _______ _______ _______ _____ _____    ______ ____
ROOT
ATOM      1  CA  UNL     1       9.791   1.111  22.861  0.00  0.00    +0.186 C 
ENDROOT
BRANCH   1   2
ATOM      2  N   UNL     1      10.056   2.017  21.694  0.00  0.00    -0.317 NA
ATOM      3  H1  UNL     1      11.017   1.851  21.376  0.00  0.00    +0.119 HD
ATOM      4  H2  UNL     1       9.478   1.697  20.908  0.00  0.00    +0.119 HD
ENDBRANCH   1   2
BRANCH   1   5
ATOM      5  C   UNL     1       9.994  -0.338  22.380  0.00  0.00    +0.324 C 
ATOM      6  O   UNL     1      10.384  -1.281  23.049  0.00  0.00    -0.249 OA
BRANCH   5   7
ATOM      7  O   UNL     1       9.612  -0.471  21.078  0.00  0.00    -0.479 OA
ATOM      8  H   UNL     1       9.527   0.448  20.720  0.00  0.00    +0.295 HD
ENDBRANCH   5   7
ENDBRANCH   1   5
BRANCH   1   9
ATOM      9  C   UNL     1      10.688   1.458  24.059  0.00  0.00    +0.185 C 
BRANCH   9  10
ATOM     10  O   UNL     1      10.404   0.694  25.224  0.00  0.00    -0.393 OA
ATOM     11  H   UNL     1      10.908   1.048  25.976  0.00  0.00    +0.209 HD
ENDBRANCH   9  10
ENDBRANCH   1   9
TORSDOF 5
ENDMDL
MODEL 6
REMARK VINA RESULT:      -3.3      6.220      6.754
REMARK  Name = 
REMARK  5 active torsions:
REMARK  status: ('A' for Active; 'I' for Inactive)
REMARK    1  A    between atoms: N_1  and  CA_2
REMARK    2  A    between atoms: CA_2  and  C_4
REMARK    3  A    between atoms: CA_2  and  C_6
REMARK    4  A    between atoms: C_4  and  O_5
REMARK    5  A    between atoms: C_6  and  O_7
REMARK                            x       y       z     vdW  Elec       q    Type
REMARK                         _______ _______ _______ _____ _____    ______ ____
ROOT
ATOM      1  CA  UNL     1      10.041   0.903  22.021  0.00  0.00    +0.186 C 
ENDROOT
BRANCH   1   2
ATOM      2  N   UNL     1       9.328   2.125  21.523  0.00  0.00    -0.317 NA
ATOM      3  H1  UNL     1      10.011   2.888  21.461  0.00  0.00    +0.119 HD
ATOM      4  H2  UNL     1       9.057   1.958  20.547  0.00  0.00    +0.119 HD
ENDBRANCH   1   2
BRANCH   1   5
ATOM      5  C   UNL     1      10.138   1.014  23.554  0.00  0.00    +0.324 C 
ATOM      6  O   UNL     1       9.895   1.999  24.232  0.00  0.00    -0.249 OA
BRANCH   5   7
ATOM      7  O   UNL     1      10.484  -0.186  24.102  0.00  0.00    -0.479 OA
ATOM      8  H   UNL     1       9.860  -0.854  23.722  0.00  0.00    +0.295 HD
ENDBRANCH   5   7
ENDBRANCH   1   5
BRANCH   1   9
ATOM      9  C   UNL     1       9.332  -0.384  21.574  0.00  0.00    +0.185 C 
BRANCH   9  10
ATOM     10  O   UNL     1      10.200  -1.506  21.467  0.00  0.00    -0.393 OA
ATOM     11  H   UNL     1      10.469  -1.795  22.355  0.00  0.00    +0.209 HD
ENDBRANCH   9  10
ENDBRANCH   1   9
TORSDOF 5
ENDMDL
MODEL 7
REMARK VINA RESULT:      -3.2      6.882      8.116
REMARK  Name = 
REMARK  5 active torsions:
REMARK  status: ('A' for Active; 'I' for Inactive)
REMARK    1  A    between atoms: N_1  and  CA_2
REMARK    2  A    between atoms: CA_2  and  C_4
REMARK    3  A    between atoms: CA_2  and  C_6
REMARK    4  A    between atoms: C_4  and  O_5
REMARK    5  A    between atoms: C_6  and  O_7
REMARK                            x       y       z     vdW  Elec       q    Type
REMARK                         _______ _______ _______ _____ _____    ______ ____
ROOT
ATOM      1  CA  UNL     1      10.526   1.969  23.735  0.00  0.00    +0.186 C 
ENDROOT
BRANCH   1   2
ATOM      2  N   UNL     1       9.703   1.419  24.862  0.00  0.00    -0.317 NA
ATOM      3  H1  UNL     1       8.717   1.451  24.580  0.00  0.00    +0.119 HD
ATOM      4  H2  UNL     1       9.904   0.415  24.941  0.00  0.00    +0.119 HD
ENDBRANCH   1   2
BRANCH   1   5
ATOM      5  C   UNL     1      10.110   1.229  22.451  0.00  0.00    +0.324 C 
ATOM      6  O   UNL     1       9.983   0.023  22.312  0.00  0.00    -0.249 OA
BRANCH   5   7
ATOM      7  O   UNL     1       9.826   2.115  21.455  0.00  0.00    -0.479 OA
ATOM      8  H   UNL     1      10.114   3.003  21.784  0.00  0.00    +0.295 HD
ENDBRANCH   5   7
ENDBRANCH   1   5
BRANCH   1   9
ATOM      9  C   UNL     1      10.363   3.491  23.609  0.00  0.00    +0.185 C 
BRANCH   9  10
ATOM     10  O   UNL     1      11.437   4.125  22.925  0.00  0.00    -0.393 OA
ATOM     11  H   UNL     1      11.310   4.035  21.966  0.00  0.00    +0.209 HD
ENDBRANCH   9  10
ENDBRANCH   1   9
TORSDOF 5
ENDMDL
MODEL 8
REMARK VINA RESULT:      -3.2      4.843      6.212
REMARK  Name = 
REMARK  5 active torsions:
REMARK  status: ('A' for Active; 'I' for Inactive)
REMARK    1  A    between atoms: N_1  and  CA_2
REMARK    2  A    between atoms: CA_2  and  C_4
REMARK    3  A    between atoms: CA_2  and  C_6
REMARK    4  A    between atoms: C_4  and  O_5
REMARK    5  A    between atoms: C_6  and  O_7
REMARK                            x       y       z     vdW  Elec       q    Type
REMARK                         _______ _______ _______ _____ _____    ______ ____
ROOT
ATOM      1  CA  UNL     1      10.449   0.012  23.280  0.00  0.00    +0.186 C 
ENDROOT
BRANCH   1   2
ATOM      2  N   UNL     1      10.433   0.020  24.781  0.00  0.00    -0.317 NA
ATOM      3  H1  UNL     1      11.302  -0.416  25.109  0.00  0.00    +0.119 HD
ATOM      4  H2  UNL     1      10.513   0.995  25.093  0.00  0.00    +0.119 HD
ENDBRANCH   1   2
BRANCH   1   5
ATOM      5  C   UNL     1      10.262  -1.446  22.821  0.00  0.00    +0.324 C 
ATOM      6  O   UNL     1      10.145  -2.428  23.537  0.00  0.00    -0.249 OA
BRANCH   5   7
ATOM      7  O   UNL     1      10.174  -1.515  21.462  0.00  0.00    -0.479 OA
ATOM      8  H   UNL     1       9.604  -0.756  21.183  0.00  0.00    +0.295 HD
ENDBRANCH   5   7
ENDBRANCH   1   5
BRANCH   1   9
ATOM      9  C   UNL     1       9.378   0.948  22.701  0.00  0.00    +0.185 C 
BRANCH   9  10
ATOM     10  O   UNL     1       9.726   1.498  21.437  0.00  0.00    -0.393 OA
ATOM     11  H   UNL     1       9.282   2.354  21.321  0.00  0.00    +0.209 HD
ENDBRANCH   9  10
ENDBRANCH   1   9
TORSDOF 5
ENDMDL
MODEL 9
REMARK VINA RESULT:      -3.1      6.133      7.244
REMARK  Name = 
REMARK  5 active torsions:
REMARK  status: ('A' for Active; 'I' for Inactive)
REMARK    1  A    between atoms: N_1  and  CA_2
REMARK    2  A    between atoms: CA_2  and  C_4
REMARK    3  A    between atoms: CA_2  and  C_6
REMARK    4  A    between atoms: C_4  and  O_5
REMARK    5  A    between atoms: C_6  and  O_7
REMARK                            x       y       z     vdW  Elec       q    Type
REMARK                         _______ _______ _______ _____ _____    ______ ____
ROOT
ATOM      1  CA  UNL     1       9.667   0.858  23.491  0.00  0.00    +0.186 C 
ENDROOT
BRANCH   1   2
ATOM      2  N   UNL     1       9.893   0.962  24.971  0.00  0.00    -0.317 NA
ATOM      3  H1  UNL     1      10.364   1.854  25.157  0.00  0.00    +0.119 HD
ATOM      4  H2  UNL     1       8.978   1.067  25.424  0.00  0.00    +0.119 HD
ENDBRANCH   1   2
BRANCH   1   5
ATOM      5  C   UNL     1      10.238   2.132  22.842  0.00  0.00    +0.324 C 
ATOM      6  O   UNL     1      10.912   2.991  23.389  0.00  0.00    -0.249 OA
BRANCH   5   7
ATOM      7  O   UNL     1       9.947   2.167  21.511  0.00  0.00    -0.479 OA
ATOM      8  H   UNL     1      10.272   3.040  21.179  0.00  0.00    +0.295 HD
ENDBRANCH   5   7
ENDBRANCH   1   5
BRANCH   1   9
ATOM      9  C   UNL     1      10.292  -0.421  22.914  0.00  0.00    +0.185 C 
BRANCH   9  10
ATOM     10  O   UNL     1       9.967  -0.648  21.548  0.00  0.00    -0.393 OA
ATOM     11  H   UNL     1       9.126  -1.131  21.490  0.00  0.00    +0.209 HD
ENDBRANCH   9  10
ENDBRANCH   1   9
TORSDOF 5
ENDMDL
