MODEL 1
REMARK VINA RESULT:      -6.6      0.000      0.000
REMARK  Name = 
REMARK  8 active torsions:
REMARK  status: ('A' for Active; 'I' for Inactive)
REMARK    1  A    between atoms: CA_2  and  N_3
REMARK    2  A    between atoms: CA_2  and  C_12
REMARK    3  A    between atoms: CA_2  and  C_14
REMARK    4  A    between atoms: C_4  and  C_6
REMARK    5  A    between atoms: C_6  and  C_7
REMARK    6  A    between atoms: CA_17  and  C_18
REMARK    7  A    between atoms: C_18  and  O_19
REMARK    8  A    between atoms: C_21  and  C_22
REMARK                            x       y       z     vdW  Elec       q    Type
REMARK                         _______ _______ _______ _____ _____    ______ ____
ROOT
ATOM      1  CA  UNL     1       7.074  -3.117  23.257  0.00  0.00    +0.166 C 
ENDROOT
BRANCH   1   2
ATOM      2  C   UNL     1       6.592  -2.663  24.658  0.00  0.00    +0.156 C 
ATOM      3  S   UNL     1       4.797  -2.606  24.877  0.00  0.00    -0.132 S 
ATOM      4  C   UNL     1       4.479  -4.380  24.817  0.00  0.00    +0.103 C 
ATOM      5  C   UNL     1       5.441  -5.222  25.617  0.00  0.00    -0.035 C 
ATOM      6  C   UNL     1       4.892  -6.610  25.849  0.00  0.00    +0.042 C 
ATOM      7  CA  UNL     1       6.634  -4.764  26.058  0.00  0.00    +0.113 C 
ATOM      8  N   UNL     1       7.161  -3.509  25.708  0.00  0.00    -0.325 N 
ATOM      9  H   UNL     1       7.377  -2.977  26.556  0.00  0.00    +0.147 HD
BRANCH   7  10
ATOM     10  C   UNL     1       7.523  -5.589  26.976  0.00  0.00    +0.351 C 
ATOM     11  OXT UNL     1       7.286  -5.918  28.122  0.00  0.00    -0.244 OA
BRANCH  10  12
ATOM     12  O   UNL     1       8.698  -5.840  26.350  0.00  0.00    -0.476 OA
ATOM     13  H   UNL     1       9.053  -4.994  26.000  0.00  0.00    +0.295 HD
ENDBRANCH  10  12
ENDBRANCH   7  10
ENDBRANCH   1   2
BRANCH   1  14
ATOM     14  N   UNL     1       8.209  -2.307  22.781  0.00  0.00    -0.303 N 
ATOM     15  H   UNL     1       8.048  -1.736  21.956  0.00  0.00    +0.149 HD
ATOM     16  C   UNL     1       9.490  -2.512  23.231  0.00  0.00    +0.218 C 
ATOM     17  O   UNL     1       9.755  -3.362  24.077  0.00  0.00    -0.275 OA
BRANCH  16  18
ATOM     18  C   UNL     1      10.534  -1.595  22.614  0.00  0.00    +0.138 C 
BRANCH  18  19
ATOM     19  C   UNL     1      10.236  -0.179  22.996  0.00  0.00    -0.001 A 
ATOM     20  S   UNL     1      10.313   0.312  24.636  0.00  0.00    -0.101 S 
ATOM     21  C   UNL     1       9.912   1.925  24.235  0.00  0.00    +0.045 A 
ATOM     22  C   UNL     1       9.709   2.088  22.884  0.00  0.00    +0.008 A 
ATOM     23  C   UNL     1       9.893   0.871  22.167  0.00  0.00    +0.011 A 
ENDBRANCH  18  19
ENDBRANCH  16  18
ENDBRANCH   1  14
BRANCH   1  24
ATOM     24  C   UNL     1       5.976  -2.946  22.225  0.00  0.00    +0.248 C 
ATOM     25  O   UNL     1       5.650  -3.828  21.432  0.00  0.00    -0.299 OA
ENDBRANCH   1  24
TORSDOF 7
ENDMDL
MODEL 2
REMARK VINA RESULT:      -6.5      2.073      3.345
REMARK  Name = 
REMARK  8 active torsions:
REMARK  status: ('A' for Active; 'I' for Inactive)
REMARK    1  A    between atoms: CA_2  and  N_3
REMARK    2  A    between atoms: CA_2  and  C_12
REMARK    3  A    between atoms: CA_2  and  C_14
REMARK    4  A    between atoms: C_4  and  C_6
REMARK    5  A    between atoms: C_6  and  C_7
REMARK    6  A    between atoms: CA_17  and  C_18
REMARK    7  A    between atoms: C_18  and  O_19
REMARK    8  A    between atoms: C_21  and  C_22
REMARK                            x       y       z     vdW  Elec       q    Type
REMARK                         _______ _______ _______ _____ _____    ______ ____
ROOT
ATOM      1  CA  UNL     1       7.721  -2.969  25.044  0.00  0.00    +0.166 C 
ENDROOT
BRANCH   1   2
ATOM      2  C   UNL     1       7.720  -4.518  25.019  0.00  0.00    +0.156 C 
ATOM      3  S   UNL     1       6.620  -5.311  26.218  0.00  0.00    -0.132 S 
ATOM      4  C   UNL     1       5.049  -4.822  25.480  0.00  0.00    +0.103 C 
ATOM      5  C   UNL     1       4.980  -4.976  23.981  0.00  0.00    -0.035 C 
ATOM      6  C   UNL     1       3.551  -4.940  23.493  0.00  0.00    +0.042 C 
ATOM      7  CA  UNL     1       6.075  -5.125  23.202  0.00  0.00    +0.113 C 
ATOM      8  N   UNL     1       7.391  -5.021  23.684  0.00  0.00    -0.325 N 
ATOM      9  H   UNL     1       7.911  -5.873  23.455  0.00  0.00    +0.147 HD
BRANCH   7  10
ATOM     10  C   UNL     1       5.969  -5.413  21.712  0.00  0.00    +0.351 C 
ATOM     11  OXT UNL     1       5.862  -4.599  20.815  0.00  0.00    -0.244 OA
BRANCH  10  12
ATOM     12  O   UNL     1       5.918  -6.753  21.521  0.00  0.00    -0.476 OA
ATOM     13  H   UNL     1       6.740  -7.152  21.881  0.00  0.00    +0.295 HD
ENDBRANCH  10  12
ENDBRANCH   7  10
ENDBRANCH   1   2
BRANCH   1  14
ATOM     14  N   UNL     1       8.924  -2.413  24.402  0.00  0.00    -0.303 N 
ATOM     15  H   UNL     1       9.658  -2.078  25.020  0.00  0.00    +0.149 HD
ATOM     16  C   UNL     1       8.956  -2.093  23.067  0.00  0.00    +0.218 C 
ATOM     17  O   UNL     1       7.993  -2.280  22.329  0.00  0.00    -0.275 OA
BRANCH  16  18
ATOM     18  C   UNL     1      10.276  -1.512  22.584  0.00  0.00    +0.138 C 
BRANCH  18  19
ATOM     19  C   UNL     1      10.269  -0.030  22.790  0.00  0.00    -0.001 A 
ATOM     20  S   UNL     1      10.787   0.640  24.280  0.00  0.00    -0.101 S 
ATOM     21  C   UNL     1      10.529   2.236  23.721  0.00  0.00    +0.045 A 
ATOM     22  C   UNL     1      10.045   2.262  22.433  0.00  0.00    +0.008 A 
ATOM     23  C   UNL     1       9.892   0.952  21.895  0.00  0.00    +0.011 A 
ENDBRANCH  18  19
ENDBRANCH  16  18
ENDBRANCH   1  14
BRANCH   1  24
ATOM     24  C   UNL     1       7.729  -2.451  26.469  0.00  0.00    +0.248 C 
ATOM     25  O   UNL     1       8.548  -1.633  26.886  0.00  0.00    -0.299 OA
ENDBRANCH   1  24
TORSDOF 7
ENDMDL
MODEL 3
REMARK VINA RESULT:      -5.9      2.489      6.097
REMARK  Name = 
REMARK  8 active torsions:
REMARK  status: ('A' for Active; 'I' for Inactive)
REMARK    1  A    between atoms: CA_2  and  N_3
REMARK    2  A    between atoms: CA_2  and  C_12
REMARK    3  A    between atoms: CA_2  and  C_14
REMARK    4  A    between atoms: C_4  and  C_6
REMARK    5  A    between atoms: C_6  and  C_7
REMARK    6  A    between atoms: CA_17  and  C_18
REMARK    7  A    between atoms: C_18  and  O_19
REMARK    8  A    between atoms: C_21  and  C_22
REMARK                            x       y       z     vdW  Elec       q    Type
REMARK                         _______ _______ _______ _____ _____    ______ ____
ROOT
ATOM      1  CA  UNL     1       6.495  -1.008  25.521  0.00  0.00    +0.166 C 
ENDROOT
BRANCH   1   2
ATOM      2  C   UNL     1       6.625  -0.436  24.086  0.00  0.00    +0.156 C 
ATOM      3  S   UNL     1       6.916   1.347  23.988  0.00  0.00    -0.132 S 
ATOM      4  C   UNL     1       8.589   1.368  24.662  0.00  0.00    +0.103 C 
ATOM      5  C   UNL     1       9.499   0.292  24.123  0.00  0.00    -0.035 C 
ATOM      6  C   UNL     1      10.948   0.609  24.410  0.00  0.00    +0.042 C 
ATOM      7  CA  UNL     1       9.047  -0.802  23.472  0.00  0.00    +0.113 C 
ATOM      8  N   UNL     1       7.684  -1.120  23.343  0.00  0.00    -0.325 N 
ATOM      9  H   UNL     1       7.448  -1.232  22.353  0.00  0.00    +0.147 HD
BRANCH   7  10
ATOM     10  C   UNL     1       9.993  -1.800  22.823  0.00  0.00    +0.351 C 
ATOM     11  OXT UNL     1      10.548  -2.739  23.359  0.00  0.00    -0.244 OA
BRANCH  10  12
ATOM     12  O   UNL     1      10.211  -1.434  21.536  0.00  0.00    -0.476 OA
ATOM     13  H   UNL     1      11.000  -0.851  21.506  0.00  0.00    +0.295 HD
ENDBRANCH  10  12
ENDBRANCH   7  10
ENDBRANCH   1   2
BRANCH   1  14
ATOM     14  N   UNL     1       6.251  -2.461  25.509  0.00  0.00    -0.303 N 
ATOM     15  H   UNL     1       5.281  -2.761  25.485  0.00  0.00    +0.149 HD
ATOM     16  C   UNL     1       7.241  -3.367  25.802  0.00  0.00    +0.218 C 
ATOM     17  O   UNL     1       8.389  -3.018  26.060  0.00  0.00    -0.275 OA
BRANCH  16  18
ATOM     18  C   UNL     1       6.801  -4.822  25.760  0.00  0.00    +0.138 C 
BRANCH  18  19
ATOM     19  C   UNL     1       6.438  -5.189  24.354  0.00  0.00    -0.001 A 
ATOM     20  S   UNL     1       7.572  -4.988  23.086  0.00  0.00    -0.101 S 
ATOM     21  C   UNL     1       6.481  -5.618  21.929  0.00  0.00    +0.045 A 
ATOM     22  C   UNL     1       5.272  -5.962  22.491  0.00  0.00    +0.008 A 
ATOM     23  C   UNL     1       5.246  -5.712  23.893  0.00  0.00    +0.011 A 
ENDBRANCH  18  19
ENDBRANCH  16  18
ENDBRANCH   1  14
BRANCH   1  24
ATOM     24  C   UNL     1       5.313  -0.392  26.244  0.00  0.00    +0.248 C 
ATOM     25  O   UNL     1       4.144  -0.701  26.015  0.00  0.00    -0.299 OA
ENDBRANCH   1  24
TORSDOF 7
ENDMDL
MODEL 4
REMARK VINA RESULT:      -5.9      1.992      2.340
REMARK  Name = 
REMARK  8 active torsions:
REMARK  status: ('A' for Active; 'I' for Inactive)
REMARK    1  A    between atoms: CA_2  and  N_3
REMARK    2  A    between atoms: CA_2  and  C_12
REMARK    3  A    between atoms: CA_2  and  C_14
REMARK    4  A    between atoms: C_4  and  C_6
REMARK    5  A    between atoms: C_6  and  C_7
REMARK    6  A    between atoms: CA_17  and  C_18
REMARK    7  A    between atoms: C_18  and  O_19
REMARK    8  A    between atoms: C_21  and  C_22
REMARK                            x       y       z     vdW  Elec       q    Type
REMARK                         _______ _______ _______ _____ _____    ______ ____
ROOT
ATOM      1  CA  UNL     1       6.129  -1.253  24.709  0.00  0.00    +0.166 C 
ENDROOT
BRANCH   1   2
ATOM      2  C   UNL     1       5.778  -2.300  25.797  0.00  0.00    +0.156 C 
ATOM      3  S   UNL     1       4.220  -3.185  25.545  0.00  0.00    -0.132 S 
ATOM      4  C   UNL     1       4.707  -4.147  24.099  0.00  0.00    +0.103 C 
ATOM      5  C   UNL     1       6.076  -4.774  24.190  0.00  0.00    -0.035 C 
ATOM      6  C   UNL     1       6.247  -5.864  23.158  0.00  0.00    +0.042 C 
ATOM      7  CA  UNL     1       7.008  -4.389  25.090  0.00  0.00    +0.113 C 
ATOM      8  N   UNL     1       6.852  -3.283  25.944  0.00  0.00    -0.325 N 
ATOM      9  H   UNL     1       6.972  -3.579  26.917  0.00  0.00    +0.147 HD
BRANCH   7  10
ATOM     10  C   UNL     1       8.327  -5.128  25.249  0.00  0.00    +0.351 C 
ATOM     11  OXT UNL     1       9.270  -5.117  24.481  0.00  0.00    -0.244 OA
BRANCH  10  12
ATOM     12  O   UNL     1       8.273  -5.901  26.360  0.00  0.00    -0.476 OA
ATOM     13  H   UNL     1       8.613  -6.795  26.137  0.00  0.00    +0.295 HD
ENDBRANCH  10  12
ENDBRANCH   7  10
ENDBRANCH   1   2
BRANCH   1  14
ATOM     14  N   UNL     1       7.580  -1.185  24.465  0.00  0.00    -0.303 N 
ATOM     15  H   UNL     1       8.127  -0.630  25.117  0.00  0.00    +0.149 HD
ATOM     16  C   UNL     1       8.139  -1.596  23.280  0.00  0.00    +0.218 C 
ATOM     17  O   UNL     1       7.464  -2.071  22.370  0.00  0.00    -0.275 OA
BRANCH  16  18
ATOM     18  C   UNL     1       9.648  -1.433  23.200  0.00  0.00    +0.138 C 
BRANCH  18  19
ATOM     19  C   UNL     1       9.983   0.021  23.087  0.00  0.00    -0.001 A 
ATOM     20  S   UNL     1      10.649   0.863  24.422  0.00  0.00    -0.101 S 
ATOM     21  C   UNL     1      10.762   2.316  23.527  0.00  0.00    +0.045 A 
ATOM     22  C   UNL     1      10.290   2.171  22.242  0.00  0.00    +0.008 A 
ATOM     23  C   UNL     1       9.838   0.845  21.988  0.00  0.00    +0.011 A 
ENDBRANCH  18  19
ENDBRANCH  16  18
ENDBRANCH   1  14
BRANCH   1  24
ATOM     24  C   UNL     1       5.712   0.139  25.143  0.00  0.00    +0.248 C 
ATOM     25  O   UNL     1       4.563   0.429  25.472  0.00  0.00    -0.299 OA
ENDBRANCH   1  24
TORSDOF 7
ENDMDL
MODEL 5
REMARK VINA RESULT:      -5.7      3.028      6.146
REMARK  Name = 
REMARK  8 active torsions:
REMARK  status: ('A' for Active; 'I' for Inactive)
REMARK    1  A    between atoms: CA_2  and  N_3
REMARK    2  A    between atoms: CA_2  and  C_12
REMARK    3  A    between atoms: CA_2  and  C_14
REMARK    4  A    between atoms: C_4  and  C_6
REMARK    5  A    between atoms: C_6  and  C_7
REMARK    6  A    between atoms: CA_17  and  C_18
REMARK    7  A    between atoms: C_18  and  O_19
REMARK    8  A    between atoms: C_21  and  C_22
REMARK                            x       y       z     vdW  Elec       q    Type
REMARK                         _______ _______ _______ _____ _____    ______ ____
ROOT
ATOM      1  CA  UNL     1       9.262  -1.009  23.388  0.00  0.00    +0.166 C 
ENDROOT
BRANCH   1   2
ATOM      2  C   UNL     1      10.043  -0.379  24.570  0.00  0.00    +0.156 C 
ATOM      3  S   UNL     1      10.668   1.294  24.281  0.00  0.00    -0.132 S 
ATOM      4  C   UNL     1       9.082   2.153  24.246  0.00  0.00    +0.103 C 
ATOM      5  C   UNL     1       8.119   1.744  25.333  0.00  0.00    -0.035 C 
ATOM      6  C   UNL     1       7.010   2.759  25.490  0.00  0.00    +0.042 C 
ATOM      7  CA  UNL     1       8.258   0.611  26.056  0.00  0.00    +0.113 C 
ATOM      8  N   UNL     1       9.230  -0.367  25.787  0.00  0.00    -0.325 N 
ATOM      9  H   UNL     1       9.793  -0.535  26.627  0.00  0.00    +0.147 HD
BRANCH   7  10
ATOM     10  C   UNL     1       7.350   0.293  27.234  0.00  0.00    +0.351 C 
ATOM     11  OXT UNL     1       7.421   0.750  28.358  0.00  0.00    -0.244 OA
BRANCH  10  12
ATOM     12  O   UNL     1       6.472  -0.674  26.871  0.00  0.00    -0.476 OA
ATOM     13  H   UNL     1       6.092  -1.072  27.684  0.00  0.00    +0.295 HD
ENDBRANCH  10  12
ENDBRANCH   7  10
ENDBRANCH   1   2
BRANCH   1  14
ATOM     14  N   UNL     1       9.205  -2.477  23.492  0.00  0.00    -0.303 N 
ATOM     15  H   UNL     1       9.805  -3.003  22.862  0.00  0.00    +0.149 HD
ATOM     16  C   UNL     1       8.208  -3.120  24.183  0.00  0.00    +0.218 C 
ATOM     17  O   UNL     1       7.326  -2.506  24.777  0.00  0.00    -0.275 OA
BRANCH  16  18
ATOM     18  C   UNL     1       8.300  -4.638  24.165  0.00  0.00    +0.138 C 
BRANCH  18  19
ATOM     19  C   UNL     1       7.210  -5.189  23.300  0.00  0.00    -0.001 A 
ATOM     20  S   UNL     1       5.655  -5.493  23.953  0.00  0.00    -0.101 S 
ATOM     21  C   UNL     1       5.057  -6.020  22.440  0.00  0.00    +0.045 A 
ATOM     22  C   UNL     1       6.021  -5.981  21.459  0.00  0.00    +0.008 A 
ATOM     23  C   UNL     1       7.267  -5.502  21.956  0.00  0.00    +0.011 A 
ENDBRANCH  18  19
ENDBRANCH  16  18
ENDBRANCH   1  14
BRANCH   1  24
ATOM     24  C   UNL     1       9.945  -0.709  22.068  0.00  0.00    +0.248 C 
ATOM     25  O   UNL     1       9.401  -0.101  21.148  0.00  0.00    -0.299 OA
ENDBRANCH   1  24
TORSDOF 7
ENDMDL
MODEL 6
REMARK VINA RESULT:      -5.7      2.373      2.887
REMARK  Name = 
REMARK  8 active torsions:
REMARK  status: ('A' for Active; 'I' for Inactive)
REMARK    1  A    between atoms: CA_2  and  N_3
REMARK    2  A    between atoms: CA_2  and  C_12
REMARK    3  A    between atoms: CA_2  and  C_14
REMARK    4  A    between atoms: C_4  and  C_6
REMARK    5  A    between atoms: C_6  and  C_7
REMARK    6  A    between atoms: CA_17  and  C_18
REMARK    7  A    between atoms: C_18  and  O_19
REMARK    8  A    between atoms: C_21  and  C_22
REMARK                            x       y       z     vdW  Elec       q    Type
REMARK                         _______ _______ _______ _____ _____    ______ ____
ROOT
ATOM      1  CA  UNL     1       6.860  -4.652  23.324  0.00  0.00    +0.166 C 
ENDROOT
BRANCH   1   2
ATOM      2  C   UNL     1       5.537  -3.903  23.027  0.00  0.00    +0.156 C 
ATOM      3  S   UNL     1       4.029  -4.877  23.254  0.00  0.00    -0.132 S 
ATOM      4  C   UNL     1       4.096  -5.031  25.050  0.00  0.00    +0.103 C 
ATOM      5  C   UNL     1       4.445  -3.759  25.780  0.00  0.00    -0.035 C 
ATOM      6  C   UNL     1       4.094  -3.856  27.247  0.00  0.00    +0.042 C 
ATOM      7  CA  UNL     1       5.000  -2.686  25.174  0.00  0.00    +0.113 C 
ATOM      8  N   UNL     1       5.430  -2.687  23.836  0.00  0.00    -0.325 N 
ATOM      9  H   UNL     1       4.975  -1.925  23.326  0.00  0.00    +0.147 HD
BRANCH   7  10
ATOM     10  C   UNL     1       5.216  -1.370  25.905  0.00  0.00    +0.351 C 
ATOM     11  OXT UNL     1       4.496  -0.392  25.881  0.00  0.00    -0.244 OA
BRANCH  10  12
ATOM     12  O   UNL     1       6.412  -1.407  26.542  0.00  0.00    -0.476 OA
ATOM     13  H   UNL     1       6.863  -0.545  26.410  0.00  0.00    +0.295 HD
ENDBRANCH  10  12
ENDBRANCH   7  10
ENDBRANCH   1   2
BRANCH   1  14
ATOM     14  N   UNL     1       8.035  -3.787  23.120  0.00  0.00    -0.303 N 
ATOM     15  H   UNL     1       8.457  -3.800  22.196  0.00  0.00    +0.149 HD
ATOM     16  C   UNL     1       8.707  -3.213  24.171  0.00  0.00    +0.218 C 
ATOM     17  O   UNL     1       8.349  -3.365  25.336  0.00  0.00    -0.275 OA
BRANCH  16  18
ATOM     18  C   UNL     1       9.907  -2.368  23.772  0.00  0.00    +0.138 C 
BRANCH  18  19
ATOM     19  C   UNL     1       9.433  -1.150  23.042  0.00  0.00    -0.001 A 
ATOM     20  S   UNL     1       8.302  -0.089  23.771  0.00  0.00    -0.101 S 
ATOM     21  C   UNL     1       8.324   0.960  22.420  0.00  0.00    +0.045 A 
ATOM     22  C   UNL     1       9.163   0.507  21.427  0.00  0.00    +0.008 A 
ATOM     23  C   UNL     1       9.802  -0.714  21.785  0.00  0.00    +0.011 A 
ENDBRANCH  18  19
ENDBRANCH  16  18
ENDBRANCH   1  14
BRANCH   1  24
ATOM     24  C   UNL     1       7.039  -5.827  22.382  0.00  0.00    +0.248 C 
ATOM     25  O   UNL     1       6.894  -5.746  21.163  0.00  0.00    -0.299 OA
ENDBRANCH   1  24
TORSDOF 7
ENDMDL
MODEL 7
REMARK VINA RESULT:      -5.7      3.223      6.966
REMARK  Name = 
REMARK  8 active torsions:
REMARK  status: ('A' for Active; 'I' for Inactive)
REMARK    1  A    between atoms: CA_2  and  N_3
REMARK    2  A    between atoms: CA_2  and  C_12
REMARK    3  A    between atoms: CA_2  and  C_14
REMARK    4  A    between atoms: C_4  and  C_6
REMARK    5  A    between atoms: C_6  and  C_7
REMARK    6  A    between atoms: CA_17  and  C_18
REMARK    7  A    between atoms: C_18  and  O_19
REMARK    8  A    between atoms: C_21  and  C_22
REMARK                            x       y       z     vdW  Elec       q    Type
REMARK                         _______ _______ _______ _____ _____    ______ ____
ROOT
ATOM      1  CA  UNL     1       8.858  -0.403  23.260  0.00  0.00    +0.166 C 
ENDROOT
BRANCH   1   2
ATOM      2  C   UNL     1       9.080   0.622  24.401  0.00  0.00    +0.156 C 
ATOM      3  S   UNL     1      10.250   1.951  24.030  0.00  0.00    -0.132 S 
ATOM      4  C   UNL     1       9.263   2.819  22.795  0.00  0.00    +0.103 C 
ATOM      5  C   UNL     1       7.810   2.996  23.159  0.00  0.00    -0.035 C 
ATOM      6  C   UNL     1       7.156   4.053  22.299  0.00  0.00    +0.042 C 
ATOM      7  CA  UNL     1       7.200   2.286  24.134  0.00  0.00    +0.113 C 
ATOM      8  N   UNL     1       7.812   1.223  24.818  0.00  0.00    -0.325 N 
ATOM      9  H   UNL     1       7.784   1.400  25.827  0.00  0.00    +0.147 HD
BRANCH   7  10
ATOM     10  C   UNL     1       5.773   2.580  24.570  0.00  0.00    +0.351 C 
ATOM     11  OXT UNL     1       5.401   3.476  25.303  0.00  0.00    -0.244 OA
BRANCH  10  12
ATOM     12  O   UNL     1       4.952   1.619  24.082  0.00  0.00    -0.476 OA
ATOM     13  H   UNL     1       4.889   1.725  23.108  0.00  0.00    +0.295 HD
ENDBRANCH  10  12
ENDBRANCH   7  10
ENDBRANCH   1   2
BRANCH   1  14
ATOM     14  N   UNL     1       8.386  -1.700  23.775  0.00  0.00    -0.303 N 
ATOM     15  H   UNL     1       9.047  -2.471  23.748  0.00  0.00    +0.149 HD
ATOM     16  C   UNL     1       7.056  -1.947  24.015  0.00  0.00    +0.218 C 
ATOM     17  O   UNL     1       6.192  -1.092  23.841  0.00  0.00    -0.275 OA
BRANCH  16  18
ATOM     18  C   UNL     1       6.753  -3.347  24.526  0.00  0.00    +0.138 C 
BRANCH  18  19
ATOM     19  C   UNL     1       6.737  -4.302  23.373  0.00  0.00    -0.001 A 
ATOM     20  S   UNL     1       5.658  -4.061  22.064  0.00  0.00    -0.101 S 
ATOM     21  C   UNL     1       6.256  -5.435  21.240  0.00  0.00    +0.045 A 
ATOM     22  C   UNL     1       7.247  -6.074  21.949  0.00  0.00    +0.008 A 
ATOM     23  C   UNL     1       7.524  -5.420  23.184  0.00  0.00    +0.011 A 
ENDBRANCH  18  19
ENDBRANCH  16  18
ENDBRANCH   1  14
BRANCH   1  24
ATOM     24  C   UNL     1      10.157  -0.691  22.532  0.00  0.00    +0.248 C 
ATOM     25  O   UNL     1      10.574  -1.828  22.316  0.00  0.00    -0.299 OA
ENDBRANCH   1  24
TORSDOF 7
ENDMDL
MODEL 8
REMARK VINA RESULT:      -5.6      2.829      6.171
REMARK  Name = 
REMARK  8 active torsions:
REMARK  status: ('A' for Active; 'I' for Inactive)
REMARK    1  A    between atoms: CA_2  and  N_3
REMARK    2  A    between atoms: CA_2  and  C_12
REMARK    3  A    between atoms: CA_2  and  C_14
REMARK    4  A    between atoms: C_4  and  C_6
REMARK    5  A    between atoms: C_6  and  C_7
REMARK    6  A    between atoms: CA_17  and  C_18
REMARK    7  A    between atoms: C_18  and  O_19
REMARK    8  A    between atoms: C_21  and  C_22
REMARK                            x       y       z     vdW  Elec       q    Type
REMARK                         _______ _______ _______ _____ _____    ______ ____
ROOT
ATOM      1  CA  UNL     1       9.100  -1.281  23.347  0.00  0.00    +0.166 C 
ENDROOT
BRANCH   1   2
ATOM      2  C   UNL     1       9.910  -0.775  24.567  0.00  0.00    +0.156 C 
ATOM      3  S   UNL     1      10.742   0.815  24.338  0.00  0.00    -0.132 S 
ATOM      4  C   UNL     1       9.274   1.861  24.276  0.00  0.00    +0.103 C 
ATOM      5  C   UNL     1       8.233   1.550  25.322  0.00  0.00    -0.035 C 
ATOM      6  C   UNL     1       7.249   2.688  25.469  0.00  0.00    +0.042 C 
ATOM      7  CA  UNL     1       8.209   0.394  26.021  0.00  0.00    +0.113 C 
ATOM      8  N   UNL     1       9.065  -0.690  25.758  0.00  0.00    -0.325 N 
ATOM      9  H   UNL     1       9.574  -0.941  26.611  0.00  0.00    +0.147 HD
BRANCH   7  10
ATOM     10  C   UNL     1       7.230   0.164  27.162  0.00  0.00    +0.351 C 
ATOM     11  OXT UNL     1       7.296   0.620  28.287  0.00  0.00    -0.244 OA
BRANCH  10  12
ATOM     12  O   UNL     1       6.285  -0.724  26.765  0.00  0.00    -0.476 OA
ATOM     13  H   UNL     1       5.838  -1.082  27.563  0.00  0.00    +0.295 HD
ENDBRANCH  10  12
ENDBRANCH   7  10
ENDBRANCH   1   2
BRANCH   1  14
ATOM     14  N   UNL     1       8.813  -2.722  23.441  0.00  0.00    -0.303 N 
ATOM     15  H   UNL     1       9.427  -3.345  22.925  0.00  0.00    +0.149 HD
ATOM     16  C   UNL     1       7.629  -3.197  23.951  0.00  0.00    +0.218 C 
ATOM     17  O   UNL     1       6.758  -2.447  24.384  0.00  0.00    -0.275 OA
BRANCH  16  18
ATOM     18  C   UNL     1       7.501  -4.712  23.952  0.00  0.00    +0.138 C 
BRANCH  18  19
ATOM     19  C   UNL     1       6.968  -5.163  25.277  0.00  0.00    -0.001 A 
ATOM     20  S   UNL     1       7.910  -4.978  26.697  0.00  0.00    -0.101 S 
ATOM     21  C   UNL     1       6.673  -5.641  27.675  0.00  0.00    +0.045 A 
ATOM     22  C   UNL     1       5.571  -6.010  26.938  0.00  0.00    +0.008 A 
ATOM     23  C   UNL     1       5.742  -5.736  25.551  0.00  0.00    +0.011 A 
ENDBRANCH  18  19
ENDBRANCH  16  18
ENDBRANCH   1  14
BRANCH   1  24
ATOM     24  C   UNL     1       9.884  -1.094  22.062  0.00  0.00    +0.248 C 
ATOM     25  O   UNL     1       9.516  -0.361  21.145  0.00  0.00    -0.299 OA
ENDBRANCH   1  24
TORSDOF 7
ENDMDL
MODEL 9
REMARK VINA RESULT:      -5.6      2.478      3.713
REMARK  Name = 
REMARK  8 active torsions:
REMARK  status: ('A' for Active; 'I' for Inactive)
REMARK    1  A    between atoms: CA_2  and  N_3
REMARK    2  A    between atoms: CA_2  and  C_12
REMARK    3  A    between atoms: CA_2  and  C_14
REMARK    4  A    between atoms: C_4  and  C_6
REMARK    5  A    between atoms: C_6  and  C_7
REMARK    6  A    between atoms: CA_17  and  C_18
REMARK    7  A    between atoms: C_18  and  O_19
REMARK    8  A    between atoms: C_21  and  C_22
REMARK                            x       y       z     vdW  Elec       q    Type
REMARK                         _______ _______ _______ _____ _____    ______ ____
ROOT
ATOM      1  CA  UNL     1       7.230  -3.332  23.647  0.00  0.00    +0.166 C 
ENDROOT
BRANCH   1   2
ATOM      2  C   UNL     1       5.788  -2.784  23.497  0.00  0.00    +0.156 C 
ATOM      3  S   UNL     1       4.573  -3.477  24.644  0.00  0.00    -0.132 S 
ATOM      4  C   UNL     1       5.208  -2.736  26.162  0.00  0.00    +0.103 C 
ATOM      5  C   UNL     1       5.583  -1.280  26.044  0.00  0.00    -0.035 C 
ATOM      6  C   UNL     1       5.715  -0.638  27.406  0.00  0.00    +0.042 C 
ATOM      7  CA  UNL     1       5.771  -0.658  24.859  0.00  0.00    +0.113 C 
ATOM      8  N   UNL     1       5.767  -1.326  23.623  0.00  0.00    -0.325 N 
ATOM      9  H   UNL     1       5.075  -0.896  23.001  0.00  0.00    +0.147 HD
BRANCH   7  10
ATOM     10  C   UNL     1       6.015   0.841  24.767  0.00  0.00    +0.351 C 
ATOM     11  OXT UNL     1       7.013   1.443  25.114  0.00  0.00    -0.244 OA
BRANCH  10  12
ATOM     12  O   UNL     1       4.893   1.447  24.310  0.00  0.00    -0.476 OA
ATOM     13  H   UNL     1       4.113   0.996  24.700  0.00  0.00    +0.295 HD
ENDBRANCH  10  12
ENDBRANCH   7  10
ENDBRANCH   1   2
BRANCH   1  14
ATOM     14  N   UNL     1       8.211  -2.491  22.940  0.00  0.00    -0.303 N 
ATOM     15  H   UNL     1       7.906  -2.068  22.068  0.00  0.00    +0.149 HD
ATOM     16  C   UNL     1       9.545  -2.496  23.268  0.00  0.00    +0.218 C 
ATOM     17  O   UNL     1       9.988  -3.179  24.187  0.00  0.00    -0.275 OA
BRANCH  16  18
ATOM     18  C   UNL     1      10.411  -1.580  22.417  0.00  0.00    +0.138 C 
BRANCH  18  19
ATOM     19  C   UNL     1      10.276  -0.173  22.911  0.00  0.00    -0.001 A 
ATOM     20  S   UNL     1       9.613   1.040  21.900  0.00  0.00    -0.101 S 
ATOM     21  C   UNL     1       9.765   2.227  23.123  0.00  0.00    +0.045 A 
ATOM     22  C   UNL     1      10.322   1.716  24.273  0.00  0.00    +0.008 A 
ATOM     23  C   UNL     1      10.620   0.329  24.151  0.00  0.00    +0.011 A 
ENDBRANCH  18  19
ENDBRANCH  16  18
ENDBRANCH   1  14
BRANCH   1  24
ATOM     24  C   UNL     1       7.349  -4.715  23.038  0.00  0.00    +0.248 C 
ATOM     25  O   UNL     1       7.290  -4.929  21.828  0.00  0.00    -0.299 OA
ENDBRANCH   1  24
TORSDOF 7
ENDMDL
