MODEL 1
REMARK VINA RESULT:      -6.6      0.000      0.000
REMARK  Name = 
REMARK  7 active torsions:
REMARK  status: ('A' for Active; 'I' for Inactive)
REMARK    1  A    between atoms: C_1  and  O_2
REMARK    2  A    between atoms: O_2  and  C_3
REMARK    3  A    between atoms: C_9  and  N_10
REMARK    4  A    between atoms: N_10  and  C_11
REMARK    5  A    between atoms: C_13  and  O_14
REMARK    6  A    between atoms: C_20  and  O_21
REMARK    7  A    between atoms: O_21  and  C_22
REMARK                            x       y       z     vdW  Elec       q    Type
REMARK                         _______ _______ _______ _____ _____    ______ ____
ROOT
ATOM      1  C   UNL     1       4.141  -6.110  23.825  0.00  0.00    +0.164 A 
ATOM      2  C   UNL     1       5.300  -5.548  23.272  0.00  0.00    +0.162 A 
ATOM      3  C   UNL     1       6.379  -5.264  24.111  0.00  0.00    +0.062 A 
ATOM      4  C   UNL     1       6.311  -5.534  25.504  0.00  0.00    +0.044 A 
ATOM      5  C   UNL     1       5.130  -6.052  26.048  0.00  0.00    +0.080 A 
ATOM      6  N   UNL     1       4.982  -6.320  27.348  0.00  0.00    -0.235 NA
ATOM      7  C   UNL     1       6.039  -6.096  28.131  0.00  0.00    +0.223 A 
ATOM      8  N   UNL     1       7.229  -5.648  27.731  0.00  0.00    -0.220 NA
ATOM      9  C   UNL     1       7.368  -5.373  26.419  0.00  0.00    +0.134 A 
ATOM     10  C   UNL     1       4.065  -6.324  25.205  0.00  0.00    +0.078 A 
ENDROOT
BRANCH   1  12
ATOM     11  C   UNL     1       1.927  -5.611  23.152  0.00  0.00    +0.277 C 
ATOM     12  O   UNL     1       3.106  -6.389  22.966  0.00  0.00    -0.491 OA
ENDBRANCH   1  12
BRANCH   2  13
ATOM     13  O   UNL     1       5.290  -5.351  21.916  0.00  0.00    -0.491 OA
ATOM     14  C   UNL     1       6.444  -5.728  21.180  0.00  0.00    +0.277 C 
ENDBRANCH   2  13
BRANCH   9  15
ATOM     15  N   UNL     1       8.636  -4.930  25.959  0.00  0.00    -0.299 N 
ATOM     16  H   UNL     1       9.075  -5.660  25.409  0.00  0.00    +0.154 HD
BRANCH  15  17
ATOM     17  C   UNL     1       8.934  -3.627  25.496  0.00  0.00    +0.036 A 
ATOM     18  C   UNL     1       8.460  -2.505  26.187  0.00  0.00    +0.023 A 
ATOM     19  C   UNL     1       8.712  -1.213  25.711  0.00  0.00    +0.005 A 
ATOM     20  C   UNL     1       9.424  -1.028  24.528  0.00  0.00    +0.045 A 
ATOM     21  C   UNL     1       9.863  -2.136  23.819  0.00  0.00    +0.119 A 
ATOM     22  C   UNL     1       9.606  -3.423  24.281  0.00  0.00    +0.068 A 
BRANCH  21  23
ATOM     23  O   UNL     1      10.552  -1.927  22.660  0.00  0.00    -0.507 OA
ATOM     24  H   UNL     1      11.500  -1.914  22.872  0.00  0.00    +0.292 HD
ENDBRANCH  21  23
ENDBRANCH  15  17
ENDBRANCH   9  15
TORSDOF 5
ENDMDL
MODEL 2
REMARK VINA RESULT:      -6.6      2.477      3.410
REMARK  Name = 
REMARK  7 active torsions:
REMARK  status: ('A' for Active; 'I' for Inactive)
REMARK    1  A    between atoms: C_1  and  O_2
REMARK    2  A    between atoms: O_2  and  C_3
REMARK    3  A    between atoms: C_9  and  N_10
REMARK    4  A    between atoms: N_10  and  C_11
REMARK    5  A    between atoms: C_13  and  O_14
REMARK    6  A    between atoms: C_20  and  O_21
REMARK    7  A    between atoms: O_21  and  C_22
REMARK                            x       y       z     vdW  Elec       q    Type
REMARK                         _______ _______ _______ _____ _____    ______ ____
ROOT
ATOM      1  C   UNL     1       5.589  -5.749  24.191  0.00  0.00    +0.164 A 
ATOM      2  C   UNL     1       5.876  -5.114  22.975  0.00  0.00    +0.162 A 
ATOM      3  C   UNL     1       6.741  -4.017  22.974  0.00  0.00    +0.062 A 
ATOM      4  C   UNL     1       7.322  -3.545  24.181  0.00  0.00    +0.044 A 
ATOM      5  C   UNL     1       6.988  -4.160  25.393  0.00  0.00    +0.080 A 
ATOM      6  N   UNL     1       7.481  -3.767  26.570  0.00  0.00    -0.235 NA
ATOM      7  C   UNL     1       8.349  -2.754  26.549  0.00  0.00    +0.223 A 
ATOM      8  N   UNL     1       8.779  -2.114  25.462  0.00  0.00    -0.220 NA
ATOM      9  C   UNL     1       8.272  -2.512  24.278  0.00  0.00    +0.134 A 
ATOM     10  C   UNL     1       6.125  -5.244  25.381  0.00  0.00    +0.078 A 
ENDROOT
BRANCH   1  12
ATOM     11  C   UNL     1       4.065  -7.126  25.369  0.00  0.00    +0.277 C 
ATOM     12  O   UNL     1       4.746  -6.832  24.152  0.00  0.00    -0.491 OA
ENDBRANCH   1  12
BRANCH   2  13
ATOM     13  O   UNL     1       5.297  -5.656  21.858  0.00  0.00    -0.491 OA
ATOM     14  C   UNL     1       6.102  -5.803  20.697  0.00  0.00    +0.277 C 
ENDBRANCH   2  13
BRANCH   9  15
ATOM     15  N   UNL     1       8.742  -1.873  23.101  0.00  0.00    -0.299 N 
ATOM     16  H   UNL     1       8.632  -2.494  22.307  0.00  0.00    +0.154 HD
BRANCH  15  17
ATOM     17  C   UNL     1       8.552  -0.510  22.773  0.00  0.00    +0.036 A 
ATOM     18  C   UNL     1       7.273   0.060  22.831  0.00  0.00    +0.023 A 
ATOM     19  C   UNL     1       7.069   1.396  22.465  0.00  0.00    +0.005 A 
ATOM     20  C   UNL     1       8.136   2.171  22.016  0.00  0.00    +0.045 A 
ATOM     21  C   UNL     1       9.396   1.601  21.919  0.00  0.00    +0.119 A 
ATOM     22  C   UNL     1       9.604   0.271  22.271  0.00  0.00    +0.068 A 
BRANCH  21  23
ATOM     23  O   UNL     1      10.422   2.380  21.470  0.00  0.00    -0.507 OA
ATOM     24  H   UNL     1      10.247   3.295  21.745  0.00  0.00    +0.292 HD
ENDBRANCH  21  23
ENDBRANCH  15  17
ENDBRANCH   9  15
TORSDOF 5
ENDMDL
MODEL 3
REMARK VINA RESULT:      -6.4      3.342      4.373
REMARK  Name = 
REMARK  7 active torsions:
REMARK  status: ('A' for Active; 'I' for Inactive)
REMARK    1  A    between atoms: C_1  and  O_2
REMARK    2  A    between atoms: O_2  and  C_3
REMARK    3  A    between atoms: C_9  and  N_10
REMARK    4  A    between atoms: N_10  and  C_11
REMARK    5  A    between atoms: C_13  and  O_14
REMARK    6  A    between atoms: C_20  and  O_21
REMARK    7  A    between atoms: O_21  and  C_22
REMARK                            x       y       z     vdW  Elec       q    Type
REMARK                         _______ _______ _______ _____ _____    ______ ____
ROOT
ATOM      1  C   UNL     1       5.548  -3.223  26.851  0.00  0.00    +0.164 A 
ATOM      2  C   UNL     1       5.637  -2.191  25.906  0.00  0.00    +0.162 A 
ATOM      3  C   UNL     1       6.760  -2.129  25.078  0.00  0.00    +0.062 A 
ATOM      4  C   UNL     1       7.800  -3.090  25.186  0.00  0.00    +0.044 A 
ATOM      5  C   UNL     1       7.718  -4.087  26.166  0.00  0.00    +0.080 A 
ATOM      6  N   UNL     1       8.660  -5.017  26.340  0.00  0.00    -0.235 NA
ATOM      7  C   UNL     1       9.701  -4.981  25.507  0.00  0.00    +0.223 A 
ATOM      8  N   UNL     1       9.875  -4.114  24.509  0.00  0.00    -0.220 NA
ATOM      9  C   UNL     1       8.924  -3.174  24.344  0.00  0.00    +0.134 A 
ATOM     10  C   UNL     1       6.601  -4.133  26.985  0.00  0.00    +0.078 A 
ENDROOT
BRANCH   1  12
ATOM     11  C   UNL     1       4.466  -4.174  28.729  0.00  0.00    +0.277 C 
ATOM     12  O   UNL     1       4.423  -3.259  27.638  0.00  0.00    -0.491 OA
ENDBRANCH   1  12
BRANCH   2  13
ATOM     13  O   UNL     1       4.574  -1.328  25.850  0.00  0.00    -0.491 OA
ATOM     14  C   UNL     1       4.739  -0.033  26.408  0.00  0.00    +0.277 C 
ENDBRANCH   2  13
BRANCH   9  15
ATOM     15  N   UNL     1       9.065  -2.262  23.266  0.00  0.00    -0.299 N 
ATOM     16  H   UNL     1       8.258  -2.324  22.655  0.00  0.00    +0.154 HD
BRANCH  15  17
ATOM     17  C   UNL     1       9.592  -0.952  23.360  0.00  0.00    +0.036 A 
ATOM     18  C   UNL     1      10.134  -0.492  24.567  0.00  0.00    +0.023 A 
ATOM     19  C   UNL     1      10.616   0.817  24.682  0.00  0.00    +0.005 A 
ATOM     20  C   UNL     1      10.542   1.689  23.598  0.00  0.00    +0.045 A 
ATOM     21  C   UNL     1       9.972   1.252  22.412  0.00  0.00    +0.119 A 
ATOM     22  C   UNL     1       9.481  -0.045  22.295  0.00  0.00    +0.068 A 
BRANCH  21  23
ATOM     23  O   UNL     1       9.906   2.128  21.368  0.00  0.00    -0.507 OA
ATOM     24  H   UNL     1      10.731   2.052  20.860  0.00  0.00    +0.292 HD
ENDBRANCH  21  23
ENDBRANCH  15  17
ENDBRANCH   9  15
TORSDOF 5
ENDMDL
MODEL 4
REMARK VINA RESULT:      -6.4      2.432      3.749
REMARK  Name = 
REMARK  7 active torsions:
REMARK  status: ('A' for Active; 'I' for Inactive)
REMARK    1  A    between atoms: C_1  and  O_2
REMARK    2  A    between atoms: O_2  and  C_3
REMARK    3  A    between atoms: C_9  and  N_10
REMARK    4  A    between atoms: N_10  and  C_11
REMARK    5  A    between atoms: C_13  and  O_14
REMARK    6  A    between atoms: C_20  and  O_21
REMARK    7  A    between atoms: O_21  and  C_22
REMARK                            x       y       z     vdW  Elec       q    Type
REMARK                         _______ _______ _______ _____ _____    ______ ____
ROOT
ATOM      1  C   UNL     1       4.447  -6.498  25.346  0.00  0.00    +0.164 A 
ATOM      2  C   UNL     1       5.615  -6.269  26.084  0.00  0.00    +0.162 A 
ATOM      3  C   UNL     1       6.662  -5.559  25.490  0.00  0.00    +0.062 A 
ATOM      4  C   UNL     1       6.552  -5.077  24.158  0.00  0.00    +0.044 A 
ATOM      5  C   UNL     1       5.396  -5.355  23.418  0.00  0.00    +0.080 A 
ATOM      6  N   UNL     1       5.223  -4.950  22.158  0.00  0.00    -0.235 NA
ATOM      7  C   UNL     1       6.205  -4.225  21.620  0.00  0.00    +0.223 A 
ATOM      8  N   UNL     1       7.332  -3.857  22.230  0.00  0.00    -0.220 NA
ATOM      9  C   UNL     1       7.503  -4.276  23.500  0.00  0.00    +0.134 A 
ATOM     10  C   UNL     1       4.369  -6.064  24.018  0.00  0.00    +0.078 A 
ENDROOT
BRANCH   1  12
ATOM     11  C   UNL     1       2.496  -7.816  25.101  0.00  0.00    +0.277 C 
ATOM     12  O   UNL     1       3.434  -7.187  25.968  0.00  0.00    -0.491 OA
ENDBRANCH   1  12
BRANCH   2  13
ATOM     13  O   UNL     1       5.622  -6.742  27.371  0.00  0.00    -0.491 OA
ATOM     14  C   UNL     1       6.210  -5.928  28.375  0.00  0.00    +0.277 C 
ENDBRANCH   2  13
BRANCH   9  15
ATOM     15  N   UNL     1       8.676  -3.868  24.187  0.00  0.00    -0.299 N 
ATOM     16  H   UNL     1       9.474  -4.391  23.844  0.00  0.00    +0.154 HD
BRANCH  15  17
ATOM     17  C   UNL     1       8.996  -2.538  24.550  0.00  0.00    +0.036 A 
ATOM     18  C   UNL     1       9.800  -1.751  23.714  0.00  0.00    +0.023 A 
ATOM     19  C   UNL     1      10.159  -0.450  24.086  0.00  0.00    +0.005 A 
ATOM     20  C   UNL     1       9.737   0.072  25.306  0.00  0.00    +0.045 A 
ATOM     21  C   UNL     1       8.974  -0.716  26.155  0.00  0.00    +0.119 A 
ATOM     22  C   UNL     1       8.622  -2.014  25.796  0.00  0.00    +0.068 A 
BRANCH  21  23
ATOM     23  O   UNL     1       8.579  -0.183  27.347  0.00  0.00    -0.507 OA
ATOM     24  H   UNL     1       9.118  -0.586  28.049  0.00  0.00    +0.292 HD
ENDBRANCH  21  23
ENDBRANCH  15  17
ENDBRANCH   9  15
TORSDOF 5
ENDMDL
MODEL 5
REMARK VINA RESULT:      -6.4      2.613      3.193
REMARK  Name = 
REMARK  7 active torsions:
REMARK  status: ('A' for Active; 'I' for Inactive)
REMARK    1  A    between atoms: C_1  and  O_2
REMARK    2  A    between atoms: O_2  and  C_3
REMARK    3  A    between atoms: C_9  and  N_10
REMARK    4  A    between atoms: N_10  and  C_11
REMARK    5  A    between atoms: C_13  and  O_14
REMARK    6  A    between atoms: C_20  and  O_21
REMARK    7  A    between atoms: O_21  and  C_22
REMARK                            x       y       z     vdW  Elec       q    Type
REMARK                         _______ _______ _______ _____ _____    ______ ____
ROOT
ATOM      1  C   UNL     1       4.566  -4.173  23.349  0.00  0.00    +0.164 A 
ATOM      2  C   UNL     1       5.727  -3.951  22.596  0.00  0.00    +0.162 A 
ATOM      3  C   UNL     1       6.757  -3.189  23.152  0.00  0.00    +0.062 A 
ATOM      4  C   UNL     1       6.637  -2.643  24.457  0.00  0.00    +0.044 A 
ATOM      5  C   UNL     1       5.453  -2.835  25.179  0.00  0.00    +0.080 A 
ATOM      6  N   UNL     1       5.258  -2.343  26.404  0.00  0.00    -0.235 NA
ATOM      7  C   UNL     1       6.271  -1.664  26.947  0.00  0.00    +0.223 A 
ATOM      8  N   UNL     1       7.460  -1.450  26.385  0.00  0.00    -0.220 NA
ATOM      9  C   UNL     1       7.647  -1.944  25.144  0.00  0.00    +0.134 A 
ATOM     10  C   UNL     1       4.437  -3.588  24.613  0.00  0.00    +0.078 A 
ENDROOT
BRANCH   1  12
ATOM     11  C   UNL     1       2.480  -5.258  23.622  0.00  0.00    +0.277 C 
ATOM     12  O   UNL     1       3.580  -4.938  22.775  0.00  0.00    -0.491 OA
ENDBRANCH   1  12
BRANCH   2  13
ATOM     13  O   UNL     1       5.769  -4.541  21.360  0.00  0.00    -0.491 OA
ATOM     14  C   UNL     1       6.570  -5.703  21.205  0.00  0.00    +0.277 C 
ENDBRANCH   2  13
BRANCH   9  15
ATOM     15  N   UNL     1       8.917  -1.763  24.537  0.00  0.00    -0.299 N 
ATOM     16  H   UNL     1       9.173  -2.598  24.021  0.00  0.00    +0.154 HD
BRANCH  15  17
ATOM     17  C   UNL     1       9.376  -0.570  23.928  0.00  0.00    +0.036 A 
ATOM     18  C   UNL     1      10.247   0.285  24.617  0.00  0.00    +0.023 A 
ATOM     19  C   UNL     1      10.670   1.488  24.041  0.00  0.00    +0.005 A 
ATOM     20  C   UNL     1      10.212   1.861  22.779  0.00  0.00    +0.045 A 
ATOM     21  C   UNL     1       9.320   1.037  22.109  0.00  0.00    +0.119 A 
ATOM     22  C   UNL     1       8.886  -0.155  22.681  0.00  0.00    +0.068 A 
BRANCH  21  23
ATOM     23  O   UNL     1       8.882   1.429  20.878  0.00  0.00    -0.507 OA
ATOM     24  H   UNL     1       9.634   1.821  20.403  0.00  0.00    +0.292 HD
ENDBRANCH  21  23
ENDBRANCH  15  17
ENDBRANCH   9  15
TORSDOF 5
ENDMDL
MODEL 6
REMARK VINA RESULT:      -6.3      2.175      3.211
REMARK  Name = 
REMARK  7 active torsions:
REMARK  status: ('A' for Active; 'I' for Inactive)
REMARK    1  A    between atoms: C_1  and  O_2
REMARK    2  A    between atoms: O_2  and  C_3
REMARK    3  A    between atoms: C_9  and  N_10
REMARK    4  A    between atoms: N_10  and  C_11
REMARK    5  A    between atoms: C_13  and  O_14
REMARK    6  A    between atoms: C_20  and  O_21
REMARK    7  A    between atoms: O_21  and  C_22
REMARK                            x       y       z     vdW  Elec       q    Type
REMARK                         _______ _______ _______ _____ _____    ______ ____
ROOT
ATOM      1  C   UNL     1       4.871  -6.367  25.457  0.00  0.00    +0.164 A 
ATOM      2  C   UNL     1       4.883  -5.834  24.161  0.00  0.00    +0.162 A 
ATOM      3  C   UNL     1       5.935  -4.995  23.786  0.00  0.00    +0.062 A 
ATOM      4  C   UNL     1       6.977  -4.680  24.698  0.00  0.00    +0.044 A 
ATOM      5  C   UNL     1       6.926  -5.182  26.004  0.00  0.00    +0.080 A 
ATOM      6  N   UNL     1       7.858  -4.921  26.922  0.00  0.00    -0.235 NA
ATOM      7  C   UNL     1       8.886  -4.164  26.536  0.00  0.00    +0.223 A 
ATOM      8  N   UNL     1       9.074  -3.661  25.315  0.00  0.00    -0.220 NA
ATOM      9  C   UNL     1       8.124  -3.924  24.395  0.00  0.00    +0.134 A 
ATOM     10  C   UNL     1       5.874  -6.009  26.364  0.00  0.00    +0.078 A 
ENDROOT
BRANCH   1  12
ATOM     11  C   UNL     1       3.006  -6.758  26.862  0.00  0.00    +0.277 C 
ATOM     12  O   UNL     1       3.828  -7.199  25.786  0.00  0.00    -0.491 OA
ENDBRANCH   1  12
BRANCH   2  13
ATOM     13  O   UNL     1       3.856  -6.217  23.339  0.00  0.00    -0.491 OA
ATOM     14  C   UNL     1       2.742  -5.345  23.217  0.00  0.00    +0.277 C 
ENDBRANCH   2  13
BRANCH   9  15
ATOM     15  N   UNL     1       8.317  -3.434  23.077  0.00  0.00    -0.299 N 
ATOM     16  H   UNL     1       7.820  -4.021  22.416  0.00  0.00    +0.154 HD
BRANCH  15  17
ATOM     17  C   UNL     1       8.341  -2.070  22.701  0.00  0.00    +0.036 A 
ATOM     18  C   UNL     1       9.480  -1.523  22.094  0.00  0.00    +0.023 A 
ATOM     19  C   UNL     1       9.529  -0.164  21.761  0.00  0.00    +0.005 A 
ATOM     20  C   UNL     1       8.450   0.668  22.048  0.00  0.00    +0.045 A 
ATOM     21  C   UNL     1       7.335   0.141  22.683  0.00  0.00    +0.119 A 
ATOM     22  C   UNL     1       7.284  -1.206  23.028  0.00  0.00    +0.068 A 
BRANCH  21  23
ATOM     23  O   UNL     1       6.295   0.979  22.960  0.00  0.00    -0.507 OA
ATOM     24  H   UNL     1       6.646   1.743  23.446  0.00  0.00    +0.292 HD
ENDBRANCH  21  23
ENDBRANCH  15  17
ENDBRANCH   9  15
TORSDOF 5
ENDMDL
MODEL 7
REMARK VINA RESULT:      -6.2      3.811      7.868
REMARK  Name = 
REMARK  7 active torsions:
REMARK  status: ('A' for Active; 'I' for Inactive)
REMARK    1  A    between atoms: C_1  and  O_2
REMARK    2  A    between atoms: O_2  and  C_3
REMARK    3  A    between atoms: C_9  and  N_10
REMARK    4  A    between atoms: N_10  and  C_11
REMARK    5  A    between atoms: C_13  and  O_14
REMARK    6  A    between atoms: C_20  and  O_21
REMARK    7  A    between atoms: O_21  and  C_22
REMARK                            x       y       z     vdW  Elec       q    Type
REMARK                         _______ _______ _______ _____ _____    ______ ____
ROOT
ATOM      1  C   UNL     1       9.135   2.907  23.708  0.00  0.00    +0.164 A 
ATOM      2  C   UNL     1       8.587   2.409  24.898  0.00  0.00    +0.162 A 
ATOM      3  C   UNL     1       8.592   1.030  25.118  0.00  0.00    +0.062 A 
ATOM      4  C   UNL     1       9.140   0.140  24.157  0.00  0.00    +0.044 A 
ATOM      5  C   UNL     1       9.641   0.649  22.953  0.00  0.00    +0.080 A 
ATOM      6  N   UNL     1      10.159  -0.123  21.994  0.00  0.00    -0.235 NA
ATOM      7  C   UNL     1      10.209  -1.433  22.240  0.00  0.00    +0.223 A 
ATOM      8  N   UNL     1       9.806  -2.036  23.359  0.00  0.00    -0.220 NA
ATOM      9  C   UNL     1       9.279  -1.251  24.319  0.00  0.00    +0.134 A 
ATOM     10  C   UNL     1       9.625   2.018  22.745  0.00  0.00    +0.078 A 
ENDROOT
BRANCH   1  12
ATOM     11  C   UNL     1      10.376   4.923  23.723  0.00  0.00    +0.277 C 
ATOM     12  O   UNL     1       9.125   4.269  23.532  0.00  0.00    -0.491 OA
ENDBRANCH   1  12
BRANCH   2  13
ATOM     13  O   UNL     1       8.111   3.342  25.782  0.00  0.00    -0.491 OA
ATOM     14  C   UNL     1       6.727   3.310  26.100  0.00  0.00    +0.277 C 
ENDBRANCH   2  13
BRANCH   9  15
ATOM     15  N   UNL     1       8.877  -1.862  25.536  0.00  0.00    -0.299 N 
ATOM     16  H   UNL     1       8.638  -1.148  26.215  0.00  0.00    +0.154 HD
BRANCH  15  17
ATOM     17  C   UNL     1       8.080  -3.026  25.649  0.00  0.00    +0.036 A 
ATOM     18  C   UNL     1       6.926  -3.172  24.867  0.00  0.00    +0.023 A 
ATOM     19  C   UNL     1       6.108  -4.300  25.005  0.00  0.00    +0.005 A 
ATOM     20  C   UNL     1       6.422  -5.284  25.939  0.00  0.00    +0.045 A 
ATOM     21  C   UNL     1       7.543  -5.127  26.741  0.00  0.00    +0.119 A 
ATOM     22  C   UNL     1       8.354  -4.003  26.618  0.00  0.00    +0.068 A 
BRANCH  21  23
ATOM     23  O   UNL     1       7.824  -6.102  27.653  0.00  0.00    -0.507 OA
ATOM     24  H   UNL     1       8.052  -6.912  27.165  0.00  0.00    +0.292 HD
ENDBRANCH  21  23
ENDBRANCH  15  17
ENDBRANCH   9  15
TORSDOF 5
ENDMDL
MODEL 8
REMARK VINA RESULT:      -6.1      4.965      7.750
REMARK  Name = 
REMARK  7 active torsions:
REMARK  status: ('A' for Active; 'I' for Inactive)
REMARK    1  A    between atoms: C_1  and  O_2
REMARK    2  A    between atoms: O_2  and  C_3
REMARK    3  A    between atoms: C_9  and  N_10
REMARK    4  A    between atoms: N_10  and  C_11
REMARK    5  A    between atoms: C_13  and  O_14
REMARK    6  A    between atoms: C_20  and  O_21
REMARK    7  A    between atoms: O_21  and  C_22
REMARK                            x       y       z     vdW  Elec       q    Type
REMARK                         _______ _______ _______ _____ _____    ______ ____
ROOT
ATOM      1  C   UNL     1       8.710  -1.645  25.737  0.00  0.00    +0.164 A 
ATOM      2  C   UNL     1       8.530  -0.354  26.252  0.00  0.00    +0.162 A 
ATOM      3  C   UNL     1       8.694   0.741  25.401  0.00  0.00    +0.062 A 
ATOM      4  C   UNL     1       9.041   0.559  24.036  0.00  0.00    +0.044 A 
ATOM      5  C   UNL     1       9.264  -0.734  23.548  0.00  0.00    +0.080 A 
ATOM      6  N   UNL     1       9.606  -0.988  22.283  0.00  0.00    -0.235 NA
ATOM      7  C   UNL     1       9.706   0.063  21.466  0.00  0.00    +0.223 A 
ATOM      8  N   UNL     1       9.478   1.334  21.795  0.00  0.00    -0.220 NA
ATOM      9  C   UNL     1       9.140   1.582  23.076  0.00  0.00    +0.134 A 
ATOM     10  C   UNL     1       9.102  -1.812  24.404  0.00  0.00    +0.078 A 
ENDROOT
BRANCH   1  12
ATOM     11  C   UNL     1       7.822  -3.815  26.064  0.00  0.00    +0.277 C 
ATOM     12  O   UNL     1       8.527  -2.698  26.599  0.00  0.00    -0.491 OA
ENDBRANCH   1  12
BRANCH   2  13
ATOM     13  O   UNL     1       8.165  -0.274  27.570  0.00  0.00    -0.491 OA
ATOM     14  C   UNL     1       6.977   0.435  27.889  0.00  0.00    +0.277 C 
ENDBRANCH   2  13
BRANCH   9  15
ATOM     15  N   UNL     1       8.855   2.923  23.444  0.00  0.00    -0.299 N 
ATOM     16  H   UNL     1       8.099   2.940  24.120  0.00  0.00    +0.154 HD
BRANCH  15  17
ATOM     17  C   UNL     1       9.815   3.940  23.658  0.00  0.00    +0.036 A 
ATOM     18  C   UNL     1       9.411   5.227  24.039  0.00  0.00    +0.023 A 
ATOM     19  C   UNL     1      10.350   6.250  24.208  0.00  0.00    +0.005 A 
ATOM     20  C   UNL     1      11.702   6.006  23.979  0.00  0.00    +0.045 A 
ATOM     21  C   UNL     1      12.105   4.745  23.565  0.00  0.00    +0.119 A 
ATOM     22  C   UNL     1      11.175   3.726  23.384  0.00  0.00    +0.068 A 
BRANCH  21  23
ATOM     23  O   UNL     1      13.434   4.535  23.341  0.00  0.00    -0.507 OA
ATOM     24  H   UNL     1      13.677   4.995  22.521  0.00  0.00    +0.292 HD
ENDBRANCH  21  23
ENDBRANCH  15  17
ENDBRANCH   9  15
TORSDOF 5
ENDMDL
MODEL 9
REMARK VINA RESULT:      -6.1      4.026      7.202
REMARK  Name = 
REMARK  7 active torsions:
REMARK  status: ('A' for Active; 'I' for Inactive)
REMARK    1  A    between atoms: C_1  and  O_2
REMARK    2  A    between atoms: O_2  and  C_3
REMARK    3  A    between atoms: C_9  and  N_10
REMARK    4  A    between atoms: N_10  and  C_11
REMARK    5  A    between atoms: C_13  and  O_14
REMARK    6  A    between atoms: C_20  and  O_21
REMARK    7  A    between atoms: O_21  and  C_22
REMARK                            x       y       z     vdW  Elec       q    Type
REMARK                         _______ _______ _______ _____ _____    ______ ____
ROOT
ATOM      1  C   UNL     1       7.019   2.256  22.451  0.00  0.00    +0.164 A 
ATOM      2  C   UNL     1       6.482   1.699  23.620  0.00  0.00    +0.162 A 
ATOM      3  C   UNL     1       7.041   0.523  24.126  0.00  0.00    +0.062 A 
ATOM      4  C   UNL     1       8.134  -0.105  23.472  0.00  0.00    +0.044 A 
ATOM      5  C   UNL     1       8.629   0.438  22.280  0.00  0.00    +0.080 A 
ATOM      6  N   UNL     1       9.643  -0.100  21.599  0.00  0.00    -0.235 NA
ATOM      7  C   UNL     1      10.205  -1.192  22.122  0.00  0.00    +0.223 A 
ATOM      8  N   UNL     1       9.857  -1.780  23.267  0.00  0.00    -0.220 NA
ATOM      9  C   UNL     1       8.828  -1.234  23.945  0.00  0.00    +0.134 A 
ATOM     10  C   UNL     1       8.061   1.602  21.786  0.00  0.00    +0.078 A 
ENDROOT
BRANCH   1  12
ATOM     11  C   UNL     1       7.219   4.602  22.202  0.00  0.00    +0.277 C 
ATOM     12  O   UNL     1       6.452   3.419  21.991  0.00  0.00    -0.491 OA
ENDBRANCH   1  12
BRANCH   2  13
ATOM     13  O   UNL     1       5.451   2.389  24.202  0.00  0.00    -0.491 OA
ATOM     14  C   UNL     1       5.302   2.300  25.611  0.00  0.00    +0.277 C 
ENDBRANCH   2  13
BRANCH   9  15
ATOM     15  N   UNL     1       8.461  -1.817  25.186  0.00  0.00    -0.299 N 
ATOM     16  H   UNL     1       8.100  -1.102  25.808  0.00  0.00    +0.154 HD
BRANCH  15  17
ATOM     17  C   UNL     1       7.826  -3.071  25.351  0.00  0.00    +0.036 A 
ATOM     18  C   UNL     1       6.799  -3.463  24.481  0.00  0.00    +0.023 A 
ATOM     19  C   UNL     1       6.135  -4.681  24.664  0.00  0.00    +0.005 A 
ATOM     20  C   UNL     1       6.474  -5.512  25.730  0.00  0.00    +0.045 A 
ATOM     21  C   UNL     1       7.463  -5.111  26.616  0.00  0.00    +0.119 A 
ATOM     22  C   UNL     1       8.120  -3.897  26.447  0.00  0.00    +0.068 A 
BRANCH  21  23
ATOM     23  O   UNL     1       7.771  -5.940  27.655  0.00  0.00    -0.507 OA
ATOM     24  H   UNL     1       8.436  -5.496  28.207  0.00  0.00    +0.292 HD
ENDBRANCH  21  23
ENDBRANCH  15  17
ENDBRANCH   9  15
TORSDOF 5
ENDMDL
