MODEL 1
REMARK VINA RESULT:      -6.4      0.000      0.000
REMARK  Name = 
REMARK  8 active torsions:
REMARK  status: ('A' for Active; 'I' for Inactive)
REMARK    1  A    between atoms: C_1  and  C_2
REMARK    2  A    between atoms: C_2  and  C_3
REMARK    3  A    between atoms: C_7  and  O_8
REMARK    4  A    between atoms: O_8  and  C_9
REMARK    5  A    between atoms: C_9  and  C_10
REMARK    6  A    between atoms: C_13  and  C_14
REMARK    7  A    between atoms: C_17  and  S_20
REMARK    8  A    between atoms: S_20  and  C_21
REMARK                            x       y       z     vdW  Elec       q    Type
REMARK                         _______ _______ _______ _____ _____    ______ ____
ROOT
ATOM      1  C   UNL     1       9.326  -5.268  25.058  0.00  0.00    +0.061 C 
ATOM      2  C   UNL     1       8.221  -4.479  25.784  0.00  0.00    +0.137 C 
ATOM      3  C   UNL     1       7.154  -3.922  24.870  0.00  0.00    +0.051 C 
ATOM      4  C   UNL     1       6.091  -4.754  24.890  0.00  0.00    +0.212 C 
ATOM      5  C   UNL     1       6.332  -5.742  25.967  0.00  0.00    +0.376 C 
ATOM      6  O   UNL     1       5.586  -6.645  26.299  0.00  0.00    -0.241 OA
ATOM      7  O   UNL     1       7.520  -5.463  26.564  0.00  0.00    -0.448 OA
ATOM      8  C   UNL     1       8.813  -3.472  26.768  0.00  0.00    +0.061 C 
ENDROOT
BRANCH   3   9
ATOM      9  C   UNL     1       7.339  -2.678  24.088  0.00  0.00    -0.014 A 
ATOM     10  C   UNL     1       6.697  -1.477  24.420  0.00  0.00    +0.010 A 
ATOM     11  C   UNL     1       7.040  -0.271  23.802  0.00  0.00    +0.027 A 
ATOM     12  C   UNL     1       8.038  -0.256  22.835  0.00  0.00    +0.088 A 
ATOM     13  C   UNL     1       8.609  -1.447  22.398  0.00  0.00    +0.027 A 
ATOM     14  C   UNL     1       8.206  -2.654  22.982  0.00  0.00    +0.010 A 
BRANCH  12  15
ATOM     15  S   UNL     1       8.667   1.300  22.253  0.00  0.00    -0.006 S 
ATOM     16  O   UNL     1       7.617   1.919  21.466  0.00  0.00    -0.170 OA
ATOM     17  O   UNL     1       9.975   1.054  21.682  0.00  0.00    -0.170 OA
ATOM     18  C   UNL     1       8.884   2.241  23.734  0.00  0.00    +0.200 C 
ENDBRANCH  12  15
ENDBRANCH   3   9
BRANCH   4  19
ATOM     19  O   UNL     1       4.934  -4.852  24.166  0.00  0.00    -0.485 OA
BRANCH  19  20
ATOM     20  C   UNL     1       4.989  -4.760  22.747  0.00  0.00    +0.233 C 
BRANCH  20  21
ATOM     21  C   UNL     1       5.686  -5.953  22.172  0.00  0.00    +0.027 C 
ATOM     22  C   UNL     1       7.148  -5.907  21.812  0.00  0.00    +0.007 C 
ATOM     23  C   UNL     1       6.111  -5.883  20.724  0.00  0.00    +0.007 C 
ENDBRANCH  20  21
ENDBRANCH  19  20
ENDBRANCH   4  19
TORSDOF 5
ENDMDL
MODEL 2
REMARK VINA RESULT:      -6.4      2.702      5.970
REMARK  Name = 
REMARK  8 active torsions:
REMARK  status: ('A' for Active; 'I' for Inactive)
REMARK    1  A    between atoms: C_1  and  C_2
REMARK    2  A    between atoms: C_2  and  C_3
REMARK    3  A    between atoms: C_7  and  O_8
REMARK    4  A    between atoms: O_8  and  C_9
REMARK    5  A    between atoms: C_9  and  C_10
REMARK    6  A    between atoms: C_13  and  C_14
REMARK    7  A    between atoms: C_17  and  S_20
REMARK    8  A    between atoms: S_20  and  C_21
REMARK                            x       y       z     vdW  Elec       q    Type
REMARK                         _______ _______ _______ _____ _____    ______ ____
ROOT
ATOM      1  C   UNL     1       7.583   0.788  24.613  0.00  0.00    +0.061 C 
ATOM      2  C   UNL     1       8.769  -0.183  24.469  0.00  0.00    +0.137 C 
ATOM      3  C   UNL     1       8.368  -1.611  24.177  0.00  0.00    +0.051 C 
ATOM      4  C   UNL     1       8.477  -1.829  22.849  0.00  0.00    +0.212 C 
ATOM      5  C   UNL     1       9.154  -0.645  22.269  0.00  0.00    +0.376 C 
ATOM      6  O   UNL     1       9.443  -0.480  21.099  0.00  0.00    -0.241 OA
ATOM      7  O   UNL     1       9.439   0.233  23.267  0.00  0.00    -0.448 OA
ATOM      8  C   UNL     1       9.766  -0.017  25.614  0.00  0.00    +0.061 C 
ENDROOT
BRANCH   3   9
ATOM      9  C   UNL     1       7.909  -2.545  25.231  0.00  0.00    -0.014 A 
ATOM     10  C   UNL     1       6.664  -2.417  25.862  0.00  0.00    +0.010 A 
ATOM     11  C   UNL     1       6.162  -3.418  26.698  0.00  0.00    +0.027 A 
ATOM     12  C   UNL     1       6.912  -4.567  26.917  0.00  0.00    +0.088 A 
ATOM     13  C   UNL     1       8.200  -4.672  26.403  0.00  0.00    +0.027 A 
ATOM     14  C   UNL     1       8.712  -3.631  25.620  0.00  0.00    +0.010 A 
BRANCH  12  15
ATOM     15  S   UNL     1       6.168  -5.951  27.745  0.00  0.00    -0.006 S 
ATOM     16  O   UNL     1       7.173  -6.514  28.627  0.00  0.00    -0.170 OA
ATOM     17  O   UNL     1       5.524  -6.767  26.738  0.00  0.00    -0.170 OA
ATOM     18  C   UNL     1       4.906  -5.211  28.740  0.00  0.00    +0.200 C 
ENDBRANCH  12  15
ENDBRANCH   3   9
BRANCH   4  19
ATOM     19  O   UNL     1       8.111  -2.844  22.009  0.00  0.00    -0.485 OA
BRANCH  19  20
ATOM     20  C   UNL     1       6.866  -3.503  22.211  0.00  0.00    +0.233 C 
BRANCH  20  21
ATOM     21  C   UNL     1       7.084  -4.951  22.517  0.00  0.00    +0.027 C 
ATOM     22  C   UNL     1       6.168  -6.013  21.965  0.00  0.00    +0.007 C 
ATOM     23  C   UNL     1       6.080  -5.633  23.417  0.00  0.00    +0.007 C 
ENDBRANCH  20  21
ENDBRANCH  19  20
ENDBRANCH   4  19
TORSDOF 5
ENDMDL
MODEL 3
REMARK VINA RESULT:      -6.3      3.179      6.937
REMARK  Name = 
REMARK  8 active torsions:
REMARK  status: ('A' for Active; 'I' for Inactive)
REMARK    1  A    between atoms: C_1  and  C_2
REMARK    2  A    between atoms: C_2  and  C_3
REMARK    3  A    between atoms: C_7  and  O_8
REMARK    4  A    between atoms: O_8  and  C_9
REMARK    5  A    between atoms: C_9  and  C_10
REMARK    6  A    between atoms: C_13  and  C_14
REMARK    7  A    between atoms: C_17  and  S_20
REMARK    8  A    between atoms: S_20  and  C_21
REMARK                            x       y       z     vdW  Elec       q    Type
REMARK                         _______ _______ _______ _____ _____    ______ ____
ROOT
ATOM      1  C   UNL     1       7.249  -5.322  22.335  0.00  0.00    +0.061 C 
ATOM      2  C   UNL     1       6.818  -3.936  22.850  0.00  0.00    +0.137 C 
ATOM      3  C   UNL     1       7.570  -3.469  24.075  0.00  0.00    +0.051 C 
ATOM      4  C   UNL     1       8.557  -2.634  23.685  0.00  0.00    +0.212 C 
ATOM      5  C   UNL     1       8.346  -2.355  22.245  0.00  0.00    +0.376 C 
ATOM      6  O   UNL     1       9.025  -1.629  21.543  0.00  0.00    -0.241 OA
ATOM      7  O   UNL     1       7.237  -3.019  21.825  0.00  0.00    -0.448 OA
ATOM      8  C   UNL     1       5.298  -3.828  22.949  0.00  0.00    +0.061 C 
ENDROOT
BRANCH   3   9
ATOM      9  C   UNL     1       7.237  -3.929  25.443  0.00  0.00    -0.014 A 
ATOM     10  C   UNL     1       6.246  -3.318  26.223  0.00  0.00    +0.010 A 
ATOM     11  C   UNL     1       5.804  -3.889  27.419  0.00  0.00    +0.027 A 
ATOM     12  C   UNL     1       6.357  -5.088  27.853  0.00  0.00    +0.088 A 
ATOM     13  C   UNL     1       7.423  -5.657  27.164  0.00  0.00    +0.027 A 
ATOM     14  C   UNL     1       7.898  -5.036  26.003  0.00  0.00    +0.010 A 
BRANCH  12  15
ATOM     15  S   UNL     1       5.611  -5.953  29.213  0.00  0.00    -0.006 S 
ATOM     16  O   UNL     1       6.077  -5.319  30.431  0.00  0.00    -0.170 OA
ATOM     17  O   UNL     1       5.811  -7.370  28.990  0.00  0.00    -0.170 OA
ATOM     18  C   UNL     1       3.886  -5.608  29.030  0.00  0.00    +0.200 C 
ENDBRANCH  12  15
ENDBRANCH   3   9
BRANCH   4  19
ATOM     19  O   UNL     1       9.623  -2.048  24.310  0.00  0.00    -0.485 OA
BRANCH  19  20
ATOM     20  C   UNL     1       9.516  -0.702  24.758  0.00  0.00    +0.233 C 
BRANCH  20  21
ATOM     21  C   UNL     1      10.510   0.165  24.050  0.00  0.00    +0.027 C 
ATOM     22  C   UNL     1      10.540   1.656  24.266  0.00  0.00    +0.007 C 
ATOM     23  C   UNL     1       9.987   1.100  22.984  0.00  0.00    +0.007 C 
ENDBRANCH  20  21
ENDBRANCH  19  20
ENDBRANCH   4  19
TORSDOF 5
ENDMDL
MODEL 4
REMARK VINA RESULT:      -6.3      3.047      6.258
REMARK  Name = 
REMARK  8 active torsions:
REMARK  status: ('A' for Active; 'I' for Inactive)
REMARK    1  A    between atoms: C_1  and  C_2
REMARK    2  A    between atoms: C_2  and  C_3
REMARK    3  A    between atoms: C_7  and  O_8
REMARK    4  A    between atoms: O_8  and  C_9
REMARK    5  A    between atoms: C_9  and  C_10
REMARK    6  A    between atoms: C_13  and  C_14
REMARK    7  A    between atoms: C_17  and  S_20
REMARK    8  A    between atoms: S_20  and  C_21
REMARK                            x       y       z     vdW  Elec       q    Type
REMARK                         _______ _______ _______ _____ _____    ______ ____
ROOT
ATOM      1  C   UNL     1       6.844  -0.022  25.437  0.00  0.00    +0.061 C 
ATOM      2  C   UNL     1       8.126  -0.872  25.500  0.00  0.00    +0.137 C 
ATOM      3  C   UNL     1       7.966  -2.275  24.962  0.00  0.00    +0.051 C 
ATOM      4  C   UNL     1       8.423  -2.306  23.692  0.00  0.00    +0.212 C 
ATOM      5  C   UNL     1       9.091  -1.007  23.438  0.00  0.00    +0.376 C 
ATOM      6  O   UNL     1       9.641  -0.667  22.407  0.00  0.00    -0.241 OA
ATOM      7  O   UNL     1       9.024  -0.250  24.565  0.00  0.00    -0.448 OA
ATOM      8  C   UNL     1       8.785  -0.783  26.875  0.00  0.00    +0.061 C 
ENDROOT
BRANCH   3   9
ATOM      9  C   UNL     1       7.363  -3.373  25.753  0.00  0.00    -0.014 A 
ATOM     10  C   UNL     1       8.110  -4.463  26.221  0.00  0.00    +0.010 A 
ATOM     11  C   UNL     1       7.576  -5.375  27.134  0.00  0.00    +0.027 A 
ATOM     12  C   UNL     1       6.274  -5.206  27.591  0.00  0.00    +0.088 A 
ATOM     13  C   UNL     1       5.468  -4.206  27.056  0.00  0.00    +0.027 A 
ATOM     14  C   UNL     1       6.000  -3.340  26.093  0.00  0.00    +0.010 A 
BRANCH  12  15
ATOM     15  S   UNL     1       5.690  -6.190  28.949  0.00  0.00    -0.006 S 
ATOM     16  O   UNL     1       6.268  -5.637  30.159  0.00  0.00    -0.170 OA
ATOM     17  O   UNL     1       5.893  -7.580  28.599  0.00  0.00    -0.170 OA
ATOM     18  C   UNL     1       3.949  -5.878  28.970  0.00  0.00    +0.200 C 
ENDBRANCH  12  15
ENDBRANCH   3   9
BRANCH   4  19
ATOM     19  O   UNL     1       8.388  -3.226  22.680  0.00  0.00    -0.485 OA
BRANCH  19  20
ATOM     20  C   UNL     1       7.131  -3.705  22.216  0.00  0.00    +0.233 C 
BRANCH  20  21
ATOM     21  C   UNL     1       7.051  -5.192  22.366  0.00  0.00    +0.027 C 
ATOM     22  C   UNL     1       5.939  -5.983  21.726  0.00  0.00    +0.007 C 
ATOM     23  C   UNL     1       5.928  -5.749  23.211  0.00  0.00    +0.007 C 
ENDBRANCH  20  21
ENDBRANCH  19  20
ENDBRANCH   4  19
TORSDOF 5
ENDMDL
MODEL 5
REMARK VINA RESULT:      -6.3      1.904      2.770
REMARK  Name = 
REMARK  8 active torsions:
REMARK  status: ('A' for Active; 'I' for Inactive)
REMARK    1  A    between atoms: C_1  and  C_2
REMARK    2  A    between atoms: C_2  and  C_3
REMARK    3  A    between atoms: C_7  and  O_8
REMARK    4  A    between atoms: O_8  and  C_9
REMARK    5  A    between atoms: C_9  and  C_10
REMARK    6  A    between atoms: C_13  and  C_14
REMARK    7  A    between atoms: C_17  and  S_20
REMARK    8  A    between atoms: S_20  and  C_21
REMARK                            x       y       z     vdW  Elec       q    Type
REMARK                         _______ _______ _______ _____ _____    ______ ____
ROOT
ATOM      1  C   UNL     1       6.372  -5.962  28.230  0.00  0.00    +0.061 C 
ATOM      2  C   UNL     1       5.364  -5.196  27.355  0.00  0.00    +0.137 C 
ATOM      3  C   UNL     1       5.742  -5.125  25.893  0.00  0.00    +0.051 C 
ATOM      4  C   UNL     1       5.066  -6.084  25.224  0.00  0.00    +0.212 C 
ATOM      5  C   UNL     1       4.075  -6.655  26.167  0.00  0.00    +0.376 C 
ATOM      6  O   UNL     1       3.270  -7.534  25.923  0.00  0.00    -0.241 OA
ATOM      7  O   UNL     1       4.180  -6.013  27.360  0.00  0.00    -0.448 OA
ATOM      8  C   UNL     1       4.983  -3.858  27.985  0.00  0.00    +0.061 C 
ENDROOT
BRANCH   3   9
ATOM      9  C   UNL     1       6.728  -4.153  25.367  0.00  0.00    -0.014 A 
ATOM     10  C   UNL     1       8.107  -4.406  25.363  0.00  0.00    +0.010 A 
ATOM     11  C   UNL     1       8.999  -3.575  24.680  0.00  0.00    +0.027 A 
ATOM     12  C   UNL     1       8.515  -2.470  23.990  0.00  0.00    +0.088 A 
ATOM     13  C   UNL     1       7.171  -2.125  24.073  0.00  0.00    +0.027 A 
ATOM     14  C   UNL     1       6.301  -2.932  24.817  0.00  0.00    +0.010 A 
BRANCH  12  15
ATOM     15  S   UNL     1       9.598  -1.579  22.900  0.00  0.00    -0.006 S 
ATOM     16  O   UNL     1       8.833  -1.251  21.711  0.00  0.00    -0.170 OA
ATOM     17  O   UNL     1      10.833  -2.328  22.803  0.00  0.00    -0.170 OA
ATOM     18  C   UNL     1       9.932  -0.081  23.778  0.00  0.00    +0.200 C 
ENDBRANCH  12  15
ENDBRANCH   3   9
BRANCH   4  19
ATOM     19  O   UNL     1       5.119  -6.588  23.954  0.00  0.00    -0.485 OA
BRANCH  19  20
ATOM     20  C   UNL     1       4.754  -5.756  22.858  0.00  0.00    +0.233 C 
BRANCH  20  21
ATOM     21  C   UNL     1       5.774  -5.850  21.768  0.00  0.00    +0.027 C 
ATOM     22  C   UNL     1       7.246  -5.938  22.080  0.00  0.00    +0.007 C 
ATOM     23  C   UNL     1       6.672  -4.655  21.548  0.00  0.00    +0.007 C 
ENDBRANCH  20  21
ENDBRANCH  19  20
ENDBRANCH   4  19
TORSDOF 5
ENDMDL
MODEL 6
REMARK VINA RESULT:      -6.2      2.973      6.842
REMARK  Name = 
REMARK  8 active torsions:
REMARK  status: ('A' for Active; 'I' for Inactive)
REMARK    1  A    between atoms: C_1  and  C_2
REMARK    2  A    between atoms: C_2  and  C_3
REMARK    3  A    between atoms: C_7  and  O_8
REMARK    4  A    between atoms: O_8  and  C_9
REMARK    5  A    between atoms: C_9  and  C_10
REMARK    6  A    between atoms: C_13  and  C_14
REMARK    7  A    between atoms: C_17  and  S_20
REMARK    8  A    between atoms: S_20  and  C_21
REMARK                            x       y       z     vdW  Elec       q    Type
REMARK                         _______ _______ _______ _____ _____    ______ ____
ROOT
ATOM      1  C   UNL     1       5.274   1.635  26.322  0.00  0.00    +0.061 C 
ATOM      2  C   UNL     1       6.787   1.578  26.603  0.00  0.00    +0.137 C 
ATOM      3  C   UNL     1       7.634   1.302  25.382  0.00  0.00    +0.051 C 
ATOM      4  C   UNL     1       8.116   2.474  24.915  0.00  0.00    +0.212 C 
ATOM      5  C   UNL     1       7.793   3.510  25.925  0.00  0.00    +0.376 C 
ATOM      6  O   UNL     1       8.081   4.690  25.866  0.00  0.00    -0.241 OA
ATOM      7  O   UNL     1       7.143   2.924  26.965  0.00  0.00    -0.448 OA
ATOM      8  C   UNL     1       7.095   0.697  27.811  0.00  0.00    +0.061 C 
ENDROOT
BRANCH   3   9
ATOM      9  C   UNL     1       7.824  -0.059  24.831  0.00  0.00    -0.014 A 
ATOM     10  C   UNL     1       8.921  -0.863  25.169  0.00  0.00    +0.010 A 
ATOM     11  C   UNL     1       8.977  -2.212  24.806  0.00  0.00    +0.027 A 
ATOM     12  C   UNL     1       7.926  -2.774  24.091  0.00  0.00    +0.088 A 
ATOM     13  C   UNL     1       6.881  -1.976  23.638  0.00  0.00    +0.027 A 
ATOM     14  C   UNL     1       6.873  -0.612  23.955  0.00  0.00    +0.010 A 
BRANCH  12  15
ATOM     15  S   UNL     1       7.862  -4.535  23.872  0.00  0.00    -0.006 S 
ATOM     16  O   UNL     1       9.119  -5.073  24.357  0.00  0.00    -0.170 OA
ATOM     17  O   UNL     1       7.421  -4.789  22.517  0.00  0.00    -0.170 OA
ATOM     18  C   UNL     1       6.575  -5.045  24.972  0.00  0.00    +0.200 C 
ENDBRANCH  12  15
ENDBRANCH   3   9
BRANCH   4  19
ATOM     19  O   UNL     1       8.786   2.855  23.786  0.00  0.00    -0.485 OA
BRANCH  19  20
ATOM     20  C   UNL     1      10.018   2.224  23.458  0.00  0.00    +0.233 C 
BRANCH  20  21
ATOM     21  C   UNL     1      10.000   1.746  22.040  0.00  0.00    +0.027 C 
ATOM     22  C   UNL     1       8.745   1.190  21.419  0.00  0.00    +0.007 C 
ATOM     23  C   UNL     1       9.860   0.260  21.806  0.00  0.00    +0.007 C 
ENDBRANCH  20  21
ENDBRANCH  19  20
ENDBRANCH   4  19
TORSDOF 5
ENDMDL
MODEL 7
REMARK VINA RESULT:      -6.1      2.726      6.562
REMARK  Name = 
REMARK  8 active torsions:
REMARK  status: ('A' for Active; 'I' for Inactive)
REMARK    1  A    between atoms: C_1  and  C_2
REMARK    2  A    between atoms: C_2  and  C_3
REMARK    3  A    between atoms: C_7  and  O_8
REMARK    4  A    between atoms: O_8  and  C_9
REMARK    5  A    between atoms: C_9  and  C_10
REMARK    6  A    between atoms: C_13  and  C_14
REMARK    7  A    between atoms: C_17  and  S_20
REMARK    8  A    between atoms: S_20  and  C_21
REMARK                            x       y       z     vdW  Elec       q    Type
REMARK                         _______ _______ _______ _____ _____    ______ ____
ROOT
ATOM      1  C   UNL     1      10.935   1.941  23.991  0.00  0.00    +0.061 C 
ATOM      2  C   UNL     1       9.574   1.850  23.277  0.00  0.00    +0.137 C 
ATOM      3  C   UNL     1       8.587   0.920  23.944  0.00  0.00    +0.051 C 
ATOM      4  C   UNL     1       7.747   1.653  24.706  0.00  0.00    +0.212 C 
ATOM      5  C   UNL     1       8.009   3.078  24.392  0.00  0.00    +0.376 C 
ATOM      6  O   UNL     1       7.436   4.040  24.870  0.00  0.00    -0.241 OA
ATOM      7  O   UNL     1       8.984   3.150  23.448  0.00  0.00    -0.448 OA
ATOM      8  C   UNL     1       9.747   1.633  21.775  0.00  0.00    +0.061 C 
ENDROOT
BRANCH   3   9
ATOM      9  C   UNL     1       8.625  -0.550  23.765  0.00  0.00    -0.014 A 
ATOM     10  C   UNL     1       9.495  -1.375  24.490  0.00  0.00    +0.010 A 
ATOM     11  C   UNL     1       9.375  -2.767  24.461  0.00  0.00    +0.027 A 
ATOM     12  C   UNL     1       8.374  -3.353  23.695  0.00  0.00    +0.088 A 
ATOM     13  C   UNL     1       7.572  -2.569  22.872  0.00  0.00    +0.027 A 
ATOM     14  C   UNL     1       7.749  -1.181  22.864  0.00  0.00    +0.010 A 
BRANCH  12  15
ATOM     15  S   UNL     1       8.041  -5.089  23.871  0.00  0.00    -0.006 S 
ATOM     16  O   UNL     1       9.210  -5.688  24.488  0.00  0.00    -0.170 OA
ATOM     17  O   UNL     1       7.547  -5.569  22.598  0.00  0.00    -0.170 OA
ATOM     18  C   UNL     1       6.709  -5.141  25.033  0.00  0.00    +0.200 C 
ENDBRANCH  12  15
ENDBRANCH   3   9
BRANCH   4  19
ATOM     19  O   UNL     1       6.786   1.359  25.633  0.00  0.00    -0.485 OA
BRANCH  19  20
ATOM     20  C   UNL     1       5.562   0.771  25.207  0.00  0.00    +0.233 C 
BRANCH  20  21
ATOM     21  C   UNL     1       5.215  -0.399  26.072  0.00  0.00    +0.027 C 
ATOM     22  C   UNL     1       6.241  -1.447  26.417  0.00  0.00    +0.007 C 
ATOM     23  C   UNL     1       5.164  -1.760  25.417  0.00  0.00    +0.007 C 
ENDBRANCH  20  21
ENDBRANCH  19  20
ENDBRANCH   4  19
TORSDOF 5
ENDMDL
MODEL 8
REMARK VINA RESULT:      -6.0      3.026      6.534
REMARK  Name = 
REMARK  8 active torsions:
REMARK  status: ('A' for Active; 'I' for Inactive)
REMARK    1  A    between atoms: C_1  and  C_2
REMARK    2  A    between atoms: C_2  and  C_3
REMARK    3  A    between atoms: C_7  and  O_8
REMARK    4  A    between atoms: O_8  and  C_9
REMARK    5  A    between atoms: C_9  and  C_10
REMARK    6  A    between atoms: C_13  and  C_14
REMARK    7  A    between atoms: C_17  and  S_20
REMARK    8  A    between atoms: S_20  and  C_21
REMARK                            x       y       z     vdW  Elec       q    Type
REMARK                         _______ _______ _______ _____ _____    ______ ____
ROOT
ATOM      1  C   UNL     1       8.676  -3.541  26.267  0.00  0.00    +0.061 C 
ATOM      2  C   UNL     1       8.893  -4.099  24.849  0.00  0.00    +0.137 C 
ATOM      3  C   UNL     1       7.890  -3.608  23.830  0.00  0.00    +0.051 C 
ATOM      4  C   UNL     1       8.442  -2.588  23.137  0.00  0.00    +0.212 C 
ATOM      5  C   UNL     1       9.873  -2.528  23.518  0.00  0.00    +0.376 C 
ATOM      6  O   UNL     1      10.702  -1.747  23.089  0.00  0.00    -0.241 OA
ATOM      7  O   UNL     1      10.133  -3.517  24.412  0.00  0.00    -0.448 OA
ATOM      8  C   UNL     1       9.096  -5.613  24.872  0.00  0.00    +0.061 C 
ENDROOT
BRANCH   3   9
ATOM      9  C   UNL     1       6.532  -4.184  23.701  0.00  0.00    -0.014 A 
ATOM     10  C   UNL     1       6.160  -5.005  22.628  0.00  0.00    +0.010 A 
ATOM     11  C   UNL     1       4.950  -5.704  22.629  0.00  0.00    +0.027 A 
ATOM     12  C   UNL     1       4.089  -5.583  23.713  0.00  0.00    +0.088 A 
ATOM     13  C   UNL     1       4.373  -4.684  24.736  0.00  0.00    +0.027 A 
ATOM     14  C   UNL     1       5.560  -3.943  24.687  0.00  0.00    +0.010 A 
BRANCH  12  15
ATOM     15  S   UNL     1       2.693  -6.672  23.847  0.00  0.00    -0.006 S 
ATOM     16  O   UNL     1       3.189  -7.945  24.336  0.00  0.00    -0.170 OA
ATOM     17  O   UNL     1       1.958  -6.593  22.602  0.00  0.00    -0.170 OA
ATOM     18  C   UNL     1       1.707  -5.932  25.114  0.00  0.00    +0.200 C 
ENDBRANCH  12  15
ENDBRANCH   3   9
BRANCH   4  19
ATOM     19  O   UNL     1       7.972  -1.678  22.231  0.00  0.00    -0.485 OA
BRANCH  19  20
ATOM     20  C   UNL     1       7.893  -0.305  22.599  0.00  0.00    +0.233 C 
BRANCH  20  21
ATOM     21  C   UNL     1       8.627   0.544  21.609  0.00  0.00    +0.027 C 
ATOM     22  C   UNL     1       9.740   1.463  22.041  0.00  0.00    +0.007 C 
ATOM     23  C   UNL     1       8.402   2.037  21.668  0.00  0.00    +0.007 C 
ENDBRANCH  20  21
ENDBRANCH  19  20
ENDBRANCH   4  19
TORSDOF 5
ENDMDL
MODEL 9
REMARK VINA RESULT:      -6.0      1.673      3.656
REMARK  Name = 
REMARK  8 active torsions:
REMARK  status: ('A' for Active; 'I' for Inactive)
REMARK    1  A    between atoms: C_1  and  C_2
REMARK    2  A    between atoms: C_2  and  C_3
REMARK    3  A    between atoms: C_7  and  O_8
REMARK    4  A    between atoms: O_8  and  C_9
REMARK    5  A    between atoms: C_9  and  C_10
REMARK    6  A    between atoms: C_13  and  C_14
REMARK    7  A    between atoms: C_17  and  S_20
REMARK    8  A    between atoms: S_20  and  C_21
REMARK                            x       y       z     vdW  Elec       q    Type
REMARK                         _______ _______ _______ _____ _____    ______ ____
ROOT
ATOM      1  C   UNL     1       5.038  -4.423  22.623  0.00  0.00    +0.061 C 
ATOM      2  C   UNL     1       6.360  -4.915  23.239  0.00  0.00    +0.137 C 
ATOM      3  C   UNL     1       6.983  -3.951  24.223  0.00  0.00    +0.051 C 
ATOM      4  C   UNL     1       6.658  -4.340  25.474  0.00  0.00    +0.212 C 
ATOM      5  C   UNL     1       6.015  -5.671  25.363  0.00  0.00    +0.376 C 
ATOM      6  O   UNL     1       5.599  -6.351  26.283  0.00  0.00    -0.241 OA
ATOM      7  O   UNL     1       5.988  -6.039  24.055  0.00  0.00    -0.448 OA
ATOM      8  C   UNL     1       7.312  -5.441  22.166  0.00  0.00    +0.061 C 
ENDROOT
BRANCH   3   9
ATOM      9  C   UNL     1       7.777  -2.775  23.798  0.00  0.00    -0.014 A 
ATOM     10  C   UNL     1       7.207  -1.680  23.136  0.00  0.00    +0.010 A 
ATOM     11  C   UNL     1       7.924  -0.498  22.929  0.00  0.00    +0.027 A 
ATOM     12  C   UNL     1       9.233  -0.402  23.385  0.00  0.00    +0.088 A 
ATOM     13  C   UNL     1       9.866  -1.511  23.937  0.00  0.00    +0.027 A 
ATOM     14  C   UNL     1       9.153  -2.707  24.077  0.00  0.00    +0.010 A 
BRANCH  12  15
ATOM     15  S   UNL     1      10.048   1.176  23.374  0.00  0.00    -0.006 S 
ATOM     16  O   UNL     1      10.198   1.572  21.987  0.00  0.00    -0.170 OA
ATOM     17  O   UNL     1      11.201   1.076  24.245  0.00  0.00    -0.170 OA
ATOM     18  C   UNL     1       8.875   2.256  24.139  0.00  0.00    +0.200 C 
ENDBRANCH  12  15
ENDBRANCH   3   9
BRANCH   4  19
ATOM     19  O   UNL     1       6.794  -3.787  26.718  0.00  0.00    -0.485 OA
BRANCH  19  20
ATOM     20  C   UNL     1       5.798  -2.891  27.196  0.00  0.00    +0.233 C 
BRANCH  20  21
ATOM     21  C   UNL     1       6.004  -1.524  26.624  0.00  0.00    +0.027 C 
ATOM     22  C   UNL     1       7.286  -0.766  26.855  0.00  0.00    +0.007 C 
ATOM     23  C   UNL     1       6.038  -0.361  27.588  0.00  0.00    +0.007 C 
ENDBRANCH  20  21
ENDBRANCH  19  20
ENDBRANCH   4  19
TORSDOF 5
ENDMDL
