MODEL 1
REMARK VINA RESULT:      -5.5      0.000      0.000
REMARK  Name = 
REMARK  14 active torsions:
REMARK  status: ('A' for Active; 'I' for Inactive)
REMARK    1  A    between atoms: C_2  and  O_3
REMARK    2  A    between atoms: C_4  and  O_6
REMARK    3  A    between atoms: C_7  and  C_9
REMARK    4  A    between atoms: C_9  and  O_10
REMARK    5  A    between atoms: C_12  and  O_14
REMARK    6  A    between atoms: O_14  and  C_15
REMARK    7  A    between atoms: C_15  and  C_16
REMARK    8  A    between atoms: C_16  and  C_17
REMARK    9  A    between atoms: C_17  and  C_18
REMARK   10  A    between atoms: C_18  and  C_19
REMARK   11  A    between atoms: C_19  and  C_20
REMARK   12  A    between atoms: C_20  and  C_21
REMARK   13  A    between atoms: C_21  and  C_22
REMARK   14  A    between atoms: C_23  and  O_25
REMARK                            x       y       z     vdW  Elec       q    Type
REMARK                         _______ _______ _______ _____ _____    ______ ____
ROOT
ATOM      1  C   UNL     1       6.543  -4.526  25.713  0.00  0.00    +0.179 C 
ATOM      2  C   UNL     1       8.033  -4.545  26.087  0.00  0.00    +0.201 C 
ATOM      3  C   UNL     1       8.934  -4.137  24.902  0.00  0.00    +0.282 C 
ATOM      4  O   UNL     1       8.638  -4.937  23.753  0.00  0.00    -0.341 OA
ATOM      5  C   UNL     1       7.273  -4.845  23.316  0.00  0.00    +0.178 C 
ATOM      6  C   UNL     1       6.309  -5.320  24.421  0.00  0.00    +0.177 C 
ENDROOT
BRANCH   1   7
ATOM      7  O   UNL     1       6.003  -3.212  25.529  0.00  0.00    -0.386 OA
ATOM      8  H   UNL     1       5.029  -3.265  25.556  0.00  0.00    +0.210 HD
ENDBRANCH   1   7
BRANCH   2   9
ATOM      9  O   UNL     1       8.384  -5.870  26.523  0.00  0.00    -0.384 OA
ATOM     10  H   UNL     1       9.062  -5.791  27.222  0.00  0.00    +0.210 HD
ENDBRANCH   2   9
BRANCH   6  11
ATOM     11  O   UNL     1       4.943  -5.201  24.004  0.00  0.00    -0.386 OA
ATOM     12  H   UNL     1       4.833  -5.845  23.272  0.00  0.00    +0.210 HD
ENDBRANCH   6  11
BRANCH   3  13
ATOM     13  O   UNL     1       8.860  -2.735  24.652  0.00  0.00    -0.349 OA
BRANCH  13  14
ATOM     14  C   UNL     1       9.661  -2.369  23.525  0.00  0.00    +0.163 C 
BRANCH  14  15
ATOM     15  C   UNL     1       8.821  -1.639  22.480  0.00  0.00    +0.028 C 
BRANCH  15  16
ATOM     16  C   UNL     1       9.671  -0.797  21.522  0.00  0.00    +0.002 C 
BRANCH  16  17
ATOM     17  C   UNL     1       9.127   0.633  21.416  0.00  0.00    +0.000 C 
BRANCH  17  18
ATOM     18  C   UNL     1      10.061   1.651  22.072  0.00  0.00    -0.000 C 
BRANCH  18  19
ATOM     19  C   UNL     1       9.410   2.270  23.312  0.00  0.00    -0.000 C 
BRANCH  19  20
ATOM     20  C   UNL     1       9.652   1.428  24.564  0.00  0.00    -0.003 C 
ATOM     21  C   UNL     1      11.056   0.841  24.576  0.00  0.00    +0.004 C 
ENDBRANCH  19  20
ENDBRANCH  18  19
ENDBRANCH  17  18
ENDBRANCH  16  17
ENDBRANCH  15  16
ENDBRANCH  14  15
ENDBRANCH  13  14
ENDBRANCH   3  13
BRANCH   5  22
ATOM     22  C   UNL     1       7.130  -5.724  22.061  0.00  0.00    +0.190 C 
BRANCH  22  23
ATOM     23  O   UNL     1       6.225  -6.805  22.245  0.00  0.00    -0.392 OA
ATOM     24  H   UNL     1       5.452  -6.635  21.663  0.00  0.00    +0.210 HD
ENDBRANCH  22  23
ENDBRANCH   5  22
TORSDOF 13
ENDMDL
MODEL 2
REMARK VINA RESULT:      -5.4      1.364      2.179
REMARK  Name = 
REMARK  14 active torsions:
REMARK  status: ('A' for Active; 'I' for Inactive)
REMARK    1  A    between atoms: C_2  and  O_3
REMARK    2  A    between atoms: C_4  and  O_6
REMARK    3  A    between atoms: C_7  and  C_9
REMARK    4  A    between atoms: C_9  and  O_10
REMARK    5  A    between atoms: C_12  and  O_14
REMARK    6  A    between atoms: O_14  and  C_15
REMARK    7  A    between atoms: C_15  and  C_16
REMARK    8  A    between atoms: C_16  and  C_17
REMARK    9  A    between atoms: C_17  and  C_18
REMARK   10  A    between atoms: C_18  and  C_19
REMARK   11  A    between atoms: C_19  and  C_20
REMARK   12  A    between atoms: C_20  and  C_21
REMARK   13  A    between atoms: C_21  and  C_22
REMARK   14  A    between atoms: C_23  and  O_25
REMARK                            x       y       z     vdW  Elec       q    Type
REMARK                         _______ _______ _______ _____ _____    ______ ____
ROOT
ATOM      1  C   UNL     1       7.669  -5.069  25.854  0.00  0.00    +0.179 C 
ATOM      2  C   UNL     1       9.156  -4.761  25.621  0.00  0.00    +0.201 C 
ATOM      3  C   UNL     1       9.360  -3.619  24.602  0.00  0.00    +0.282 C 
ATOM      4  O   UNL     1       8.653  -3.902  23.390  0.00  0.00    -0.341 OA
ATOM      5  C   UNL     1       7.239  -4.081  23.569  0.00  0.00    +0.178 C 
ATOM      6  C   UNL     1       6.950  -5.266  24.512  0.00  0.00    +0.177 C 
ENDROOT
BRANCH   1   7
ATOM      7  O   UNL     1       6.969  -4.056  26.587  0.00  0.00    -0.386 OA
ATOM      8  H   UNL     1       7.209  -4.126  27.529  0.00  0.00    +0.210 HD
ENDBRANCH   1   7
BRANCH   2   9
ATOM      9  O   UNL     1       9.807  -5.952  25.144  0.00  0.00    -0.384 OA
ATOM     10  H   UNL     1      10.309  -6.342  25.884  0.00  0.00    +0.210 HD
ENDBRANCH   2   9
BRANCH   6  11
ATOM     11  O   UNL     1       5.542  -5.431  24.721  0.00  0.00    -0.386 OA
ATOM     12  H   UNL     1       5.124  -5.267  23.849  0.00  0.00    +0.210 HD
ENDBRANCH   6  11
BRANCH   3  13
ATOM     13  O   UNL     1       9.031  -2.353  25.169  0.00  0.00    -0.349 OA
BRANCH  13  14
ATOM     14  C   UNL     1       9.417  -1.283  24.301  0.00  0.00    +0.163 C 
BRANCH  14  15
ATOM     15  C   UNL     1       9.789  -0.042  25.109  0.00  0.00    +0.028 C 
BRANCH  15  16
ATOM     16  C   UNL     1      10.883   0.794  24.435  0.00  0.00    +0.002 C 
BRANCH  16  17
ATOM     17  C   UNL     1      10.301   2.076  23.828  0.00  0.00    +0.000 C 
BRANCH  17  18
ATOM     18  C   UNL     1      10.426   2.095  22.304  0.00  0.00    -0.000 C 
BRANCH  18  19
ATOM     19  C   UNL     1       9.296   1.289  21.655  0.00  0.00    -0.000 C 
BRANCH  19  20
ATOM     20  C   UNL     1       7.941   1.977  21.812  0.00  0.00    -0.003 C 
ATOM     21  C   UNL     1       6.952   1.092  22.558  0.00  0.00    +0.004 C 
ENDBRANCH  19  20
ENDBRANCH  18  19
ENDBRANCH  17  18
ENDBRANCH  16  17
ENDBRANCH  15  16
ENDBRANCH  14  15
ENDBRANCH  13  14
ENDBRANCH   3  13
BRANCH   5  22
ATOM     22  C   UNL     1       6.626  -4.335  22.180  0.00  0.00    +0.190 C 
BRANCH  22  23
ATOM     23  O   UNL     1       5.249  -3.987  22.113  0.00  0.00    -0.392 OA
ATOM     24  H   UNL     1       4.846  -4.244  22.971  0.00  0.00    +0.210 HD
ENDBRANCH  22  23
ENDBRANCH   5  22
TORSDOF 13
ENDMDL
MODEL 3
REMARK VINA RESULT:      -5.4      1.568      3.526
REMARK  Name = 
REMARK  14 active torsions:
REMARK  status: ('A' for Active; 'I' for Inactive)
REMARK    1  A    between atoms: C_2  and  O_3
REMARK    2  A    between atoms: C_4  and  O_6
REMARK    3  A    between atoms: C_7  and  C_9
REMARK    4  A    between atoms: C_9  and  O_10
REMARK    5  A    between atoms: C_12  and  O_14
REMARK    6  A    between atoms: O_14  and  C_15
REMARK    7  A    between atoms: C_15  and  C_16
REMARK    8  A    between atoms: C_16  and  C_17
REMARK    9  A    between atoms: C_17  and  C_18
REMARK   10  A    between atoms: C_18  and  C_19
REMARK   11  A    between atoms: C_19  and  C_20
REMARK   12  A    between atoms: C_20  and  C_21
REMARK   13  A    between atoms: C_21  and  C_22
REMARK   14  A    between atoms: C_23  and  O_25
REMARK                            x       y       z     vdW  Elec       q    Type
REMARK                         _______ _______ _______ _____ _____    ______ ____
ROOT
ATOM      1  C   UNL     1       8.654  -3.648  23.539  0.00  0.00    +0.179 C 
ATOM      2  C   UNL     1       7.447  -2.729  23.300  0.00  0.00    +0.201 C 
ATOM      3  C   UNL     1       6.747  -2.337  24.619  0.00  0.00    +0.282 C 
ATOM      4  O   UNL     1       6.416  -3.507  25.373  0.00  0.00    -0.341 OA
ATOM      5  C   UNL     1       7.548  -4.326  25.706  0.00  0.00    +0.178 C 
ATOM      6  C   UNL     1       8.255  -4.830  24.433  0.00  0.00    +0.177 C 
ENDROOT
BRANCH   1   7
ATOM      7  O   UNL     1       9.777  -2.995  24.144  0.00  0.00    -0.386 OA
ATOM      8  H   UNL     1      10.266  -3.644  24.683  0.00  0.00    +0.210 HD
ENDBRANCH   1   7
BRANCH   2   9
ATOM      9  O   UNL     1       6.511  -3.406  22.442  0.00  0.00    -0.384 OA
ATOM     10  H   UNL     1       6.819  -3.310  21.521  0.00  0.00    +0.210 HD
ENDBRANCH   2   9
BRANCH   6  11
ATOM     11  O   UNL     1       9.406  -5.620  24.756  0.00  0.00    -0.386 OA
ATOM     12  H   UNL     1      10.179  -5.033  24.613  0.00  0.00    +0.210 HD
ENDBRANCH   6  11
BRANCH   3  13
ATOM     13  O   UNL     1       7.517  -1.388  25.354  0.00  0.00    -0.349 OA
BRANCH  13  14
ATOM     14  C   UNL     1       7.419  -0.084  24.773  0.00  0.00    +0.163 C 
BRANCH  14  15
ATOM     15  C   UNL     1       8.538   0.820  25.285  0.00  0.00    +0.028 C 
BRANCH  15  16
ATOM     16  C   UNL     1       9.918   0.159  25.196  0.00  0.00    +0.002 C 
BRANCH  16  17
ATOM     17  C   UNL     1      10.890   1.022  24.382  0.00  0.00    +0.000 C 
BRANCH  17  18
ATOM     18  C   UNL     1      10.173   2.161  23.657  0.00  0.00    -0.000 C 
BRANCH  18  19
ATOM     19  C   UNL     1      10.236   1.966  22.138  0.00  0.00    -0.000 C 
BRANCH  19  20
ATOM     20  C   UNL     1       9.035   1.180  21.614  0.00  0.00    -0.003 C 
ATOM     21  C   UNL     1       9.392  -0.278  21.364  0.00  0.00    +0.004 C 
ENDBRANCH  19  20
ENDBRANCH  18  19
ENDBRANCH  17  18
ENDBRANCH  16  17
ENDBRANCH  15  16
ENDBRANCH  14  15
ENDBRANCH  13  14
ENDBRANCH   3  13
BRANCH   5  22
ATOM     22  C   UNL     1       7.033  -5.510  26.543  0.00  0.00    +0.190 C 
BRANCH  22  23
ATOM     23  O   UNL     1       7.982  -5.962  27.501  0.00  0.00    -0.392 OA
ATOM     24  H   UNL     1       7.474  -6.278  28.281  0.00  0.00    +0.210 HD
ENDBRANCH  22  23
ENDBRANCH   5  22
TORSDOF 13
ENDMDL
MODEL 4
REMARK VINA RESULT:      -5.4      1.604      2.319
REMARK  Name = 
REMARK  14 active torsions:
REMARK  status: ('A' for Active; 'I' for Inactive)
REMARK    1  A    between atoms: C_2  and  O_3
REMARK    2  A    between atoms: C_4  and  O_6
REMARK    3  A    between atoms: C_7  and  C_9
REMARK    4  A    between atoms: C_9  and  O_10
REMARK    5  A    between atoms: C_12  and  O_14
REMARK    6  A    between atoms: O_14  and  C_15
REMARK    7  A    between atoms: C_15  and  C_16
REMARK    8  A    between atoms: C_16  and  C_17
REMARK    9  A    between atoms: C_17  and  C_18
REMARK   10  A    between atoms: C_18  and  C_19
REMARK   11  A    between atoms: C_19  and  C_20
REMARK   12  A    between atoms: C_20  and  C_21
REMARK   13  A    between atoms: C_21  and  C_22
REMARK   14  A    between atoms: C_23  and  O_25
REMARK                            x       y       z     vdW  Elec       q    Type
REMARK                         _______ _______ _______ _____ _____    ______ ____
ROOT
ATOM      1  C   UNL     1       8.818  -4.315  26.529  0.00  0.00    +0.179 C 
ATOM      2  C   UNL     1       9.439  -4.519  25.139  0.00  0.00    +0.201 C 
ATOM      3  C   UNL     1       8.399  -4.358  24.010  0.00  0.00    +0.282 C 
ATOM      4  O   UNL     1       7.272  -5.207  24.247  0.00  0.00    -0.341 OA
ATOM      5  C   UNL     1       6.605  -4.956  25.494  0.00  0.00    +0.178 C 
ATOM      6  C   UNL     1       7.560  -5.181  26.682  0.00  0.00    +0.177 C 
ENDROOT
BRANCH   1   7
ATOM      7  O   UNL     1       8.459  -2.958  26.817  0.00  0.00    -0.386 OA
ATOM      8  H   UNL     1       7.486  -2.889  26.845  0.00  0.00    +0.210 HD
ENDBRANCH   1   7
BRANCH   2   9
ATOM      9  O   UNL     1      10.015  -5.836  25.077  0.00  0.00    -0.384 OA
ATOM     10  H   UNL     1       9.486  -6.426  25.648  0.00  0.00    +0.210 HD
ENDBRANCH   2   9
BRANCH   6  11
ATOM     11  O   UNL     1       6.912  -4.901  27.929  0.00  0.00    -0.386 OA
ATOM     12  H   UNL     1       6.250  -5.615  28.049  0.00  0.00    +0.210 HD
ENDBRANCH   6  11
BRANCH   3  13
ATOM     13  O   UNL     1       8.048  -2.989  23.819  0.00  0.00    -0.349 OA
BRANCH  13  14
ATOM     14  C   UNL     1       8.300  -2.575  22.473  0.00  0.00    +0.163 C 
BRANCH  14  15
ATOM     15  C   UNL     1       9.504  -1.636  22.415  0.00  0.00    +0.028 C 
BRANCH  15  16
ATOM     16  C   UNL     1       9.326  -0.511  21.390  0.00  0.00    +0.002 C 
BRANCH  16  17
ATOM     17  C   UNL     1       9.932   0.802  21.904  0.00  0.00    +0.000 C 
BRANCH  17  18
ATOM     18  C   UNL     1       8.885   1.912  22.008  0.00  0.00    -0.000 C 
BRANCH  18  19
ATOM     19  C   UNL     1       8.152   1.846  23.352  0.00  0.00    -0.000 C 
BRANCH  19  20
ATOM     20  C   UNL     1       9.112   1.591  24.513  0.00  0.00    -0.003 C 
ATOM     21  C   UNL     1       8.630   0.444  25.390  0.00  0.00    +0.004 C 
ENDBRANCH  19  20
ENDBRANCH  18  19
ENDBRANCH  17  18
ENDBRANCH  16  17
ENDBRANCH  15  16
ENDBRANCH  14  15
ENDBRANCH  13  14
ENDBRANCH   3  13
BRANCH   5  22
ATOM     22  C   UNL     1       5.404  -5.916  25.577  0.00  0.00    +0.190 C 
BRANCH  22  23
ATOM     23  O   UNL     1       5.505  -6.831  26.660  0.00  0.00    -0.392 OA
ATOM     24  H   UNL     1       6.338  -7.335  26.534  0.00  0.00    +0.210 HD
ENDBRANCH  22  23
ENDBRANCH   5  22
TORSDOF 13
ENDMDL
MODEL 5
REMARK VINA RESULT:      -5.3      1.227      1.994
REMARK  Name = 
REMARK  14 active torsions:
REMARK  status: ('A' for Active; 'I' for Inactive)
REMARK    1  A    between atoms: C_2  and  O_3
REMARK    2  A    between atoms: C_4  and  O_6
REMARK    3  A    between atoms: C_7  and  C_9
REMARK    4  A    between atoms: C_9  and  O_10
REMARK    5  A    between atoms: C_12  and  O_14
REMARK    6  A    between atoms: O_14  and  C_15
REMARK    7  A    between atoms: C_15  and  C_16
REMARK    8  A    between atoms: C_16  and  C_17
REMARK    9  A    between atoms: C_17  and  C_18
REMARK   10  A    between atoms: C_18  and  C_19
REMARK   11  A    between atoms: C_19  and  C_20
REMARK   12  A    between atoms: C_20  and  C_21
REMARK   13  A    between atoms: C_21  and  C_22
REMARK   14  A    between atoms: C_23  and  O_25
REMARK                            x       y       z     vdW  Elec       q    Type
REMARK                         _______ _______ _______ _____ _____    ______ ____
ROOT
ATOM      1  C   UNL     1       5.390  -4.342  24.791  0.00  0.00    +0.179 C 
ATOM      2  C   UNL     1       6.648  -4.640  25.620  0.00  0.00    +0.201 C 
ATOM      3  C   UNL     1       7.938  -4.518  24.782  0.00  0.00    +0.282 C 
ATOM      4  O   UNL     1       7.844  -5.325  23.603  0.00  0.00    -0.341 OA
ATOM      5  C   UNL     1       6.737  -4.987  22.753  0.00  0.00    +0.178 C 
ATOM      6  C   UNL     1       5.398  -5.167  23.497  0.00  0.00    +0.177 C 
ENDROOT
BRANCH   1   7
ATOM      7  O   UNL     1       5.237  -2.962  24.436  0.00  0.00    -0.386 OA
ATOM      8  H   UNL     1       4.643  -2.899  23.665  0.00  0.00    +0.210 HD
ENDBRANCH   1   7
BRANCH   2   9
ATOM      9  O   UNL     1       6.547  -5.972  26.154  0.00  0.00    -0.384 OA
ATOM     10  H   UNL     1       7.394  -6.192  26.584  0.00  0.00    +0.210 HD
ENDBRANCH   2   9
BRANCH   6  11
ATOM     11  O   UNL     1       4.290  -4.800  22.665  0.00  0.00    -0.386 OA
ATOM     12  H   UNL     1       3.882  -5.646  22.381  0.00  0.00    +0.210 HD
ENDBRANCH   6  11
BRANCH   3  13
ATOM     13  O   UNL     1       8.256  -3.154  24.512  0.00  0.00    -0.349 OA
BRANCH  13  14
ATOM     14  C   UNL     1       9.648  -2.995  24.224  0.00  0.00    +0.163 C 
BRANCH  14  15
ATOM     15  C   UNL     1       9.921  -1.616  23.627  0.00  0.00    +0.028 C 
BRANCH  15  16
ATOM     16  C   UNL     1       9.932  -0.507  24.685  0.00  0.00    +0.002 C 
BRANCH  16  17
ATOM     17  C   UNL     1      10.819   0.664  24.244  0.00  0.00    +0.000 C 
BRANCH  17  18
ATOM     18  C   UNL     1       9.999   1.811  23.651  0.00  0.00    -0.000 C 
BRANCH  18  19
ATOM     19  C   UNL     1      10.091   1.812  22.121  0.00  0.00    -0.000 C 
BRANCH  19  20
ATOM     20  C   UNL     1       8.847   1.205  21.474  0.00  0.00    -0.003 C 
ATOM     21  C   UNL     1       7.592   1.529  22.273  0.00  0.00    +0.004 C 
ENDBRANCH  19  20
ENDBRANCH  18  19
ENDBRANCH  17  18
ENDBRANCH  16  17
ENDBRANCH  15  16
ENDBRANCH  14  15
ENDBRANCH  13  14
ENDBRANCH   3  13
BRANCH   5  22
ATOM     22  C   UNL     1       6.799  -5.910  21.523  0.00  0.00    +0.190 C 
BRANCH  22  23
ATOM     23  O   UNL     1       5.973  -5.462  20.456  0.00  0.00    -0.392 OA
ATOM     24  H   UNL     1       6.540  -4.923  19.861  0.00  0.00    +0.210 HD
ENDBRANCH  22  23
ENDBRANCH   5  22
TORSDOF 13
ENDMDL
MODEL 6
REMARK VINA RESULT:      -5.2      1.617      3.354
REMARK  Name = 
REMARK  14 active torsions:
REMARK  status: ('A' for Active; 'I' for Inactive)
REMARK    1  A    between atoms: C_2  and  O_3
REMARK    2  A    between atoms: C_4  and  O_6
REMARK    3  A    between atoms: C_7  and  C_9
REMARK    4  A    between atoms: C_9  and  O_10
REMARK    5  A    between atoms: C_12  and  O_14
REMARK    6  A    between atoms: O_14  and  C_15
REMARK    7  A    between atoms: C_15  and  C_16
REMARK    8  A    between atoms: C_16  and  C_17
REMARK    9  A    between atoms: C_17  and  C_18
REMARK   10  A    between atoms: C_18  and  C_19
REMARK   11  A    between atoms: C_19  and  C_20
REMARK   12  A    between atoms: C_20  and  C_21
REMARK   13  A    between atoms: C_21  and  C_22
REMARK   14  A    between atoms: C_23  and  O_25
REMARK                            x       y       z     vdW  Elec       q    Type
REMARK                         _______ _______ _______ _____ _____    ______ ____
ROOT
ATOM      1  C   UNL     1       8.719  -5.424  25.581  0.00  0.00    +0.179 C 
ATOM      2  C   UNL     1       8.498  -4.647  24.274  0.00  0.00    +0.201 C 
ATOM      3  C   UNL     1       7.952  -3.226  24.529  0.00  0.00    +0.282 C 
ATOM      4  O   UNL     1       6.779  -3.283  25.347  0.00  0.00    -0.341 OA
ATOM      5  C   UNL     1       6.990  -3.906  26.625  0.00  0.00    +0.178 C 
ATOM      6  C   UNL     1       7.458  -5.365  26.454  0.00  0.00    +0.177 C 
ENDROOT
BRANCH   1   7
ATOM      7  O   UNL     1       9.822  -4.951  26.364  0.00  0.00    -0.386 OA
ATOM      8  H   UNL     1       9.516  -4.216  26.928  0.00  0.00    +0.210 HD
ENDBRANCH   1   7
BRANCH   2   9
ATOM      9  O   UNL     1       7.572  -5.378  23.451  0.00  0.00    -0.384 OA
ATOM     10  H   UNL     1       6.754  -4.851  23.375  0.00  0.00    +0.210 HD
ENDBRANCH   2   9
BRANCH   6  11
ATOM     11  O   UNL     1       7.702  -5.983  27.724  0.00  0.00    -0.386 OA
ATOM     12  H   UNL     1       7.143  -6.789  27.737  0.00  0.00    +0.210 HD
ENDBRANCH   6  11
BRANCH   3  13
ATOM     13  O   UNL     1       8.964  -2.365  25.048  0.00  0.00    -0.349 OA
BRANCH  13  14
ATOM     14  C   UNL     1       8.770  -1.018  24.607  0.00  0.00    +0.163 C 
BRANCH  14  15
ATOM     15  C   UNL     1       9.795  -0.088  25.253  0.00  0.00    +0.028 C 
BRANCH  15  16
ATOM     16  C   UNL     1      10.791   0.488  24.240  0.00  0.00    +0.002 C 
BRANCH  16  17
ATOM     17  C   UNL     1      10.293   1.826  23.678  0.00  0.00    +0.000 C 
BRANCH  17  18
ATOM     18  C   UNL     1      10.264   1.828  22.150  0.00  0.00    -0.000 C 
BRANCH  18  19
ATOM     19  C   UNL     1       8.972   1.190  21.628  0.00  0.00    -0.000 C 
BRANCH  19  20
ATOM     20  C   UNL     1       7.764   2.106  21.825  0.00  0.00    -0.003 C 
ATOM     21  C   UNL     1       6.674   1.420  22.635  0.00  0.00    +0.004 C 
ENDBRANCH  19  20
ENDBRANCH  18  19
ENDBRANCH  17  18
ENDBRANCH  16  17
ENDBRANCH  15  16
ENDBRANCH  14  15
ENDBRANCH  13  14
ENDBRANCH   3  13
BRANCH   5  22
ATOM     22  C   UNL     1       5.656  -3.853  27.390  0.00  0.00    +0.190 C 
BRANCH  22  23
ATOM     23  O   UNL     1       4.949  -5.086  27.352  0.00  0.00    -0.392 OA
ATOM     24  H   UNL     1       4.669  -5.227  26.421  0.00  0.00    +0.210 HD
ENDBRANCH  22  23
ENDBRANCH   5  22
TORSDOF 13
ENDMDL
MODEL 7
REMARK VINA RESULT:      -5.2      2.875      6.613
REMARK  Name = 
REMARK  14 active torsions:
REMARK  status: ('A' for Active; 'I' for Inactive)
REMARK    1  A    between atoms: C_2  and  O_3
REMARK    2  A    between atoms: C_4  and  O_6
REMARK    3  A    between atoms: C_7  and  C_9
REMARK    4  A    between atoms: C_9  and  O_10
REMARK    5  A    between atoms: C_12  and  O_14
REMARK    6  A    between atoms: O_14  and  C_15
REMARK    7  A    between atoms: C_15  and  C_16
REMARK    8  A    between atoms: C_16  and  C_17
REMARK    9  A    between atoms: C_17  and  C_18
REMARK   10  A    between atoms: C_18  and  C_19
REMARK   11  A    between atoms: C_19  and  C_20
REMARK   12  A    between atoms: C_20  and  C_21
REMARK   13  A    between atoms: C_21  and  C_22
REMARK   14  A    between atoms: C_23  and  O_25
REMARK                            x       y       z     vdW  Elec       q    Type
REMARK                         _______ _______ _______ _____ _____    ______ ____
ROOT
ATOM      1  C   UNL     1       8.941  -0.283  22.109  0.00  0.00    +0.179 C 
ATOM      2  C   UNL     1       9.525  -1.328  23.071  0.00  0.00    +0.201 C 
ATOM      3  C   UNL     1       9.810  -0.736  24.468  0.00  0.00    +0.282 C 
ATOM      4  O   UNL     1      10.626   0.434  24.355  0.00  0.00    -0.341 OA
ATOM      5  C   UNL     1      10.047   1.473  23.550  0.00  0.00    +0.178 C 
ATOM      6  C   UNL     1       9.809   0.983  22.108  0.00  0.00    +0.177 C 
ENDROOT
BRANCH   1   7
ATOM      7  O   UNL     1       7.595   0.105  22.412  0.00  0.00    -0.386 OA
ATOM      8  H   UNL     1       7.582   0.546  23.282  0.00  0.00    +0.210 HD
ENDBRANCH   1   7
BRANCH   2   9
ATOM      9  O   UNL     1      10.744  -1.845  22.509  0.00  0.00    -0.384 OA
ATOM     10  H   UNL     1      11.229  -1.102  22.101  0.00  0.00    +0.210 HD
ENDBRANCH   2   9
BRANCH   6  11
ATOM     11  O   UNL     1       9.201   2.004  21.307  0.00  0.00    -0.386 OA
ATOM     12  H   UNL     1       9.495   1.828  20.388  0.00  0.00    +0.210 HD
ENDBRANCH   6  11
BRANCH   3  13
ATOM     13  O   UNL     1       8.604  -0.518  25.196  0.00  0.00    -0.349 OA
BRANCH  13  14
ATOM     14  C   UNL     1       8.602  -1.254  26.423  0.00  0.00    +0.163 C 
BRANCH  14  15
ATOM     15  C   UNL     1       7.726  -2.500  26.302  0.00  0.00    +0.028 C 
BRANCH  15  16
ATOM     16  C   UNL     1       8.524  -3.800  26.456  0.00  0.00    +0.002 C 
BRANCH  16  17
ATOM     17  C   UNL     1       7.949  -4.907  25.564  0.00  0.00    +0.000 C 
BRANCH  17  18
ATOM     18  C   UNL     1       8.468  -4.812  24.128  0.00  0.00    -0.000 C 
BRANCH  18  19
ATOM     19  C   UNL     1       7.340  -5.068  23.123  0.00  0.00    -0.000 C 
BRANCH  19  20
ATOM     20  C   UNL     1       7.019  -3.824  22.296  0.00  0.00    -0.003 C 
ATOM     21  C   UNL     1       5.922  -2.993  22.946  0.00  0.00    +0.004 C 
ENDBRANCH  19  20
ENDBRANCH  18  19
ENDBRANCH  17  18
ENDBRANCH  16  17
ENDBRANCH  15  16
ENDBRANCH  14  15
ENDBRANCH  13  14
ENDBRANCH   3  13
BRANCH   5  22
ATOM     22  C   UNL     1      11.021   2.664  23.562  0.00  0.00    +0.190 C 
BRANCH  22  23
ATOM     23  O   UNL     1      10.396   3.891  23.206  0.00  0.00    -0.392 OA
ATOM     24  H   UNL     1      10.938   4.292  22.491  0.00  0.00    +0.210 HD
ENDBRANCH  22  23
ENDBRANCH   5  22
TORSDOF 13
ENDMDL
MODEL 8
REMARK VINA RESULT:      -5.0      4.190      7.854
REMARK  Name = 
REMARK  14 active torsions:
REMARK  status: ('A' for Active; 'I' for Inactive)
REMARK    1  A    between atoms: C_2  and  O_3
REMARK    2  A    between atoms: C_4  and  O_6
REMARK    3  A    between atoms: C_7  and  C_9
REMARK    4  A    between atoms: C_9  and  O_10
REMARK    5  A    between atoms: C_12  and  O_14
REMARK    6  A    between atoms: O_14  and  C_15
REMARK    7  A    between atoms: C_15  and  C_16
REMARK    8  A    between atoms: C_16  and  C_17
REMARK    9  A    between atoms: C_17  and  C_18
REMARK   10  A    between atoms: C_18  and  C_19
REMARK   11  A    between atoms: C_19  and  C_20
REMARK   12  A    between atoms: C_20  and  C_21
REMARK   13  A    between atoms: C_21  and  C_22
REMARK   14  A    between atoms: C_23  and  O_25
REMARK                            x       y       z     vdW  Elec       q    Type
REMARK                         _______ _______ _______ _____ _____    ______ ____
ROOT
ATOM      1  C   UNL     1       9.762   3.325  23.849  0.00  0.00    +0.179 C 
ATOM      2  C   UNL     1       8.796   2.223  24.310  0.00  0.00    +0.201 C 
ATOM      3  C   UNL     1       7.610   2.048  23.337  0.00  0.00    +0.282 C 
ATOM      4  O   UNL     1       6.959   3.303  23.115  0.00  0.00    -0.341 OA
ATOM      5  C   UNL     1       7.820   4.318  22.575  0.00  0.00    +0.178 C 
ATOM      6  C   UNL     1       8.989   4.613  23.535  0.00  0.00    +0.177 C 
ENDROOT
BRANCH   1   7
ATOM      7  O   UNL     1      10.535   2.980  22.693  0.00  0.00    -0.386 OA
ATOM      8  H   UNL     1      10.202   2.137  22.331  0.00  0.00    +0.210 HD
ENDBRANCH   1   7
BRANCH   2   9
ATOM      9  O   UNL     1       8.299   2.560  25.617  0.00  0.00    -0.384 OA
ATOM     10  H   UNL     1       8.960   2.275  26.276  0.00  0.00    +0.210 HD
ENDBRANCH   2   9
BRANCH   6  11
ATOM     11  O   UNL     1       9.871   5.602  22.989  0.00  0.00    -0.386 OA
ATOM     12  H   UNL     1      10.682   5.117  22.727  0.00  0.00    +0.210 HD
ENDBRANCH   6  11
BRANCH   3  13
ATOM     13  O   UNL     1       8.016   1.399  22.134  0.00  0.00    -0.349 OA
BRANCH  13  14
ATOM     14  C   UNL     1       8.293   0.014  22.363  0.00  0.00    +0.163 C 
BRANCH  14  15
ATOM     15  C   UNL     1       9.674  -0.356  21.827  0.00  0.00    +0.028 C 
BRANCH  15  16
ATOM     16  C   UNL     1      10.242  -1.620  22.482  0.00  0.00    +0.002 C 
BRANCH  16  17
ATOM     17  C   UNL     1       9.823  -1.713  23.954  0.00  0.00    +0.000 C 
BRANCH  17  18
ATOM     18  C   UNL     1       9.463  -3.144  24.357  0.00  0.00    -0.000 C 
BRANCH  18  19
ATOM     19  C   UNL     1       8.097  -3.543  23.788  0.00  0.00    -0.000 C 
BRANCH  19  20
ATOM     20  C   UNL     1       7.965  -5.057  23.632  0.00  0.00    -0.003 C 
ATOM     21  C   UNL     1       7.259  -5.422  22.334  0.00  0.00    +0.004 C 
ENDBRANCH  19  20
ENDBRANCH  18  19
ENDBRANCH  17  18
ENDBRANCH  16  17
ENDBRANCH  15  16
ENDBRANCH  14  15
ENDBRANCH  13  14
ENDBRANCH   3  13
BRANCH   5  22
ATOM     22  C   UNL     1       6.967   5.581  22.360  0.00  0.00    +0.190 C 
BRANCH  22  23
ATOM     23  O   UNL     1       7.423   6.375  21.272  0.00  0.00    -0.392 OA
ATOM     24  H   UNL     1       7.558   5.769  20.510  0.00  0.00    +0.210 HD
ENDBRANCH  22  23
ENDBRANCH   5  22
TORSDOF 13
ENDMDL
MODEL 9
REMARK VINA RESULT:      -5.0      1.728      2.141
REMARK  Name = 
REMARK  14 active torsions:
REMARK  status: ('A' for Active; 'I' for Inactive)
REMARK    1  A    between atoms: C_2  and  O_3
REMARK    2  A    between atoms: C_4  and  O_6
REMARK    3  A    between atoms: C_7  and  C_9
REMARK    4  A    between atoms: C_9  and  O_10
REMARK    5  A    between atoms: C_12  and  O_14
REMARK    6  A    between atoms: O_14  and  C_15
REMARK    7  A    between atoms: C_15  and  C_16
REMARK    8  A    between atoms: C_16  and  C_17
REMARK    9  A    between atoms: C_17  and  C_18
REMARK   10  A    between atoms: C_18  and  C_19
REMARK   11  A    between atoms: C_19  and  C_20
REMARK   12  A    between atoms: C_20  and  C_21
REMARK   13  A    between atoms: C_21  and  C_22
REMARK   14  A    between atoms: C_23  and  O_25
REMARK                            x       y       z     vdW  Elec       q    Type
REMARK                         _______ _______ _______ _____ _____    ______ ____
ROOT
ATOM      1  C   UNL     1       6.106  -2.616  23.759  0.00  0.00    +0.179 C 
ATOM      2  C   UNL     1       7.463  -2.510  24.471  0.00  0.00    +0.201 C 
ATOM      3  C   UNL     1       8.609  -3.109  23.628  0.00  0.00    +0.282 C 
ATOM      4  O   UNL     1       8.290  -4.448  23.236  0.00  0.00    -0.341 OA
ATOM      5  C   UNL     1       7.080  -4.558  22.469  0.00  0.00    +0.178 C 
ATOM      6  C   UNL     1       5.869  -4.055  23.279  0.00  0.00    +0.177 C 
ENDROOT
BRANCH   1   7
ATOM      7  O   UNL     1       5.966  -1.745  22.630  0.00  0.00    -0.386 OA
ATOM      8  H   UNL     1       6.447  -0.916  22.811  0.00  0.00    +0.210 HD
ENDBRANCH   1   7
BRANCH   2   9
ATOM      9  O   UNL     1       7.381  -3.199  25.731  0.00  0.00    -0.384 OA
ATOM     10  H   UNL     1       8.083  -2.853  26.313  0.00  0.00    +0.210 HD
ENDBRANCH   2   9
BRANCH   6  11
ATOM     11  O   UNL     1       4.662  -4.131  22.509  0.00  0.00    -0.386 OA
ATOM     12  H   UNL     1       4.441  -3.204  22.273  0.00  0.00    +0.210 HD
ENDBRANCH   6  11
BRANCH   3  13
ATOM     13  O   UNL     1       8.946  -2.262  22.532  0.00  0.00    -0.349 OA
BRANCH  13  14
ATOM     14  C   UNL     1      10.234  -1.667  22.718  0.00  0.00    +0.163 C 
BRANCH  14  15
ATOM     15  C   UNL     1      10.108  -0.154  22.887  0.00  0.00    +0.028 C 
BRANCH  15  16
ATOM     16  C   UNL     1       9.616   0.544  21.614  0.00  0.00    +0.002 C 
BRANCH  16  17
ATOM     17  C   UNL     1       8.328   1.332  21.883  0.00  0.00    +0.000 C 
BRANCH  17  18
ATOM     18  C   UNL     1       7.837   1.153  23.320  0.00  0.00    -0.000 C 
BRANCH  18  19
ATOM     19  C   UNL     1       7.835   2.491  24.066  0.00  0.00    -0.000 C 
BRANCH  19  20
ATOM     20  C   UNL     1       8.436   3.615  23.223  0.00  0.00    -0.003 C 
ATOM     21  C   UNL     1       9.662   4.219  23.895  0.00  0.00    +0.004 C 
ENDBRANCH  19  20
ENDBRANCH  18  19
ENDBRANCH  17  18
ENDBRANCH  16  17
ENDBRANCH  15  16
ENDBRANCH  14  15
ENDBRANCH  13  14
ENDBRANCH   3  13
BRANCH   5  22
ATOM     22  C   UNL     1       6.902  -6.040  22.096  0.00  0.00    +0.190 C 
BRANCH  22  23
ATOM     23  O   UNL     1       5.794  -6.262  21.233  0.00  0.00    -0.392 OA
ATOM     24  H   UNL     1       4.994  -5.937  21.703  0.00  0.00    +0.210 HD
ENDBRANCH  22  23
ENDBRANCH   5  22
TORSDOF 13
ENDMDL
