MODEL 1
REMARK VINA RESULT:      -7.0      0.000      0.000
REMARK  Name = 
REMARK  5 active torsions:
REMARK  status: ('A' for Active; 'I' for Inactive)
REMARK    1  A    between atoms: N_1  and  C_2
REMARK    2  A    between atoms: N_8  and  C_10
REMARK    3  A    between atoms: C_17  and  C_26
REMARK    4  A    between atoms: N_19  and  C_20
REMARK    5  A    between atoms: C_26  and  O_27
REMARK                            x       y       z     vdW  Elec       q    Type
REMARK                         _______ _______ _______ _____ _____    ______ ____
ROOT
ATOM      1  C   UNL     1       7.809  -1.125  24.681  0.00  0.00    +0.086 A 
ATOM      2  C   UNL     1       7.161  -2.194  23.950  0.00  0.00    +0.089 A 
ATOM      3 CL   UNL     1       6.905  -1.923  22.241  0.00  0.00    -0.079 Cl
ATOM      4  C   UNL     1       6.548  -3.329  24.588  0.00  0.00    +0.074 A 
ATOM      5  C   UNL     1       6.453  -3.272  25.996  0.00  0.00    +0.050 A 
ATOM      6  C   UNL     1       5.828  -4.358  26.778  0.00  0.00    +0.203 A 
ATOM      7  C   UNL     1       5.421  -5.580  26.073  0.00  0.00    +0.122 A 
ATOM      8  C   UNL     1       5.562  -5.568  24.745  0.00  0.00    +0.105 A 
ATOM      9  O   UNL     1       5.683  -4.278  27.996  0.00  0.00    -0.286 OA
ATOM     10  C   UNL     1       6.925  -2.188  26.718  0.00  0.00    +0.054 A 
ATOM     11  N   UNL     1       6.018  -4.517  23.953  0.00  0.00    -0.341 N 
ATOM     12  C   UNL     1       7.604  -1.166  26.077  0.00  0.00    +0.147 A 
ATOM     13  F   UNL     1       8.072  -0.227  26.909  0.00  0.00    -0.203 F 
ENDROOT
BRANCH   1  16
ATOM     14  C   UNL     1       7.454   2.019  23.276  0.00  0.00    +0.068 C 
ATOM     15  C   UNL     1       8.304   1.347  24.378  0.00  0.00    +0.123 C 
ATOM     16  N   UNL     1       8.537  -0.085  24.057  0.00  0.00    -0.325 N 
ATOM     17  C   UNL     1       9.876  -0.338  23.494  0.00  0.00    +0.105 C 
ATOM     18  C   UNL     1      10.201   0.581  22.300  0.00  0.00    +0.019 C 
ATOM     19  C   UNL     1       9.015   1.030  21.436  0.00  0.00    +0.003 C 
ATOM     20  C   UNL     1       8.279   2.254  22.001  0.00  0.00    +0.020 C 
BRANCH  14  21
ATOM     21  N   UNL     1       6.228   1.259  22.982  0.00  0.00    -0.326 NA
ATOM     22  H   UNL     1       5.503   1.491  23.658  0.00  0.00    +0.119 HD
ATOM     23  H   UNL     1       5.890   1.578  22.071  0.00  0.00    +0.119 HD
ENDBRANCH  14  21
ENDBRANCH   1  16
BRANCH  11  24
ATOM     24  C   UNL     1       6.082  -4.772  22.494  0.00  0.00    +0.087 C 
ATOM     25  C   UNL     1       5.853  -6.174  21.967  0.00  0.00    +0.027 C 
ATOM     26  C   UNL     1       7.190  -5.541  21.795  0.00  0.00    +0.027 C 
ENDBRANCH  11  24
BRANCH   7  27
ATOM     27  C   UNL     1       4.882  -6.771  26.762  0.00  0.00    +0.342 C 
ATOM     28  O   UNL     1       3.867  -7.347  26.405  0.00  0.00    -0.245 OA
BRANCH  27  29
ATOM     29  O   UNL     1       5.605  -7.181  27.827  0.00  0.00    -0.477 OA
ATOM     30  H   UNL     1       5.091  -7.242  28.671  0.00  0.00    +0.295 HD
ENDBRANCH  27  29
ENDBRANCH   7  27
TORSDOF 5
ENDMDL
MODEL 2
REMARK VINA RESULT:      -7.0      2.454      3.720
REMARK  Name = 
REMARK  5 active torsions:
REMARK  status: ('A' for Active; 'I' for Inactive)
REMARK    1  A    between atoms: N_1  and  C_2
REMARK    2  A    between atoms: N_8  and  C_10
REMARK    3  A    between atoms: C_17  and  C_26
REMARK    4  A    between atoms: N_19  and  C_20
REMARK    5  A    between atoms: C_26  and  O_27
REMARK                            x       y       z     vdW  Elec       q    Type
REMARK                         _______ _______ _______ _____ _____    ______ ____
ROOT
ATOM      1  C   UNL     1       7.406  -3.135  23.858  0.00  0.00    +0.086 A 
ATOM      2  C   UNL     1       7.196  -4.006  24.996  0.00  0.00    +0.089 A 
ATOM      3 CL   UNL     1       8.464  -4.032  26.200  0.00  0.00    -0.079 Cl
ATOM      4  C   UNL     1       6.134  -4.975  25.063  0.00  0.00    +0.074 A 
ATOM      5  C   UNL     1       5.390  -5.163  23.876  0.00  0.00    +0.050 A 
ATOM      6  C   UNL     1       4.286  -6.141  23.797  0.00  0.00    +0.203 A 
ATOM      7  C   UNL     1       3.875  -6.831  25.027  0.00  0.00    +0.122 A 
ATOM      8  C   UNL     1       4.612  -6.584  26.113  0.00  0.00    +0.105 A 
ATOM      9  O   UNL     1       3.684  -6.354  22.747  0.00  0.00    -0.286 OA
ATOM     10  C   UNL     1       5.667  -4.454  22.719  0.00  0.00    +0.054 A 
ATOM     11  N   UNL     1       5.744  -5.777  26.203  0.00  0.00    -0.341 N 
ATOM     12  C   UNL     1       6.626  -3.456  22.725  0.00  0.00    +0.147 A 
ATOM     13  F   UNL     1       6.729  -2.802  21.562  0.00  0.00    -0.203 F 
ENDROOT
BRANCH   1  16
ATOM     14  C   UNL     1       7.689   0.314  23.920  0.00  0.00    +0.068 C 
ATOM     15  C   UNL     1       8.227  -0.893  24.722  0.00  0.00    +0.123 C 
ATOM     16  N   UNL     1       8.354  -2.086  23.846  0.00  0.00    -0.325 N 
ATOM     17  C   UNL     1       9.741  -2.331  23.405  0.00  0.00    +0.105 C 
ATOM     18  C   UNL     1      10.393  -1.083  22.778  0.00  0.00    +0.019 C 
ATOM     19  C   UNL     1       9.456  -0.110  22.049  0.00  0.00    +0.003 C 
ATOM     20  C   UNL     1       8.768   0.891  22.989  0.00  0.00    +0.020 C 
BRANCH  14  21
ATOM     21  N   UNL     1       6.465  -0.019  23.172  0.00  0.00    -0.326 NA
ATOM     22  H   UNL     1       6.445   0.492  22.291  0.00  0.00    +0.119 HD
ATOM     23  H   UNL     1       6.522  -1.011  22.932  0.00  0.00    +0.119 HD
ENDBRANCH  14  21
ENDBRANCH   1  16
BRANCH  11  24
ATOM     24  C   UNL     1       6.373  -5.672  27.540  0.00  0.00    +0.087 C 
ATOM     25  C   UNL     1       5.843  -6.508  28.687  0.00  0.00    +0.027 C 
ATOM     26  C   UNL     1       5.730  -5.025  28.754  0.00  0.00    +0.027 C 
ENDBRANCH  11  24
BRANCH   7  27
ATOM     27  C   UNL     1       2.720  -7.749  25.093  0.00  0.00    +0.342 C 
ATOM     28  O   UNL     1       1.912  -7.742  26.007  0.00  0.00    -0.245 OA
BRANCH  27  29
ATOM     29  O   UNL     1       2.621  -8.606  24.053  0.00  0.00    -0.477 OA
ATOM     30  H   UNL     1       2.784  -9.554  24.288  0.00  0.00    +0.295 HD
ENDBRANCH  27  29
ENDBRANCH   7  27
TORSDOF 5
ENDMDL
MODEL 3
REMARK VINA RESULT:      -6.9      2.195      3.441
REMARK  Name = 
REMARK  5 active torsions:
REMARK  status: ('A' for Active; 'I' for Inactive)
REMARK    1  A    between atoms: N_1  and  C_2
REMARK    2  A    between atoms: N_8  and  C_10
REMARK    3  A    between atoms: C_17  and  C_26
REMARK    4  A    between atoms: N_19  and  C_20
REMARK    5  A    between atoms: C_26  and  O_27
REMARK                            x       y       z     vdW  Elec       q    Type
REMARK                         _______ _______ _______ _____ _____    ______ ____
ROOT
ATOM      1  C   UNL     1       7.989  -1.492  23.984  0.00  0.00    +0.086 A 
ATOM      2  C   UNL     1       7.366  -2.223  25.068  0.00  0.00    +0.089 A 
ATOM      3 CL   UNL     1       7.865  -1.788  26.687  0.00  0.00    -0.079 Cl
ATOM      4  C   UNL     1       6.553  -3.394  24.867  0.00  0.00    +0.074 A 
ATOM      5  C   UNL     1       6.526  -3.911  23.552  0.00  0.00    +0.050 A 
ATOM      6  C   UNL     1       5.750  -5.119  23.208  0.00  0.00    +0.203 A 
ATOM      7  C   UNL     1       4.884  -5.710  24.238  0.00  0.00    +0.122 A 
ATOM      8  C   UNL     1       4.948  -5.152  25.449  0.00  0.00    +0.105 A 
ATOM      9  O   UNL     1       5.780  -5.610  22.081  0.00  0.00    -0.286 OA
ATOM     10  C   UNL     1       7.238  -3.323  22.520  0.00  0.00    +0.054 A 
ATOM     11  N   UNL     1       5.765  -4.100  25.855  0.00  0.00    -0.341 N 
ATOM     12  C   UNL     1       7.922  -2.138  22.730  0.00  0.00    +0.147 A 
ATOM     13  F   UNL     1       8.495  -1.645  21.626  0.00  0.00    -0.203 F 
ENDROOT
BRANCH   1  16
ATOM     14  C   UNL     1       7.676   1.917  23.474  0.00  0.00    +0.068 C 
ATOM     15  C   UNL     1       7.975   0.958  24.649  0.00  0.00    +0.123 C 
ATOM     16  N   UNL     1       8.666  -0.263  24.162  0.00  0.00    -0.325 N 
ATOM     17  C   UNL     1      10.122  -0.235  24.399  0.00  0.00    +0.105 C 
ATOM     18  C   UNL     1      10.784   1.052  23.869  0.00  0.00    +0.019 C 
ATOM     19  C   UNL     1      10.137   1.702  22.638  0.00  0.00    +0.003 C 
ATOM     20  C   UNL     1       8.954   2.618  22.985  0.00  0.00    +0.020 C 
BRANCH  14  21
ATOM     21  N   UNL     1       6.987   1.236  22.365  0.00  0.00    -0.326 NA
ATOM     22  H   UNL     1       7.452   1.446  21.484  0.00  0.00    +0.119 HD
ATOM     23  H   UNL     1       7.094   0.231  22.519  0.00  0.00    +0.119 HD
ENDBRANCH  14  21
ENDBRANCH   1  16
BRANCH  11  24
ATOM     24  C   UNL     1       5.631  -3.668  27.266  0.00  0.00    +0.087 C 
ATOM     25  C   UNL     1       4.476  -4.180  28.101  0.00  0.00    +0.027 C 
ATOM     26  C   UNL     1       4.560  -2.727  27.789  0.00  0.00    +0.027 C 
ENDBRANCH  11  24
BRANCH   7  27
ATOM     27  C   UNL     1       3.985  -6.853  23.981  0.00  0.00    +0.342 C 
ATOM     28  O   UNL     1       3.889  -7.810  24.733  0.00  0.00    -0.245 OA
BRANCH  27  29
ATOM     29  O   UNL     1       3.267  -6.761  22.840  0.00  0.00    -0.477 OA
ATOM     30  H   UNL     1       2.328  -7.065  22.923  0.00  0.00    +0.295 HD
ENDBRANCH  27  29
ENDBRANCH   7  27
TORSDOF 5
ENDMDL
MODEL 4
REMARK VINA RESULT:      -6.8      2.365      3.774
REMARK  Name = 
REMARK  5 active torsions:
REMARK  status: ('A' for Active; 'I' for Inactive)
REMARK    1  A    between atoms: N_1  and  C_2
REMARK    2  A    between atoms: N_8  and  C_10
REMARK    3  A    between atoms: C_17  and  C_26
REMARK    4  A    between atoms: N_19  and  C_20
REMARK    5  A    between atoms: C_26  and  O_27
REMARK                            x       y       z     vdW  Elec       q    Type
REMARK                         _______ _______ _______ _____ _____    ______ ____
ROOT
ATOM      1  C   UNL     1       8.067  -0.485  23.176  0.00  0.00    +0.086 A 
ATOM      2  C   UNL     1       7.400  -0.781  24.426  0.00  0.00    +0.089 A 
ATOM      3 CL   UNL     1       7.420   0.483  25.635  0.00  0.00    -0.079 Cl
ATOM      4  C   UNL     1       6.933  -2.095  24.780  0.00  0.00    +0.074 A 
ATOM      5  C   UNL     1       7.312  -3.142  23.911  0.00  0.00    +0.050 A 
ATOM      6  C   UNL     1       6.920  -4.544  24.166  0.00  0.00    +0.203 A 
ATOM      7  C   UNL     1       6.003  -4.821  25.279  0.00  0.00    +0.122 A 
ATOM      8  C   UNL     1       5.672  -3.776  26.042  0.00  0.00    +0.105 A 
ATOM      9  O   UNL     1       7.307  -5.465  23.449  0.00  0.00    -0.286 OA
ATOM     10  C   UNL     1       8.085  -2.915  22.785  0.00  0.00    +0.054 A 
ATOM     11  N   UNL     1       6.124  -2.465  25.923  0.00  0.00    -0.341 N 
ATOM     12  C   UNL     1       8.424  -1.624  22.420  0.00  0.00    +0.147 A 
ATOM     13  F   UNL     1       9.102  -1.550  21.269  0.00  0.00    -0.203 F 
ENDROOT
BRANCH   1  16
ATOM     14  C   UNL     1      10.489   1.969  23.485  0.00  0.00    +0.068 C 
ATOM     15  C   UNL     1       9.774   1.203  22.349  0.00  0.00    +0.123 C 
ATOM     16  N   UNL     1       8.397   0.826  22.760  0.00  0.00    -0.325 N 
ATOM     17  C   UNL     1       7.365   1.720  22.202  0.00  0.00    +0.105 C 
ATOM     18  C   UNL     1       7.660   3.209  22.473  0.00  0.00    +0.019 C 
ATOM     19  C   UNL     1       8.422   3.534  23.765  0.00  0.00    +0.003 C 
ATOM     20  C   UNL     1       9.946   3.400  23.623  0.00  0.00    +0.020 C 
BRANCH  14  21
ATOM     21  N   UNL     1      10.418   1.250  24.768  0.00  0.00    -0.326 NA
ATOM     22  H   UNL     1      11.347   1.169  25.176  0.00  0.00    +0.119 HD
ATOM     23  H   UNL     1       9.869   1.830  25.406  0.00  0.00    +0.119 HD
ENDBRANCH  14  21
ENDBRANCH   1  16
BRANCH  11  24
ATOM     24  C   UNL     1       5.590  -1.492  26.905  0.00  0.00    +0.087 C 
ATOM     25  C   UNL     1       4.440  -1.891  27.807  0.00  0.00    +0.027 C 
ATOM     26  C   UNL     1       4.237  -0.810  26.804  0.00  0.00    +0.027 C 
ENDBRANCH  11  24
BRANCH   7  27
ATOM     27  C   UNL     1       5.461  -6.165  25.565  0.00  0.00    +0.342 C 
ATOM     28  O   UNL     1       5.577  -6.715  26.649  0.00  0.00    -0.245 OA
BRANCH  27  29
ATOM     29  O   UNL     1       4.817  -6.746  24.529  0.00  0.00    -0.477 OA
ATOM     30  H   UNL     1       4.514  -6.113  23.830  0.00  0.00    +0.295 HD
ENDBRANCH  27  29
ENDBRANCH   7  27
TORSDOF 5
ENDMDL
MODEL 5
REMARK VINA RESULT:      -6.7      3.351      4.958
REMARK  Name = 
REMARK  5 active torsions:
REMARK  status: ('A' for Active; 'I' for Inactive)
REMARK    1  A    between atoms: N_1  and  C_2
REMARK    2  A    between atoms: N_8  and  C_10
REMARK    3  A    between atoms: C_17  and  C_26
REMARK    4  A    between atoms: N_19  and  C_20
REMARK    5  A    between atoms: C_26  and  O_27
REMARK                            x       y       z     vdW  Elec       q    Type
REMARK                         _______ _______ _______ _____ _____    ______ ____
ROOT
ATOM      1  C   UNL     1       8.612   2.197  24.198  0.00  0.00    +0.086 A 
ATOM      2  C   UNL     1       8.058   1.215  25.105  0.00  0.00    +0.089 A 
ATOM      3 CL   UNL     1       7.259   1.837  26.531  0.00  0.00    -0.079 Cl
ATOM      4  C   UNL     1       8.322  -0.196  24.998  0.00  0.00    +0.074 A 
ATOM      5  C   UNL     1       9.300  -0.574  24.052  0.00  0.00    +0.050 A 
ATOM      6  C   UNL     1       9.684  -1.986  23.852  0.00  0.00    +0.203 A 
ATOM      7  C   UNL     1       8.927  -3.023  24.566  0.00  0.00    +0.122 A 
ATOM      8  C   UNL     1       8.003  -2.588  25.427  0.00  0.00    +0.105 A 
ATOM      9  O   UNL     1      10.583  -2.310  23.079  0.00  0.00    -0.286 OA
ATOM     10  C   UNL     1       9.964   0.359  23.273  0.00  0.00    +0.054 A 
ATOM     11  N   UNL     1       7.701  -1.268  25.749  0.00  0.00    -0.341 N 
ATOM     12  C   UNL     1       9.606   1.695  23.329  0.00  0.00    +0.147 A 
ATOM     13  F   UNL     1      10.275   2.468  22.465  0.00  0.00    -0.203 F 
ENDROOT
BRANCH   1  16
ATOM     14  C   UNL     1       6.768   4.561  22.466  0.00  0.00    +0.068 C 
ATOM     15  C   UNL     1       6.860   4.012  23.908  0.00  0.00    +0.123 C 
ATOM     16  N   UNL     1       8.244   3.563  24.209  0.00  0.00    -0.325 N 
ATOM     17  C   UNL     1       9.005   4.540  25.009  0.00  0.00    +0.105 C 
ATOM     18  C   UNL     1       8.978   5.956  24.400  0.00  0.00    +0.019 C 
ATOM     19  C   UNL     1       8.875   6.044  22.871  0.00  0.00    +0.003 C 
ATOM     20  C   UNL     1       7.433   5.942  22.351  0.00  0.00    +0.020 C 
BRANCH  14  21
ATOM     21  N   UNL     1       7.326   3.621  21.479  0.00  0.00    -0.326 NA
ATOM     22  H   UNL     1       6.679   2.850  21.327  0.00  0.00    +0.119 HD
ATOM     23  H   UNL     1       7.394   4.124  20.592  0.00  0.00    +0.119 HD
ENDBRANCH  14  21
ENDBRANCH   1  16
BRANCH  11  24
ATOM     24  C   UNL     1       6.619  -1.062  26.740  0.00  0.00    +0.087 C 
ATOM     25  C   UNL     1       5.692  -2.209  27.087  0.00  0.00    +0.027 C 
ATOM     26  C   UNL     1       5.138  -1.006  26.409  0.00  0.00    +0.027 C 
ENDBRANCH  11  24
BRANCH   7  27
ATOM     27  C   UNL     1       9.151  -4.470  24.368  0.00  0.00    +0.342 C 
ATOM     28  O   UNL     1       8.355  -5.196  23.795  0.00  0.00    -0.245 OA
BRANCH  27  29
ATOM     29  O   UNL     1      10.316  -4.935  24.871  0.00  0.00    -0.477 OA
ATOM     30  H   UNL     1      10.520  -4.618  25.786  0.00  0.00    +0.295 HD
ENDBRANCH  27  29
ENDBRANCH   7  27
TORSDOF 5
ENDMDL
MODEL 6
REMARK VINA RESULT:      -6.7      4.623      8.085
REMARK  Name = 
REMARK  5 active torsions:
REMARK  status: ('A' for Active; 'I' for Inactive)
REMARK    1  A    between atoms: N_1  and  C_2
REMARK    2  A    between atoms: N_8  and  C_10
REMARK    3  A    between atoms: C_17  and  C_26
REMARK    4  A    between atoms: N_19  and  C_20
REMARK    5  A    between atoms: C_26  and  O_27
REMARK                            x       y       z     vdW  Elec       q    Type
REMARK                         _______ _______ _______ _____ _____    ______ ____
ROOT
ATOM      1  C   UNL     1       7.752  -1.098  23.221  0.00  0.00    +0.086 A 
ATOM      2  C   UNL     1       7.350   0.084  23.952  0.00  0.00    +0.089 A 
ATOM      3 CL   UNL     1       5.755   0.050  24.669  0.00  0.00    -0.079 Cl
ATOM      4  C   UNL     1       8.089   1.319  23.926  0.00  0.00    +0.074 A 
ATOM      5  C   UNL     1       9.156   1.382  23.002  0.00  0.00    +0.050 A 
ATOM      6  C   UNL     1       9.986   2.596  22.855  0.00  0.00    +0.203 A 
ATOM      7  C   UNL     1       9.769   3.707  23.791  0.00  0.00    +0.122 A 
ATOM      8  C   UNL     1       8.756   3.564  24.649  0.00  0.00    +0.105 A 
ATOM      9  O   UNL     1      10.870   2.677  22.005  0.00  0.00    -0.286 OA
ATOM     10  C   UNL     1       9.472   0.318  22.174  0.00  0.00    +0.054 A 
ATOM     11  N   UNL     1       7.863   2.499  24.734  0.00  0.00    -0.341 N 
ATOM     12  C   UNL     1       8.806  -0.888  22.304  0.00  0.00    +0.147 A 
ATOM     13  F   UNL     1       9.270  -1.848  21.496  0.00  0.00    -0.203 F 
ENDROOT
BRANCH   1  16
ATOM     14  C   UNL     1       8.143  -4.248  24.604  0.00  0.00    +0.068 C 
ATOM     15  C   UNL     1       7.105  -3.103  24.638  0.00  0.00    +0.123 C 
ATOM     16  N   UNL     1       7.113  -2.353  23.356  0.00  0.00    -0.325 N 
ATOM     17  C   UNL     1       6.003  -2.732  22.460  0.00  0.00    +0.105 C 
ATOM     18  C   UNL     1       5.915  -4.254  22.236  0.00  0.00    +0.019 C 
ATOM     19  C   UNL     1       7.235  -5.034  22.289  0.00  0.00    +0.003 C 
ATOM     20  C   UNL     1       7.666  -5.408  23.715  0.00  0.00    +0.020 C 
BRANCH  14  21
ATOM     21  N   UNL     1       9.475  -3.775  24.189  0.00  0.00    -0.326 NA
ATOM     22  H   UNL     1       9.434  -2.788  23.945  0.00  0.00    +0.119 HD
ATOM     23  H   UNL     1      10.086  -3.849  25.005  0.00  0.00    +0.119 HD
ENDBRANCH  14  21
ENDBRANCH   1  16
BRANCH  11  24
ATOM     24  C   UNL     1       6.827   2.590  25.790  0.00  0.00    +0.087 C 
ATOM     25  C   UNL     1       6.978   3.606  26.902  0.00  0.00    +0.027 C 
ATOM     26  C   UNL     1       7.016   2.155  27.232  0.00  0.00    +0.027 C 
ENDBRANCH  11  24
BRANCH   7  27
ATOM     27  C   UNL     1      10.604   4.926  23.808  0.00  0.00    +0.342 C 
ATOM     28  O   UNL     1      10.172   6.028  24.104  0.00  0.00    -0.245 OA
BRANCH  27  29
ATOM     29  O   UNL     1      11.898   4.727  23.470  0.00  0.00    -0.477 OA
ATOM     30  H   UNL     1      12.247   3.830  23.700  0.00  0.00    +0.295 HD
ENDBRANCH  27  29
ENDBRANCH   7  27
TORSDOF 5
ENDMDL
MODEL 7
REMARK VINA RESULT:      -6.5      4.336      7.825
REMARK  Name = 
REMARK  5 active torsions:
REMARK  status: ('A' for Active; 'I' for Inactive)
REMARK    1  A    between atoms: N_1  and  C_2
REMARK    2  A    between atoms: N_8  and  C_10
REMARK    3  A    between atoms: C_17  and  C_26
REMARK    4  A    between atoms: N_19  and  C_20
REMARK    5  A    between atoms: C_26  and  O_27
REMARK                            x       y       z     vdW  Elec       q    Type
REMARK                         _______ _______ _______ _____ _____    ______ ____
ROOT
ATOM      1  C   UNL     1       8.661  -1.776  24.583  0.00  0.00    +0.086 A 
ATOM      2  C   UNL     1       7.862  -0.683  25.095  0.00  0.00    +0.089 A 
ATOM      3 CL   UNL     1       6.297  -1.104  25.752  0.00  0.00    -0.079 Cl
ATOM      4  C   UNL     1       8.197   0.703  24.892  0.00  0.00    +0.074 A 
ATOM      5  C   UNL     1       9.269   0.958  24.009  0.00  0.00    +0.050 A 
ATOM      6  C   UNL     1       9.706   2.333  23.694  0.00  0.00    +0.203 A 
ATOM      7  C   UNL     1       9.088   3.447  24.426  0.00  0.00    +0.122 A 
ATOM      8  C   UNL     1       8.097   3.124  25.260  0.00  0.00    +0.105 A 
ATOM      9  O   UNL     1      10.593   2.559  22.874  0.00  0.00    -0.286 OA
ATOM     10  C   UNL     1       9.958  -0.065  23.379  0.00  0.00    +0.054 A 
ATOM     11  N   UNL     1       7.560   1.859  25.487  0.00  0.00    -0.341 N 
ATOM     12  C   UNL     1       9.676  -1.386  23.682  0.00  0.00    +0.147 A 
ATOM     13  F   UNL     1      10.473  -2.263  23.060  0.00  0.00    -0.203 F 
ENDROOT
BRANCH   1  16
ATOM     14  C   UNL     1       6.827  -4.543  23.601  0.00  0.00    +0.068 C 
ATOM     15  C   UNL     1       8.308  -4.183  23.855  0.00  0.00    +0.123 C 
ATOM     16  N   UNL     1       8.418  -3.133  24.900  0.00  0.00    -0.325 N 
ATOM     17  C   UNL     1       8.787  -3.674  26.222  0.00  0.00    +0.105 C 
ATOM     18  C   UNL     1       7.874  -4.834  26.665  0.00  0.00    +0.019 C 
ATOM     19  C   UNL     1       6.423  -4.796  26.165  0.00  0.00    +0.003 C 
ATOM     20  C   UNL     1       6.250  -5.379  24.755  0.00  0.00    +0.020 C 
BRANCH  14  21
ATOM     21  N   UNL     1       6.002  -3.349  23.347  0.00  0.00    -0.326 NA
ATOM     22  H   UNL     1       6.573  -2.510  23.419  0.00  0.00    +0.119 HD
ATOM     23  H   UNL     1       5.686  -3.406  22.377  0.00  0.00    +0.119 HD
ENDBRANCH  14  21
ENDBRANCH   1  16
BRANCH  11  24
ATOM     24  C   UNL     1       6.460   1.778  26.476  0.00  0.00    +0.087 C 
ATOM     25  C   UNL     1       6.184   2.955  27.389  0.00  0.00    +0.027 C 
ATOM     26  C   UNL     1       6.649   1.670  27.979  0.00  0.00    +0.027 C 
ENDBRANCH  11  24
BRANCH   7  27
ATOM     27  C   UNL     1       9.515   4.853  24.272  0.00  0.00    +0.342 C 
ATOM     28  O   UNL     1       9.498   5.660  25.187  0.00  0.00    -0.245 OA
BRANCH  27  29
ATOM     29  O   UNL     1       9.932   5.182  23.029  0.00  0.00    -0.477 OA
ATOM     30  H   UNL     1      10.821   5.617  22.999  0.00  0.00    +0.295 HD
ENDBRANCH  27  29
ENDBRANCH   7  27
TORSDOF 5
ENDMDL
MODEL 8
REMARK VINA RESULT:      -6.4      3.632      7.262
REMARK  Name = 
REMARK  5 active torsions:
REMARK  status: ('A' for Active; 'I' for Inactive)
REMARK    1  A    between atoms: N_1  and  C_2
REMARK    2  A    between atoms: N_8  and  C_10
REMARK    3  A    between atoms: C_17  and  C_26
REMARK    4  A    between atoms: N_19  and  C_20
REMARK    5  A    between atoms: C_26  and  O_27
REMARK                            x       y       z     vdW  Elec       q    Type
REMARK                         _______ _______ _______ _____ _____    ______ ____
ROOT
ATOM      1  C   UNL     1       7.524  -1.818  25.753  0.00  0.00    +0.086 A 
ATOM      2  C   UNL     1       8.434  -0.945  25.043  0.00  0.00    +0.089 A 
ATOM      3 CL   UNL     1       9.796  -1.715  24.259  0.00  0.00    -0.079 Cl
ATOM      4  C   UNL     1       8.389   0.490  25.139  0.00  0.00    +0.074 A 
ATOM      5  C   UNL     1       7.507   1.019  26.108  0.00  0.00    +0.050 A 
ATOM      6  C   UNL     1       7.375   2.473  26.327  0.00  0.00    +0.203 A 
ATOM      7  C   UNL     1       8.085   3.384  25.419  0.00  0.00    +0.122 A 
ATOM      8  C   UNL     1       8.881   2.808  24.514  0.00  0.00    +0.105 A 
ATOM      9  O   UNL     1       6.660   2.932  27.216  0.00  0.00    -0.286 OA
ATOM     10  C   UNL     1       6.732   0.203  26.914  0.00  0.00    +0.054 A 
ATOM     11  N   UNL     1       9.143   1.449  24.359  0.00  0.00    -0.341 N 
ATOM     12  C   UNL     1       6.725  -1.168  26.719  0.00  0.00    +0.147 A 
ATOM     13  F   UNL     1       5.870  -1.820  27.515  0.00  0.00    -0.203 F 
ENDROOT
BRANCH   1  16
ATOM     14  C   UNL     1       5.676  -4.304  24.205  0.00  0.00    +0.068 C 
ATOM     15  C   UNL     1       7.143  -3.815  24.232  0.00  0.00    +0.123 C 
ATOM     16  N   UNL     1       7.469  -3.217  25.552  0.00  0.00    -0.325 N 
ATOM     17  C   UNL     1       8.227  -4.132  26.427  0.00  0.00    +0.105 C 
ATOM     18  C   UNL     1       7.553  -5.511  26.570  0.00  0.00    +0.019 C 
ATOM     19  C   UNL     1       6.021  -5.539  26.476  0.00  0.00    +0.003 C 
ATOM     20  C   UNL     1       5.500  -5.588  25.032  0.00  0.00    +0.020 C 
BRANCH  14  21
ATOM     21  N   UNL     1       4.736  -3.258  24.644  0.00  0.00    -0.326 NA
ATOM     22  H   UNL     1       4.976  -2.369  24.209  0.00  0.00    +0.119 HD
ATOM     23  H   UNL     1       3.814  -3.518  24.289  0.00  0.00    +0.119 HD
ENDBRANCH  14  21
ENDBRANCH   1  16
BRANCH  11  24
ATOM     24  C   UNL     1      10.070   1.078  23.265  0.00  0.00    +0.087 C 
ATOM     25  C   UNL     1      10.345   2.062  22.147  0.00  0.00    +0.027 C 
ATOM     26  C   UNL     1       9.651   0.783  21.835  0.00  0.00    +0.027 C 
ENDBRANCH  11  24
BRANCH   7  27
ATOM     27  C   UNL     1       7.947   4.853  25.475  0.00  0.00    +0.342 C 
ATOM     28  O   UNL     1       7.608   5.530  24.517  0.00  0.00    -0.245 OA
BRANCH  27  29
ATOM     29  O   UNL     1       8.224   5.400  26.679  0.00  0.00    -0.477 OA
ATOM     30  H   UNL     1       7.638   5.087  27.414  0.00  0.00    +0.295 HD
ENDBRANCH  27  29
ENDBRANCH   7  27
TORSDOF 5
ENDMDL
MODEL 9
REMARK VINA RESULT:      -6.4      3.772      7.546
REMARK  Name = 
REMARK  5 active torsions:
REMARK  status: ('A' for Active; 'I' for Inactive)
REMARK    1  A    between atoms: N_1  and  C_2
REMARK    2  A    between atoms: N_8  and  C_10
REMARK    3  A    between atoms: C_17  and  C_26
REMARK    4  A    between atoms: N_19  and  C_20
REMARK    5  A    between atoms: C_26  and  O_27
REMARK                            x       y       z     vdW  Elec       q    Type
REMARK                         _______ _______ _______ _____ _____    ______ ____
ROOT
ATOM      1  C   UNL     1       7.103  -3.361  25.031  0.00  0.00    +0.086 A 
ATOM      2  C   UNL     1       6.874  -1.957  25.298  0.00  0.00    +0.089 A 
ATOM      3 CL   UNL     1       5.421  -1.562  26.188  0.00  0.00    -0.079 Cl
ATOM      4  C   UNL     1       7.644  -0.902  24.694  0.00  0.00    +0.074 A 
ATOM      5  C   UNL     1       8.544  -1.295  23.678  0.00  0.00    +0.050 A 
ATOM      6  C   UNL     1       9.382  -0.314  22.960  0.00  0.00    +0.203 A 
ATOM      7  C   UNL     1       9.368   1.083  23.414  0.00  0.00    +0.122 A 
ATOM      8  C   UNL     1       8.508   1.372  24.395  0.00  0.00    +0.105 A 
ATOM      9  O   UNL     1      10.114  -0.646  22.029  0.00  0.00    -0.286 OA
ATOM     10  C   UNL     1       8.676  -2.618  23.289  0.00  0.00    +0.054 A 
ATOM     11  N   UNL     1       7.601   0.511  25.007  0.00  0.00    -0.341 N 
ATOM     12  C   UNL     1       7.996  -3.615  23.967  0.00  0.00    +0.147 A 
ATOM     13  F   UNL     1       8.281  -4.849  23.535  0.00  0.00    -0.203 F 
ENDROOT
BRANCH   1  16
ATOM     14  C   UNL     1       4.267  -5.346  24.977  0.00  0.00    +0.068 C 
ATOM     15  C   UNL     1       5.799  -5.540  25.025  0.00  0.00    +0.123 C 
ATOM     16  N   UNL     1       6.448  -4.403  25.728  0.00  0.00    -0.325 N 
ATOM     17  C   UNL     1       6.813  -4.721  27.121  0.00  0.00    +0.105 C 
ATOM     18  C   UNL     1       5.633  -5.299  27.927  0.00  0.00    +0.019 C 
ATOM     19  C   UNL     1       4.230  -4.818  27.531  0.00  0.00    +0.003 C 
ATOM     20  C   UNL     1       3.629  -5.599  26.353  0.00  0.00    +0.020 C 
BRANCH  14  21
ATOM     21  N   UNL     1       3.893  -4.020  24.456  0.00  0.00    -0.326 NA
ATOM     22  H   UNL     1       4.568  -3.322  24.759  0.00  0.00    +0.119 HD
ATOM     23  H   UNL     1       3.962  -4.070  23.437  0.00  0.00    +0.119 HD
ENDBRANCH  14  21
ENDBRANCH   1  16
BRANCH  11  24
ATOM     24  C   UNL     1       6.761   1.094  26.080  0.00  0.00    +0.087 C 
ATOM     25  C   UNL     1       7.130   2.436  26.676  0.00  0.00    +0.027 C 
ATOM     26  C   UNL     1       7.175   1.222  27.535  0.00  0.00    +0.027 C 
ENDBRANCH  11  24
BRANCH   7  27
ATOM     27  C   UNL     1      10.239   2.129  22.843  0.00  0.00    +0.342 C 
ATOM     28  O   UNL     1      10.956   2.847  23.522  0.00  0.00    -0.245 OA
BRANCH  27  29
ATOM     29  O   UNL     1      10.187   2.234  21.496  0.00  0.00    -0.477 OA
ATOM     30  H   UNL     1      10.214   1.367  21.019  0.00  0.00    +0.295 HD
ENDBRANCH  27  29
ENDBRANCH   7  27
TORSDOF 5
ENDMDL
