MODEL 1
REMARK VINA RESULT:      -4.8      0.000      0.000
REMARK  Name = 
REMARK  14 active torsions:
REMARK  status: ('A' for Active; 'I' for Inactive)
REMARK    1  A    between atoms: C_2  and  C_3
REMARK    2  A    between atoms: C_2  and  C_4
REMARK    3  A    between atoms: C_2  and  C_6
REMARK    4  A    between atoms: C_4  and  O_5
REMARK    5  A    between atoms: C_6  and  C_7
REMARK    6  A    between atoms: C_7  and  C_9
REMARK    7  A    between atoms: C_7  and  C_10
REMARK    8  A    between atoms: C_10  and  O_12
REMARK    9  A    between atoms: C_10  and  C_13
REMARK   10  A    between atoms: C_13  and  C_15
REMARK   11  A    between atoms: C_13  and  C_16
REMARK   12  A    between atoms: C_16  and  C_18
REMARK   13  A    between atoms: C_18  and  P_19
REMARK   14  A    between atoms: P_19  and  O_21
REMARK                            x       y       z     vdW  Elec       q    Type
REMARK                         _______ _______ _______ _____ _____    ______ ____
ROOT
ATOM      1  C   UNL     1       8.881  -2.633  24.856  0.00  0.00    +0.127 C 
ENDROOT
BRANCH   1   2
ATOM      2  C   UNL     1       8.888  -1.069  24.924  0.00  0.00    +0.015 C 
ATOM      3  C   UNL     1       9.114  -0.572  26.357  0.00  0.00    +0.010 C 
BRANCH   2   4
ATOM      4  C   UNL     1       9.944  -0.459  23.948  0.00  0.00    +0.011 C 
BRANCH   4   5
ATOM      5  C   UNL     1       9.448   0.393  22.746  0.00  0.00    +0.012 C 
ATOM      6  C   UNL     1      10.165   1.747  22.679  0.00  0.00    +0.010 C 
BRANCH   5   7
ATOM      7  C   UNL     1       9.472  -0.317  21.388  0.00  0.00    +0.159 C 
BRANCH   7   8
ATOM      8  O   UNL     1      10.145  -1.568  21.452  0.00  0.00    -0.395 OA
ATOM      9  H   UNL     1      10.558  -1.639  22.327  0.00  0.00    +0.209 HD
ENDBRANCH   7   8
ENDBRANCH   5   7
ENDBRANCH   4   5
ENDBRANCH   2   4
ENDBRANCH   1   2
BRANCH   1  10
ATOM     10  C   UNL     1       7.506  -3.259  24.475  0.00  0.00    +0.081 C 
ATOM     11  C   UNL     1       6.345  -2.283  24.706  0.00  0.00    +0.018 C 
BRANCH  10  12
ATOM     12  C   UNL     1       7.496  -3.796  23.038  0.00  0.00    +0.148 C 
ATOM     13  O   UNL     1       7.521  -3.051  22.056  0.00  0.00    -0.296 OA
BRANCH  12  14
ATOM     14  C   UNL     1       7.359  -5.277  22.822  0.00  0.00    +0.168 C 
BRANCH  14  15
ATOM     15  P   UNL     1       5.845  -5.687  21.949  0.00  0.00    +0.198 P 
ATOM     16  O   UNL     1       6.076  -5.556  20.466  0.00  0.00    -0.294 OA
ATOM     17  H   UNL     1       5.116  -6.758  22.506  0.00  0.00    +0.128 HD
BRANCH  15  18
ATOM     18  O   UNL     1       4.941  -4.403  22.375  0.00  0.00    -0.345 OA
ATOM     19  H   UNL     1       4.904  -4.280  23.346  0.00  0.00    +0.217 HD
ENDBRANCH  15  18
ENDBRANCH  14  15
ENDBRANCH  12  14
ENDBRANCH  10  12
ENDBRANCH   1  10
BRANCH   1  20
ATOM     20  O   UNL     1       9.874  -3.039  23.906  0.00  0.00    -0.391 OA
ATOM     21  H   UNL     1      10.755  -2.759  24.214  0.00  0.00    +0.210 HD
ENDBRANCH   1  20
TORSDOF 11
ENDMDL
MODEL 2
REMARK VINA RESULT:      -4.8      2.890      3.575
REMARK  Name = 
REMARK  14 active torsions:
REMARK  status: ('A' for Active; 'I' for Inactive)
REMARK    1  A    between atoms: C_2  and  C_3
REMARK    2  A    between atoms: C_2  and  C_4
REMARK    3  A    between atoms: C_2  and  C_6
REMARK    4  A    between atoms: C_4  and  O_5
REMARK    5  A    between atoms: C_6  and  C_7
REMARK    6  A    between atoms: C_7  and  C_9
REMARK    7  A    between atoms: C_7  and  C_10
REMARK    8  A    between atoms: C_10  and  O_12
REMARK    9  A    between atoms: C_10  and  C_13
REMARK   10  A    between atoms: C_13  and  C_15
REMARK   11  A    between atoms: C_13  and  C_16
REMARK   12  A    between atoms: C_16  and  C_18
REMARK   13  A    between atoms: C_18  and  P_19
REMARK   14  A    between atoms: P_19  and  O_21
REMARK                            x       y       z     vdW  Elec       q    Type
REMARK                         _______ _______ _______ _____ _____    ______ ____
ROOT
ATOM      1  C   UNL     1       7.694  -1.126  24.629  0.00  0.00    +0.127 C 
ENDROOT
BRANCH   1   2
ATOM      2  C   UNL     1       7.541   0.373  24.203  0.00  0.00    +0.015 C 
ATOM      3  C   UNL     1       6.097   0.860  24.378  0.00  0.00    +0.010 C 
BRANCH   2   4
ATOM      4  C   UNL     1       8.537   1.292  24.978  0.00  0.00    +0.011 C 
BRANCH   4   5
ATOM      5  C   UNL     1       9.682   1.988  24.188  0.00  0.00    +0.012 C 
ATOM      6  C   UNL     1      10.918   1.087  24.073  0.00  0.00    +0.010 C 
BRANCH   5   7
ATOM      7  C   UNL     1       9.280   2.559  22.823  0.00  0.00    +0.159 C 
BRANCH   7   8
ATOM      8  O   UNL     1      10.120   2.085  21.779  0.00  0.00    -0.395 OA
ATOM      9  H   UNL     1       9.814   2.482  20.948  0.00  0.00    +0.209 HD
ENDBRANCH   7   8
ENDBRANCH   5   7
ENDBRANCH   4   5
ENDBRANCH   2   4
ENDBRANCH   1   2
BRANCH   1  10
ATOM     10  C   UNL     1       8.064  -2.095  23.467  0.00  0.00    +0.081 C 
ATOM     11  C   UNL     1       8.706  -1.358  22.284  0.00  0.00    +0.018 C 
BRANCH  10  12
ATOM     12  C   UNL     1       8.952  -3.252  23.942  0.00  0.00    +0.148 C 
ATOM     13  O   UNL     1      10.181  -3.166  23.981  0.00  0.00    -0.296 OA
BRANCH  12  14
ATOM     14  C   UNL     1       8.304  -4.564  24.285  0.00  0.00    +0.168 C 
BRANCH  14  15
ATOM     15  P   UNL     1       8.719  -5.099  25.948  0.00  0.00    +0.198 P 
ATOM     16  O   UNL     1       8.736  -3.904  26.864  0.00  0.00    -0.294 OA
ATOM     17  H   UNL     1       8.152  -6.332  26.328  0.00  0.00    +0.128 HD
BRANCH  15  18
ATOM     18  O   UNL     1      10.278  -5.501  25.712  0.00  0.00    -0.345 OA
ATOM     19  H   UNL     1      10.398  -6.081  24.932  0.00  0.00    +0.217 HD
ENDBRANCH  15  18
ENDBRANCH  14  15
ENDBRANCH  12  14
ENDBRANCH  10  12
ENDBRANCH   1  10
BRANCH   1  20
ATOM     20  O   UNL     1       8.697  -1.195  25.650  0.00  0.00    -0.391 OA
ATOM     21  H   UNL     1       8.303  -1.536  26.473  0.00  0.00    +0.210 HD
ENDBRANCH   1  20
TORSDOF 11
ENDMDL
MODEL 3
REMARK VINA RESULT:      -4.8      2.536      3.261
REMARK  Name = 
REMARK  14 active torsions:
REMARK  status: ('A' for Active; 'I' for Inactive)
REMARK    1  A    between atoms: C_2  and  C_3
REMARK    2  A    between atoms: C_2  and  C_4
REMARK    3  A    between atoms: C_2  and  C_6
REMARK    4  A    between atoms: C_4  and  O_5
REMARK    5  A    between atoms: C_6  and  C_7
REMARK    6  A    between atoms: C_7  and  C_9
REMARK    7  A    between atoms: C_7  and  C_10
REMARK    8  A    between atoms: C_10  and  O_12
REMARK    9  A    between atoms: C_10  and  C_13
REMARK   10  A    between atoms: C_13  and  C_15
REMARK   11  A    between atoms: C_13  and  C_16
REMARK   12  A    between atoms: C_16  and  C_18
REMARK   13  A    between atoms: C_18  and  P_19
REMARK   14  A    between atoms: P_19  and  O_21
REMARK                            x       y       z     vdW  Elec       q    Type
REMARK                         _______ _______ _______ _____ _____    ______ ____
ROOT
ATOM      1  C   UNL     1       9.529  -2.281  24.127  0.00  0.00    +0.127 C 
ENDROOT
BRANCH   1   2
ATOM      2  C   UNL     1       9.386  -0.724  24.207  0.00  0.00    +0.015 C 
ATOM      3  C   UNL     1       9.330  -0.242  25.662  0.00  0.00    +0.010 C 
BRANCH   2   4
ATOM      4  C   UNL     1      10.529  -0.004  23.424  0.00  0.00    +0.011 C 
BRANCH   4   5
ATOM      5  C   UNL     1      10.150   1.074  22.369  0.00  0.00    +0.012 C 
ATOM      6  C   UNL     1       9.063   0.569  21.412  0.00  0.00    +0.010 C 
BRANCH   5   7
ATOM      7  C   UNL     1       9.792   2.449  22.941  0.00  0.00    +0.159 C 
BRANCH   7   8
ATOM      8  O   UNL     1      10.843   3.391  22.764  0.00  0.00    -0.395 OA
ATOM      9  H   UNL     1      10.844   3.664  21.833  0.00  0.00    +0.209 HD
ENDBRANCH   7   8
ENDBRANCH   5   7
ENDBRANCH   4   5
ENDBRANCH   2   4
ENDBRANCH   1   2
BRANCH   1  10
ATOM     10  C   UNL     1       8.193  -3.043  23.877  0.00  0.00    +0.081 C 
ATOM     11  C   UNL     1       7.768  -2.993  22.404  0.00  0.00    +0.018 C 
BRANCH  10  12
ATOM     12  C   UNL     1       8.250  -4.488  24.385  0.00  0.00    +0.148 C 
ATOM     13  O   UNL     1       9.293  -5.147  24.383  0.00  0.00    -0.296 OA
BRANCH  12  14
ATOM     14  C   UNL     1       6.973  -5.153  24.815  0.00  0.00    +0.168 C 
BRANCH  14  15
ATOM     15  P   UNL     1       6.794  -5.165  26.601  0.00  0.00    +0.198 P 
ATOM     16  O   UNL     1       6.916  -3.757  27.122  0.00  0.00    -0.294 OA
ATOM     17  H   UNL     1       5.827  -6.068  27.090  0.00  0.00    +0.128 HD
BRANCH  15  18
ATOM     18  O   UNL     1       8.185  -5.910  26.998  0.00  0.00    -0.345 OA
ATOM     19  H   UNL     1       8.039  -6.682  27.582  0.00  0.00    +0.217 HD
ENDBRANCH  15  18
ENDBRANCH  14  15
ENDBRANCH  12  14
ENDBRANCH  10  12
ENDBRANCH   1  10
BRANCH   1  20
ATOM     20  O   UNL     1      10.459  -2.587  23.080  0.00  0.00    -0.391 OA
ATOM     21  H   UNL     1      10.572  -3.552  23.015  0.00  0.00    +0.210 HD
ENDBRANCH   1  20
TORSDOF 11
ENDMDL
MODEL 4
REMARK VINA RESULT:      -4.8      2.221      2.837
REMARK  Name = 
REMARK  14 active torsions:
REMARK  status: ('A' for Active; 'I' for Inactive)
REMARK    1  A    between atoms: C_2  and  C_3
REMARK    2  A    between atoms: C_2  and  C_4
REMARK    3  A    between atoms: C_2  and  C_6
REMARK    4  A    between atoms: C_4  and  O_5
REMARK    5  A    between atoms: C_6  and  C_7
REMARK    6  A    between atoms: C_7  and  C_9
REMARK    7  A    between atoms: C_7  and  C_10
REMARK    8  A    between atoms: C_10  and  O_12
REMARK    9  A    between atoms: C_10  and  C_13
REMARK   10  A    between atoms: C_13  and  C_15
REMARK   11  A    between atoms: C_13  and  C_16
REMARK   12  A    between atoms: C_16  and  C_18
REMARK   13  A    between atoms: C_18  and  P_19
REMARK   14  A    between atoms: P_19  and  O_21
REMARK                            x       y       z     vdW  Elec       q    Type
REMARK                         _______ _______ _______ _____ _____    ______ ____
ROOT
ATOM      1  C   UNL     1       8.956  -2.592  24.682  0.00  0.00    +0.127 C 
ENDROOT
BRANCH   1   2
ATOM      2  C   UNL     1       8.898  -1.032  24.806  0.00  0.00    +0.015 C 
ATOM      3  C   UNL     1       9.059  -0.580  26.263  0.00  0.00    +0.010 C 
BRANCH   2   4
ATOM      4  C   UNL     1       9.959  -0.346  23.888  0.00  0.00    +0.011 C 
BRANCH   4   5
ATOM      5  C   UNL     1       9.467   0.499  22.679  0.00  0.00    +0.012 C 
ATOM      6  C   UNL     1      10.190   1.849  22.602  0.00  0.00    +0.010 C 
BRANCH   5   7
ATOM      7  C   UNL     1       9.490  -0.222  21.327  0.00  0.00    +0.159 C 
BRANCH   7   8
ATOM      8  O   UNL     1      10.221  -1.440  21.383  0.00  0.00    -0.395 OA
ATOM      9  H   UNL     1       9.696  -2.078  21.892  0.00  0.00    +0.209 HD
ENDBRANCH   7   8
ENDBRANCH   5   7
ENDBRANCH   4   5
ENDBRANCH   2   4
ENDBRANCH   1   2
BRANCH   1  10
ATOM     10  C   UNL     1       7.661  -3.246  24.117  0.00  0.00    +0.081 C 
ATOM     11  C   UNL     1       7.442  -2.904  22.637  0.00  0.00    +0.018 C 
BRANCH  10  12
ATOM     12  C   UNL     1       7.636  -4.763  24.341  0.00  0.00    +0.148 C 
ATOM     13  O   UNL     1       8.461  -5.519  23.822  0.00  0.00    -0.296 OA
BRANCH  12  14
ATOM     14  C   UNL     1       6.514  -5.355  25.147  0.00  0.00    +0.168 C 
BRANCH  14  15
ATOM     15  P   UNL     1       6.907  -5.413  26.897  0.00  0.00    +0.198 P 
ATOM     16  O   UNL     1       6.895  -4.013  27.455  0.00  0.00    -0.294 OA
ATOM     17  H   UNL     1       6.346  -6.505  27.590  0.00  0.00    +0.128 HD
BRANCH  15  18
ATOM     18  O   UNL     1       8.474  -5.840  26.799  0.00  0.00    -0.345 OA
ATOM     19  H   UNL     1       8.912  -5.845  27.675  0.00  0.00    +0.217 HD
ENDBRANCH  15  18
ENDBRANCH  14  15
ENDBRANCH  12  14
ENDBRANCH  10  12
ENDBRANCH   1  10
BRANCH   1  20
ATOM     20  O   UNL     1      10.070  -2.928  23.846  0.00  0.00    -0.391 OA
ATOM     21  H   UNL     1       9.749  -3.195  22.966  0.00  0.00    +0.210 HD
ENDBRANCH   1  20
TORSDOF 11
ENDMDL
MODEL 5
REMARK VINA RESULT:      -4.7      3.191      5.703
REMARK  Name = 
REMARK  14 active torsions:
REMARK  status: ('A' for Active; 'I' for Inactive)
REMARK    1  A    between atoms: C_2  and  C_3
REMARK    2  A    between atoms: C_2  and  C_4
REMARK    3  A    between atoms: C_2  and  C_6
REMARK    4  A    between atoms: C_4  and  O_5
REMARK    5  A    between atoms: C_6  and  C_7
REMARK    6  A    between atoms: C_7  and  C_9
REMARK    7  A    between atoms: C_7  and  C_10
REMARK    8  A    between atoms: C_10  and  O_12
REMARK    9  A    between atoms: C_10  and  C_13
REMARK   10  A    between atoms: C_13  and  C_15
REMARK   11  A    between atoms: C_13  and  C_16
REMARK   12  A    between atoms: C_16  and  C_18
REMARK   13  A    between atoms: C_18  and  P_19
REMARK   14  A    between atoms: P_19  and  O_21
REMARK                            x       y       z     vdW  Elec       q    Type
REMARK                         _______ _______ _______ _____ _____    ______ ____
ROOT
ATOM      1  C   UNL     1       8.888  -2.128  24.759  0.00  0.00    +0.127 C 
ENDROOT
BRANCH   1   2
ATOM      2  C   UNL     1       8.939  -3.587  24.196  0.00  0.00    +0.015 C 
ATOM      3  C   UNL     1       9.584  -4.552  25.199  0.00  0.00    +0.010 C 
BRANCH   2   4
ATOM      4  C   UNL     1       7.521  -4.087  23.774  0.00  0.00    +0.011 C 
BRANCH   4   5
ATOM      5  C   UNL     1       7.176  -4.168  22.260  0.00  0.00    +0.012 C 
ATOM      6  C   UNL     1       7.075  -5.622  21.781  0.00  0.00    +0.010 C 
BRANCH   5   7
ATOM      7  C   UNL     1       5.955  -3.352  21.824  0.00  0.00    +0.159 C 
BRANCH   7   8
ATOM      8  O   UNL     1       5.819  -2.152  22.573  0.00  0.00    -0.395 OA
ATOM      9  H   UNL     1       5.956  -2.369  23.509  0.00  0.00    +0.209 HD
ENDBRANCH   7   8
ENDBRANCH   5   7
ENDBRANCH   4   5
ENDBRANCH   2   4
ENDBRANCH   1   2
BRANCH   1  10
ATOM     10  C   UNL     1       9.621  -1.069  23.882  0.00  0.00    +0.081 C 
ATOM     11  C   UNL     1      10.334  -1.708  22.683  0.00  0.00    +0.018 C 
BRANCH  10  12
ATOM     12  C   UNL     1       8.681   0.055  23.429  0.00  0.00    +0.148 C 
ATOM     13  O   UNL     1       7.836  -0.110  22.545  0.00  0.00    -0.296 OA
BRANCH  12  14
ATOM     14  C   UNL     1       8.858   1.426  24.018  0.00  0.00    +0.168 C 
BRANCH  14  15
ATOM     15  P   UNL     1      10.220   2.310  23.254  0.00  0.00    +0.198 P 
ATOM     16  O   UNL     1      10.077   3.783  23.537  0.00  0.00    -0.294 OA
ATOM     17  H   UNL     1      11.463   1.648  23.320  0.00  0.00    +0.128 HD
BRANCH  15  18
ATOM     18  O   UNL     1       9.814   2.115  21.690  0.00  0.00    -0.345 OA
ATOM     19  H   UNL     1       8.877   1.851  21.580  0.00  0.00    +0.217 HD
ENDBRANCH  15  18
ENDBRANCH  14  15
ENDBRANCH  12  14
ENDBRANCH  10  12
ENDBRANCH   1  10
BRANCH   1  20
ATOM     20  O   UNL     1       7.512  -1.759  24.908  0.00  0.00    -0.391 OA
ATOM     21  H   UNL     1       6.952  -2.362  24.387  0.00  0.00    +0.210 HD
ENDBRANCH   1  20
TORSDOF 11
ENDMDL
MODEL 6
REMARK VINA RESULT:      -4.7      3.014      5.671
REMARK  Name = 
REMARK  14 active torsions:
REMARK  status: ('A' for Active; 'I' for Inactive)
REMARK    1  A    between atoms: C_2  and  C_3
REMARK    2  A    between atoms: C_2  and  C_4
REMARK    3  A    between atoms: C_2  and  C_6
REMARK    4  A    between atoms: C_4  and  O_5
REMARK    5  A    between atoms: C_6  and  C_7
REMARK    6  A    between atoms: C_7  and  C_9
REMARK    7  A    between atoms: C_7  and  C_10
REMARK    8  A    between atoms: C_10  and  O_12
REMARK    9  A    between atoms: C_10  and  C_13
REMARK   10  A    between atoms: C_13  and  C_15
REMARK   11  A    between atoms: C_13  and  C_16
REMARK   12  A    between atoms: C_16  and  C_18
REMARK   13  A    between atoms: C_18  and  P_19
REMARK   14  A    between atoms: P_19  and  O_21
REMARK                            x       y       z     vdW  Elec       q    Type
REMARK                         _______ _______ _______ _____ _____    ______ ____
ROOT
ATOM      1  C   UNL     1       7.322  -2.258  23.213  0.00  0.00    +0.127 C 
ENDROOT
BRANCH   1   2
ATOM      2  C   UNL     1       6.722  -2.994  24.457  0.00  0.00    +0.015 C 
ATOM      3  C   UNL     1       5.237  -2.658  24.644  0.00  0.00    +0.010 C 
BRANCH   2   4
ATOM      4  C   UNL     1       6.937  -4.538  24.366  0.00  0.00    +0.011 C 
BRANCH   4   5
ATOM      5  C   UNL     1       7.835  -5.232  25.430  0.00  0.00    +0.012 C 
ATOM      6  C   UNL     1       9.326  -5.046  25.118  0.00  0.00    +0.010 C 
BRANCH   5   7
ATOM      7  C   UNL     1       7.522  -4.870  26.886  0.00  0.00    +0.159 C 
BRANCH   7   8
ATOM      8  O   UNL     1       7.658  -5.987  27.755  0.00  0.00    -0.395 OA
ATOM      9  H   UNL     1       7.226  -6.746  27.333  0.00  0.00    +0.209 HD
ENDBRANCH   7   8
ENDBRANCH   5   7
ENDBRANCH   4   5
ENDBRANCH   2   4
ENDBRANCH   1   2
BRANCH   1  10
ATOM     10  C   UNL     1       8.427  -1.213  23.549  0.00  0.00    +0.081 C 
ATOM     11  C   UNL     1       8.986  -1.402  24.965  0.00  0.00    +0.018 C 
BRANCH  10  12
ATOM     12  C   UNL     1       9.553  -1.210  22.508  0.00  0.00    +0.148 C 
ATOM     13  O   UNL     1      10.497  -2.004  22.556  0.00  0.00    -0.296 OA
BRANCH  12  14
ATOM     14  C   UNL     1       9.553  -0.145  21.448  0.00  0.00    +0.168 C 
BRANCH  14  15
ATOM     15  P   UNL     1       9.028   1.444  22.097  0.00  0.00    +0.198 P 
ATOM     16  O   UNL     1       7.817   1.916  21.334  0.00  0.00    -0.294 OA
ATOM     17  H   UNL     1       9.133   1.572  23.497  0.00  0.00    +0.128 HD
BRANCH  15  18
ATOM     18  O   UNL     1      10.267   2.361  21.577  0.00  0.00    -0.345 OA
ATOM     19  H   UNL     1      10.784   2.741  22.318  0.00  0.00    +0.217 HD
ENDBRANCH  15  18
ENDBRANCH  14  15
ENDBRANCH  12  14
ENDBRANCH  10  12
ENDBRANCH   1  10
BRANCH   1  20
ATOM     20  O   UNL     1       7.851  -3.249  22.325  0.00  0.00    -0.391 OA
ATOM     21  H   UNL     1       8.096  -2.834  21.478  0.00  0.00    +0.210 HD
ENDBRANCH   1  20
TORSDOF 11
ENDMDL
MODEL 7
REMARK VINA RESULT:      -4.5      3.857      5.784
REMARK  Name = 
REMARK  14 active torsions:
REMARK  status: ('A' for Active; 'I' for Inactive)
REMARK    1  A    between atoms: C_2  and  C_3
REMARK    2  A    between atoms: C_2  and  C_4
REMARK    3  A    between atoms: C_2  and  C_6
REMARK    4  A    between atoms: C_4  and  O_5
REMARK    5  A    between atoms: C_6  and  C_7
REMARK    6  A    between atoms: C_7  and  C_9
REMARK    7  A    between atoms: C_7  and  C_10
REMARK    8  A    between atoms: C_10  and  O_12
REMARK    9  A    between atoms: C_10  and  C_13
REMARK   10  A    between atoms: C_13  and  C_15
REMARK   11  A    between atoms: C_13  and  C_16
REMARK   12  A    between atoms: C_16  and  C_18
REMARK   13  A    between atoms: C_18  and  P_19
REMARK   14  A    between atoms: P_19  and  O_21
REMARK                            x       y       z     vdW  Elec       q    Type
REMARK                         _______ _______ _______ _____ _____    ______ ____
ROOT
ATOM      1  C   UNL     1       8.409   2.301  23.907  0.00  0.00    +0.127 C 
ENDROOT
BRANCH   1   2
ATOM      2  C   UNL     1       8.807   3.709  23.349  0.00  0.00    +0.015 C 
ATOM      3  C   UNL     1       7.594   4.442  22.762  0.00  0.00    +0.010 C 
BRANCH   2   4
ATOM      4  C   UNL     1       9.510   4.578  24.440  0.00  0.00    +0.011 C 
BRANCH   4   5
ATOM      5  C   UNL     1      10.435   5.744  23.987  0.00  0.00    +0.012 C 
ATOM      6  C   UNL     1      10.511   6.849  25.047  0.00  0.00    +0.010 C 
BRANCH   5   7
ATOM      7  C   UNL     1      11.832   5.324  23.519  0.00  0.00    +0.159 C 
BRANCH   7   8
ATOM      8  O   UNL     1      12.859   5.950  24.278  0.00  0.00    -0.395 OA
ATOM      9  H   UNL     1      12.536   6.054  25.186  0.00  0.00    +0.209 HD
ENDBRANCH   7   8
ENDBRANCH   5   7
ENDBRANCH   4   5
ENDBRANCH   2   4
ENDBRANCH   1   2
BRANCH   1  10
ATOM     10  C   UNL     1       9.110   1.103  23.200  0.00  0.00    +0.081 C 
ATOM     11  C   UNL     1       9.860   1.539  21.935  0.00  0.00    +0.018 C 
BRANCH  10  12
ATOM     12  C   UNL     1      10.036   0.334  24.151  0.00  0.00    +0.148 C 
ATOM     13  O   UNL     1      11.192   0.697  24.381  0.00  0.00    -0.296 OA
BRANCH  12  14
ATOM     14  C   UNL     1       9.545  -0.953  24.752  0.00  0.00    +0.168 C 
BRANCH  14  15
ATOM     15  P   UNL     1       9.503  -2.280  23.544  0.00  0.00    +0.198 P 
ATOM     16  O   UNL     1       9.936  -3.564  24.201  0.00  0.00    -0.294 OA
ATOM     17  H   UNL     1       8.418  -2.223  22.645  0.00  0.00    +0.128 HD
BRANCH  15  18
ATOM     18  O   UNL     1      10.748  -1.818  22.604  0.00  0.00    -0.345 OA
ATOM     19  H   UNL     1      10.944  -0.862  22.691  0.00  0.00    +0.217 HD
ENDBRANCH  15  18
ENDBRANCH  14  15
ENDBRANCH  12  14
ENDBRANCH  10  12
ENDBRANCH   1  10
BRANCH   1  20
ATOM     20  O   UNL     1       8.712   2.279  25.307  0.00  0.00    -0.391 OA
ATOM     21  H   UNL     1       8.018   2.751  25.800  0.00  0.00    +0.210 HD
ENDBRANCH   1  20
TORSDOF 11
ENDMDL
MODEL 8
REMARK VINA RESULT:      -4.5      2.548      3.534
REMARK  Name = 
REMARK  14 active torsions:
REMARK  status: ('A' for Active; 'I' for Inactive)
REMARK    1  A    between atoms: C_2  and  C_3
REMARK    2  A    between atoms: C_2  and  C_4
REMARK    3  A    between atoms: C_2  and  C_6
REMARK    4  A    between atoms: C_4  and  O_5
REMARK    5  A    between atoms: C_6  and  C_7
REMARK    6  A    between atoms: C_7  and  C_9
REMARK    7  A    between atoms: C_7  and  C_10
REMARK    8  A    between atoms: C_10  and  O_12
REMARK    9  A    between atoms: C_10  and  C_13
REMARK   10  A    between atoms: C_13  and  C_15
REMARK   11  A    between atoms: C_13  and  C_16
REMARK   12  A    between atoms: C_16  and  C_18
REMARK   13  A    between atoms: C_18  and  P_19
REMARK   14  A    between atoms: P_19  and  O_21
REMARK                            x       y       z     vdW  Elec       q    Type
REMARK                         _______ _______ _______ _____ _____    ______ ____
ROOT
ATOM      1  C   UNL     1       8.981  -2.392  24.413  0.00  0.00    +0.127 C 
ENDROOT
BRANCH   1   2
ATOM      2  C   UNL     1       9.511  -1.100  23.706  0.00  0.00    +0.015 C 
ATOM      3  C   UNL     1      10.325  -1.441  22.452  0.00  0.00    +0.010 C 
BRANCH   2   4
ATOM      4  C   UNL     1       8.346  -0.117  23.365  0.00  0.00    +0.011 C 
BRANCH   4   5
ATOM      5  C   UNL     1       8.623   1.413  23.404  0.00  0.00    +0.012 C 
ATOM      6  C   UNL     1       9.803   1.749  24.324  0.00  0.00    +0.010 C 
BRANCH   5   7
ATOM      7  C   UNL     1       8.775   2.085  22.036  0.00  0.00    +0.159 C 
BRANCH   7   8
ATOM      8  O   UNL     1      10.133   2.144  21.618  0.00  0.00    -0.395 OA
ATOM      9  H   UNL     1      10.403   1.249  21.358  0.00  0.00    +0.209 HD
ENDBRANCH   7   8
ENDBRANCH   5   7
ENDBRANCH   4   5
ENDBRANCH   2   4
ENDBRANCH   1   2
BRANCH   1  10
ATOM     10  C   UNL     1       7.560  -2.842  23.961  0.00  0.00    +0.081 C 
ATOM     11  C   UNL     1       7.616  -3.991  22.945  0.00  0.00    +0.018 C 
BRANCH  10  12
ATOM     12  C   UNL     1       6.663  -3.203  25.151  0.00  0.00    +0.148 C 
ATOM     13  O   UNL     1       5.432  -3.156  25.088  0.00  0.00    -0.296 OA
BRANCH  12  14
ATOM     14  C   UNL     1       7.310  -3.538  26.466  0.00  0.00    +0.168 C 
BRANCH  14  15
ATOM     15  P   UNL     1       7.693  -5.287  26.595  0.00  0.00    +0.198 P 
ATOM     16  O   UNL     1       7.294  -5.783  27.961  0.00  0.00    -0.294 OA
ATOM     17  H   UNL     1       7.449  -6.031  25.423  0.00  0.00    +0.128 HD
BRANCH  15  18
ATOM     18  O   UNL     1       9.317  -5.199  26.610  0.00  0.00    -0.345 OA
ATOM     19  H   UNL     1       9.641  -4.394  27.065  0.00  0.00    +0.217 HD
ENDBRANCH  15  18
ENDBRANCH  14  15
ENDBRANCH  12  14
ENDBRANCH  10  12
ENDBRANCH   1  10
BRANCH   1  20
ATOM     20  O   UNL     1       9.919  -3.447  24.169  0.00  0.00    -0.391 OA
ATOM     21  H   UNL     1       9.652  -3.947  23.377  0.00  0.00    +0.210 HD
ENDBRANCH   1  20
TORSDOF 11
ENDMDL
MODEL 9
REMARK VINA RESULT:      -4.4      1.829      2.481
REMARK  Name = 
REMARK  14 active torsions:
REMARK  status: ('A' for Active; 'I' for Inactive)
REMARK    1  A    between atoms: C_2  and  C_3
REMARK    2  A    between atoms: C_2  and  C_4
REMARK    3  A    between atoms: C_2  and  C_6
REMARK    4  A    between atoms: C_4  and  O_5
REMARK    5  A    between atoms: C_6  and  C_7
REMARK    6  A    between atoms: C_7  and  C_9
REMARK    7  A    between atoms: C_7  and  C_10
REMARK    8  A    between atoms: C_10  and  O_12
REMARK    9  A    between atoms: C_10  and  C_13
REMARK   10  A    between atoms: C_13  and  C_15
REMARK   11  A    between atoms: C_13  and  C_16
REMARK   12  A    between atoms: C_16  and  C_18
REMARK   13  A    between atoms: C_18  and  P_19
REMARK   14  A    between atoms: P_19  and  O_21
REMARK                            x       y       z     vdW  Elec       q    Type
REMARK                         _______ _______ _______ _____ _____    ______ ____
ROOT
ATOM      1  C   UNL     1      10.105  -1.578  23.170  0.00  0.00    +0.127 C 
ENDROOT
BRANCH   1   2
ATOM      2  C   UNL     1       9.763  -0.073  23.432  0.00  0.00    +0.015 C 
ATOM      3  C   UNL     1      10.897   0.637  24.182  0.00  0.00    +0.010 C 
BRANCH   2   4
ATOM      4  C   UNL     1       9.418   0.674  22.105  0.00  0.00    +0.011 C 
BRANCH   4   5
ATOM      5  C   UNL     1       8.060   1.426  22.001  0.00  0.00    +0.012 C 
ATOM      6  C   UNL     1       6.983   0.768  22.871  0.00  0.00    +0.010 C 
BRANCH   5   7
ATOM      7  C   UNL     1       8.130   2.937  22.249  0.00  0.00    +0.159 C 
BRANCH   7   8
ATOM      8  O   UNL     1       9.455   3.372  22.523  0.00  0.00    -0.395 OA
ATOM      9  H   UNL     1       9.865   3.624  21.681  0.00  0.00    +0.209 HD
ENDBRANCH   7   8
ENDBRANCH   5   7
ENDBRANCH   4   5
ENDBRANCH   2   4
ENDBRANCH   1   2
BRANCH   1  10
ATOM     10  C   UNL     1       9.128  -2.591  23.837  0.00  0.00    +0.081 C 
ATOM     11  C   UNL     1       8.479  -2.016  25.103  0.00  0.00    +0.018 C 
BRANCH  10  12
ATOM     12  C   UNL     1       8.066  -3.099  22.855  0.00  0.00    +0.148 C 
ATOM     13  O   UNL     1       7.500  -2.353  22.052  0.00  0.00    -0.296 OA
BRANCH  12  14
ATOM     14  C   UNL     1       7.636  -4.537  22.937  0.00  0.00    +0.168 C 
BRANCH  14  15
ATOM     15  P   UNL     1       5.873  -4.724  22.657  0.00  0.00    +0.198 P 
ATOM     16  O   UNL     1       5.484  -6.162  22.884  0.00  0.00    -0.294 OA
ATOM     17  H   UNL     1       5.086  -3.649  23.119  0.00  0.00    +0.128 HD
BRANCH  15  18
ATOM     18  O   UNL     1       5.839  -4.502  21.045  0.00  0.00    -0.345 OA
ATOM     19  H   UNL     1       6.040  -3.578  20.793  0.00  0.00    +0.217 HD
ENDBRANCH  15  18
ENDBRANCH  14  15
ENDBRANCH  12  14
ENDBRANCH  10  12
ENDBRANCH   1  10
BRANCH   1  20
ATOM     20  O   UNL     1      10.122  -1.787  21.753  0.00  0.00    -0.391 OA
ATOM     21  H   UNL     1       9.685  -2.632  21.541  0.00  0.00    +0.210 HD
ENDBRANCH   1  20
TORSDOF 11
ENDMDL
