MODEL 1
REMARK VINA RESULT:      -4.3      0.000      0.000
REMARK  Name = 
REMARK  7 active torsions:
REMARK  status: ('A' for Active; 'I' for Inactive)
REMARK    1  A    between atoms: CE_1  and  SD_2
REMARK    2  A    between atoms: SD_2  and  CG_3
REMARK    3  A    between atoms: CG_3  and  CB_4
REMARK    4  A    between atoms: CB_4  and  CA_5
REMARK    5  A    between atoms: CA_5  and  N_7
REMARK    6  A    between atoms: CA_5  and  C_11
REMARK    7  A    between atoms: C_11  and  O_12
REMARK                            x       y       z     vdW  Elec       q    Type
REMARK                         _______ _______ _______ _____ _____    ______ ____
ROOT
ATOM      1  CA  MET A   1       7.677  -4.413  23.082  0.00  0.00    +0.184 C 
ENDROOT
BRANCH   1   2
ATOM      2  N   MET A   1       7.676  -4.942  24.456  0.00  0.00    -0.286 N 
ATOM      3  H   MET A   1       6.771  -5.114  24.872  0.00  0.00    +0.151 HD
ATOM      4  C   UNK A   0       8.758  -5.236  25.212  0.00  0.00    +0.298 C 
ATOM      5  O   UNK A   0       9.912  -5.030  24.870  0.00  0.00    -0.253 OA
ATOM      6  N   UNK A   0       8.447  -5.759  26.418  0.00  0.00    -0.313 N 
ATOM      7  H   UNK A   0       9.250  -5.929  27.014  0.00  0.00    +0.146 HD
ATOM      8  H   UNK A   0       7.641  -5.397  26.907  0.00  0.00    +0.146 HD
ENDBRANCH   1   2
BRANCH   1   9
ATOM      9  C   MET A   1       6.730  -5.195  22.155  0.00  0.00    +0.325 C 
ATOM     10  OXT MET A   1       6.882  -6.380  21.887  0.00  0.00    -0.249 OA
BRANCH   9  11
ATOM     11  O   MET A   1       5.772  -4.446  21.569  0.00  0.00    -0.479 OA
ATOM     12  H   MET A   1       5.296  -4.943  20.870  0.00  0.00    +0.295 HD
ENDBRANCH   9  11
ENDBRANCH   1   9
BRANCH   1  13
ATOM     13  CB  MET A   1       7.359  -2.916  22.940  0.00  0.00    +0.044 C 
BRANCH  13  14
ATOM     14  CG  MET A   1       8.445  -2.137  22.203  0.00  0.00    +0.071 C 
BRANCH  14  16
ATOM     15  CE  MET A   1       9.066  -1.420  24.818  0.00  0.00    +0.084 C 
ATOM     16  SD  MET A   1       9.901  -1.834  23.261  0.00  0.00    -0.164 S 
ENDBRANCH  14  16
ENDBRANCH  13  14
ENDBRANCH   1  13
TORSDOF 6
ENDMDL
MODEL 2
REMARK VINA RESULT:      -4.3      4.224      5.617
REMARK  Name = 
REMARK  7 active torsions:
REMARK  status: ('A' for Active; 'I' for Inactive)
REMARK    1  A    between atoms: CE_1  and  SD_2
REMARK    2  A    between atoms: SD_2  and  CG_3
REMARK    3  A    between atoms: CG_3  and  CB_4
REMARK    4  A    between atoms: CB_4  and  CA_5
REMARK    5  A    between atoms: CA_5  and  N_7
REMARK    6  A    between atoms: CA_5  and  C_11
REMARK    7  A    between atoms: C_11  and  O_12
REMARK                            x       y       z     vdW  Elec       q    Type
REMARK                         _______ _______ _______ _____ _____    ______ ____
ROOT
ATOM      1  CA  MET A   1       9.271  -0.590  23.541  0.00  0.00    +0.184 C 
ENDROOT
BRANCH   1   2
ATOM      2  N   MET A   1       9.899   0.672  23.112  0.00  0.00    -0.286 N 
ATOM      3  H   MET A   1      10.605   1.055  23.725  0.00  0.00    +0.151 HD
ATOM      4  C   UNK A   0       9.642   1.360  21.976  0.00  0.00    +0.298 C 
ATOM      5  O   UNK A   0       8.778   1.054  21.168  0.00  0.00    -0.253 OA
ATOM      6  N   UNK A   0      10.414   2.457  21.825  0.00  0.00    -0.313 N 
ATOM      7  H   UNK A   0      10.189   3.011  21.006  0.00  0.00    +0.146 HD
ATOM      8  H   UNK A   0      10.639   3.005  22.643  0.00  0.00    +0.146 HD
ENDBRANCH   1   2
BRANCH   1   9
ATOM      9  C   MET A   1       9.928  -1.820  22.891  0.00  0.00    +0.325 C 
ATOM     10  OXT MET A   1      10.454  -2.717  23.537  0.00  0.00    -0.249 OA
BRANCH   9  11
ATOM     11  O   MET A   1       9.976  -1.786  21.543  0.00  0.00    -0.479 OA
ATOM     12  H   MET A   1      10.444  -0.989  21.214  0.00  0.00    +0.295 HD
ENDBRANCH   9  11
ENDBRANCH   1   9
BRANCH   1  13
ATOM     13  CB  MET A   1       9.209  -0.825  25.059  0.00  0.00    +0.044 C 
BRANCH  13  14
ATOM     14  CG  MET A   1       7.878  -1.410  25.524  0.00  0.00    +0.071 C 
BRANCH  14  16
ATOM     15  CE  MET A   1       7.437  -4.093  24.940  0.00  0.00    +0.084 C 
ATOM     16  SD  MET A   1       8.086  -3.057  26.281  0.00  0.00    -0.164 S 
ENDBRANCH  14  16
ENDBRANCH  13  14
ENDBRANCH   1  13
TORSDOF 6
ENDMDL
MODEL 3
REMARK VINA RESULT:      -4.2      2.649      3.594
REMARK  Name = 
REMARK  7 active torsions:
REMARK  status: ('A' for Active; 'I' for Inactive)
REMARK    1  A    between atoms: CE_1  and  SD_2
REMARK    2  A    between atoms: SD_2  and  CG_3
REMARK    3  A    between atoms: CG_3  and  CB_4
REMARK    4  A    between atoms: CB_4  and  CA_5
REMARK    5  A    between atoms: CA_5  and  N_7
REMARK    6  A    between atoms: CA_5  and  C_11
REMARK    7  A    between atoms: C_11  and  O_12
REMARK                            x       y       z     vdW  Elec       q    Type
REMARK                         _______ _______ _______ _____ _____    ______ ____
ROOT
ATOM      1  CA  MET A   1       9.629  -1.969  24.103  0.00  0.00    +0.184 C 
ENDROOT
BRANCH   1   2
ATOM      2  N   MET A   1       8.787  -3.040  24.663  0.00  0.00    -0.286 N 
ATOM      3  H   MET A   1       7.833  -2.793  24.887  0.00  0.00    +0.151 HD
ATOM      4  C   UNK A   0       9.152  -4.322  24.891  0.00  0.00    +0.298 C 
ATOM      5  O   UNK A   0      10.282  -4.755  24.725  0.00  0.00    -0.253 OA
ATOM      6  N   UNK A   0       8.148  -5.093  25.361  0.00  0.00    -0.313 N 
ATOM      7  H   UNK A   0       8.427  -6.041  25.590  0.00  0.00    +0.146 HD
ATOM      8  H   UNK A   0       7.495  -4.688  26.016  0.00  0.00    +0.146 HD
ENDBRANCH   1   2
BRANCH   1   9
ATOM      9  C   MET A   1       9.339  -1.716  22.614  0.00  0.00    +0.325 C 
ATOM     10  OXT MET A   1       8.209  -1.566  22.167  0.00  0.00    -0.249 OA
BRANCH   9  11
ATOM     11  O   MET A   1      10.422  -1.779  21.811  0.00  0.00    -0.479 OA
ATOM     12  H   MET A   1      10.900  -0.923  21.775  0.00  0.00    +0.295 HD
ENDBRANCH   9  11
ENDBRANCH   1   9
BRANCH   1  13
ATOM     13  CB  MET A   1       9.573  -0.620  24.838  0.00  0.00    +0.044 C 
BRANCH  13  14
ATOM     14  CG  MET A   1      10.682   0.340  24.419  0.00  0.00    +0.071 C 
BRANCH  14  16
ATOM     15  CE  MET A   1      10.076   1.800  22.130  0.00  0.00    +0.084 C 
ATOM     16  SD  MET A   1      10.023   1.972  23.936  0.00  0.00    -0.164 S 
ENDBRANCH  14  16
ENDBRANCH  13  14
ENDBRANCH   1  13
TORSDOF 6
ENDMDL
MODEL 4
REMARK VINA RESULT:      -4.2      6.636      8.062
REMARK  Name = 
REMARK  7 active torsions:
REMARK  status: ('A' for Active; 'I' for Inactive)
REMARK    1  A    between atoms: CE_1  and  SD_2
REMARK    2  A    between atoms: SD_2  and  CG_3
REMARK    3  A    between atoms: CG_3  and  CB_4
REMARK    4  A    between atoms: CB_4  and  CA_5
REMARK    5  A    between atoms: CA_5  and  N_7
REMARK    6  A    between atoms: CA_5  and  C_11
REMARK    7  A    between atoms: C_11  and  O_12
REMARK                            x       y       z     vdW  Elec       q    Type
REMARK                         _______ _______ _______ _____ _____    ______ ____
ROOT
ATOM      1  CA  MET A   1       8.369   2.893  22.919  0.00  0.00    +0.184 C 
ENDROOT
BRANCH   1   2
ATOM      2  N   MET A   1       8.301   4.251  22.352  0.00  0.00    -0.286 N 
ATOM      3  H   MET A   1       9.175   4.658  22.052  0.00  0.00    +0.151 HD
ATOM      4  C   UNK A   0       7.189   5.001  22.177  0.00  0.00    +0.298 C 
ATOM      5  O   UNK A   0       6.071   4.669  22.542  0.00  0.00    -0.253 OA
ATOM      6  N   UNK A   0       7.429   6.189  21.583  0.00  0.00    -0.313 N 
ATOM      7  H   UNK A   0       6.611   6.783  21.500  0.00  0.00    +0.146 HD
ATOM      8  H   UNK A   0       8.275   6.687  21.822  0.00  0.00    +0.146 HD
ENDBRANCH   1   2
BRANCH   1   9
ATOM      9  C   MET A   1       8.944   1.873  21.921  0.00  0.00    +0.325 C 
ATOM     10  OXT MET A   1       8.336   0.874  21.559  0.00  0.00    -0.249 OA
BRANCH   9  11
ATOM     11  O   MET A   1      10.221   2.106  21.552  0.00  0.00    -0.479 OA
ATOM     12  H   MET A   1      10.344   3.019  21.216  0.00  0.00    +0.295 HD
ENDBRANCH   9  11
ENDBRANCH   1   9
BRANCH   1  13
ATOM     13  CB  MET A   1       9.140   2.757  24.242  0.00  0.00    +0.044 C 
BRANCH  13  14
ATOM     14  CG  MET A   1       8.989   1.383  24.888  0.00  0.00    +0.071 C 
BRANCH  14  16
ATOM     15  CE  MET A   1       9.936  -1.108  24.093  0.00  0.00    +0.084 C 
ATOM     16  SD  MET A   1      10.545   0.432  24.835  0.00  0.00    -0.164 S 
ENDBRANCH  14  16
ENDBRANCH  13  14
ENDBRANCH   1  13
TORSDOF 6
ENDMDL
MODEL 5
REMARK VINA RESULT:      -4.1      2.746      3.763
REMARK  Name = 
REMARK  7 active torsions:
REMARK  status: ('A' for Active; 'I' for Inactive)
REMARK    1  A    between atoms: CE_1  and  SD_2
REMARK    2  A    between atoms: SD_2  and  CG_3
REMARK    3  A    between atoms: CG_3  and  CB_4
REMARK    4  A    between atoms: CB_4  and  CA_5
REMARK    5  A    between atoms: CA_5  and  N_7
REMARK    6  A    between atoms: CA_5  and  C_11
REMARK    7  A    between atoms: C_11  and  O_12
REMARK                            x       y       z     vdW  Elec       q    Type
REMARK                         _______ _______ _______ _____ _____    ______ ____
ROOT
ATOM      1  CA  MET A   1       8.015  -4.833  26.465  0.00  0.00    +0.184 C 
ENDROOT
BRANCH   1   2
ATOM      2  N   MET A   1       7.016  -5.883  26.731  0.00  0.00    -0.286 N 
ATOM      3  H   MET A   1       6.849  -6.543  25.985  0.00  0.00    +0.151 HD
ATOM      4  C   UNK A   0       6.315  -6.063  27.873  0.00  0.00    +0.298 C 
ATOM      5  O   UNK A   0       6.366  -5.315  28.837  0.00  0.00    -0.253 OA
ATOM      6  N   UNK A   0       5.508  -7.146  27.844  0.00  0.00    -0.313 N 
ATOM      7  H   UNK A   0       4.935  -7.257  28.673  0.00  0.00    +0.146 HD
ATOM      8  H   UNK A   0       5.031  -7.370  26.982  0.00  0.00    +0.146 HD
ENDBRANCH   1   2
BRANCH   1   9
ATOM      9  C   MET A   1       9.024  -5.247  25.381  0.00  0.00    +0.325 C 
ATOM     10  OXT MET A   1       8.729  -5.355  24.197  0.00  0.00    -0.249 OA
BRANCH   9  11
ATOM     11  O   MET A   1      10.242  -5.590  25.848  0.00  0.00    -0.479 OA
ATOM     12  H   MET A   1      10.514  -6.482  25.543  0.00  0.00    +0.295 HD
ENDBRANCH   9  11
ENDBRANCH   1   9
BRANCH   1  13
ATOM     13  CB  MET A   1       7.451  -3.451  26.093  0.00  0.00    +0.044 C 
BRANCH  13  14
ATOM     14  CG  MET A   1       8.476  -2.328  26.223  0.00  0.00    +0.071 C 
BRANCH  14  16
ATOM     15  CE  MET A   1       9.784  -0.102  25.188  0.00  0.00    +0.084 C 
ATOM     16  SD  MET A   1       8.816  -1.528  24.618  0.00  0.00    -0.164 S 
ENDBRANCH  14  16
ENDBRANCH  13  14
ENDBRANCH   1  13
TORSDOF 6
ENDMDL
MODEL 6
REMARK VINA RESULT:      -4.1      1.812      3.467
REMARK  Name = 
REMARK  7 active torsions:
REMARK  status: ('A' for Active; 'I' for Inactive)
REMARK    1  A    between atoms: CE_1  and  SD_2
REMARK    2  A    between atoms: SD_2  and  CG_3
REMARK    3  A    between atoms: CG_3  and  CB_4
REMARK    4  A    between atoms: CB_4  and  CA_5
REMARK    5  A    between atoms: CA_5  and  N_7
REMARK    6  A    between atoms: CA_5  and  C_11
REMARK    7  A    between atoms: C_11  and  O_12
REMARK                            x       y       z     vdW  Elec       q    Type
REMARK                         _______ _______ _______ _____ _____    ______ ____
ROOT
ATOM      1  CA  MET A   1       8.075  -4.500  24.508  0.00  0.00    +0.184 C 
ENDROOT
BRANCH   1   2
ATOM      2  N   MET A   1       7.613  -5.262  23.336  0.00  0.00    -0.286 N 
ATOM      3  H   MET A   1       8.305  -5.463  22.627  0.00  0.00    +0.151 HD
ATOM      4  C   UNK A   0       6.364  -5.735  23.118  0.00  0.00    +0.298 C 
ATOM      5  O   UNK A   0       5.411  -5.525  23.852  0.00  0.00    -0.253 OA
ATOM      6  N   UNK A   0       6.250  -6.447  21.976  0.00  0.00    -0.313 N 
ATOM      7  H   UNK A   0       5.305  -6.757  21.775  0.00  0.00    +0.146 HD
ATOM      8  H   UNK A   0       6.764  -6.141  21.163  0.00  0.00    +0.146 HD
ENDBRANCH   1   2
BRANCH   1   9
ATOM      9  C   MET A   1       8.575  -5.414  25.640  0.00  0.00    +0.325 C 
ATOM     10  OXT MET A   1       7.863  -5.787  26.563  0.00  0.00    -0.249 OA
BRANCH   9  11
ATOM     11  O   MET A   1       9.894  -5.693  25.596  0.00  0.00    -0.479 OA
ATOM     12  H   MET A   1      10.441  -4.878  25.601  0.00  0.00    +0.295 HD
ENDBRANCH   9  11
ENDBRANCH   1   9
BRANCH   1  13
ATOM     13  CB  MET A   1       9.156  -3.441  24.235  0.00  0.00    +0.044 C 
BRANCH  13  14
ATOM     14  CG  MET A   1       8.772  -2.460  23.131  0.00  0.00    +0.071 C 
BRANCH  14  16
ATOM     15  CE  MET A   1      10.243  -0.279  24.032  0.00  0.00    +0.084 C 
ATOM     16  SD  MET A   1      10.183  -1.420  22.623  0.00  0.00    -0.164 S 
ENDBRANCH  14  16
ENDBRANCH  13  14
ENDBRANCH   1  13
TORSDOF 6
ENDMDL
MODEL 7
REMARK VINA RESULT:      -4.1      2.700      3.708
REMARK  Name = 
REMARK  7 active torsions:
REMARK  status: ('A' for Active; 'I' for Inactive)
REMARK    1  A    between atoms: CE_1  and  SD_2
REMARK    2  A    between atoms: SD_2  and  CG_3
REMARK    3  A    between atoms: CG_3  and  CB_4
REMARK    4  A    between atoms: CB_4  and  CA_5
REMARK    5  A    between atoms: CA_5  and  N_7
REMARK    6  A    between atoms: CA_5  and  C_11
REMARK    7  A    between atoms: C_11  and  O_12
REMARK                            x       y       z     vdW  Elec       q    Type
REMARK                         _______ _______ _______ _____ _____    ______ ____
ROOT
ATOM      1  CA  MET A   1       7.948  -4.764  25.281  0.00  0.00    +0.184 C 
ENDROOT
BRANCH   1   2
ATOM      2  N   MET A   1       7.663  -5.676  26.402  0.00  0.00    -0.286 N 
ATOM      3  H   MET A   1       8.124  -6.575  26.381  0.00  0.00    +0.151 HD
ATOM      4  C   UNK A   0       6.863  -5.428  27.464  0.00  0.00    +0.298 C 
ATOM      5  O   UNK A   0       6.196  -4.414  27.601  0.00  0.00    -0.253 OA
ATOM      6  N   UNK A   0       6.836  -6.434  28.364  0.00  0.00    -0.313 N 
ATOM      7  H   UNK A   0       6.194  -6.282  29.135  0.00  0.00    +0.146 HD
ATOM      8  H   UNK A   0       6.853  -7.385  28.026  0.00  0.00    +0.146 HD
ENDBRANCH   1   2
BRANCH   1   9
ATOM      9  C   MET A   1       9.453  -4.663  24.979  0.00  0.00    +0.325 C 
ATOM     10  OXT MET A   1       9.949  -3.737  24.350  0.00  0.00    -0.249 OA
BRANCH   9  11
ATOM     11  O   MET A   1      10.179  -5.730  25.372  0.00  0.00    -0.479 OA
ATOM     12  H   MET A   1       9.636  -6.547  25.412  0.00  0.00    +0.295 HD
ENDBRANCH   9  11
ENDBRANCH   1   9
BRANCH   1  13
ATOM     13  CB  MET A   1       7.216  -5.072  23.964  0.00  0.00    +0.044 C 
BRANCH  13  14
ATOM     14  CG  MET A   1       5.873  -4.358  23.841  0.00  0.00    +0.071 C 
BRANCH  14  16
ATOM     15  CE  MET A   1       7.102  -2.099  22.781  0.00  0.00    +0.084 C 
ATOM     16  SD  MET A   1       6.023  -2.568  24.163  0.00  0.00    -0.164 S 
ENDBRANCH  14  16
ENDBRANCH  13  14
ENDBRANCH   1  13
TORSDOF 6
ENDMDL
MODEL 8
REMARK VINA RESULT:      -4.0      3.180      4.486
REMARK  Name = 
REMARK  7 active torsions:
REMARK  status: ('A' for Active; 'I' for Inactive)
REMARK    1  A    between atoms: CE_1  and  SD_2
REMARK    2  A    between atoms: SD_2  and  CG_3
REMARK    3  A    between atoms: CG_3  and  CB_4
REMARK    4  A    between atoms: CB_4  and  CA_5
REMARK    5  A    between atoms: CA_5  and  N_7
REMARK    6  A    between atoms: CA_5  and  C_11
REMARK    7  A    between atoms: C_11  and  O_12
REMARK                            x       y       z     vdW  Elec       q    Type
REMARK                         _______ _______ _______ _____ _____    ______ ____
ROOT
ATOM      1  CA  MET A   1       8.416  -4.310  24.349  0.00  0.00    +0.184 C 
ENDROOT
BRANCH   1   2
ATOM      2  N   MET A   1       8.826  -2.924  24.635  0.00  0.00    -0.286 N 
ATOM      3  H   MET A   1       8.364  -2.469  25.410  0.00  0.00    +0.151 HD
ATOM      4  C   UNK A   0       9.766  -2.206  23.980  0.00  0.00    +0.298 C 
ATOM      5  O   UNK A   0      10.367  -2.598  22.992  0.00  0.00    -0.253 OA
ATOM      6  N   UNK A   0       9.966  -0.977  24.503  0.00  0.00    -0.313 N 
ATOM      7  H   UNK A   0      10.627  -0.409  23.984  0.00  0.00    +0.146 HD
ATOM      8  H   UNK A   0       9.168  -0.464  24.849  0.00  0.00    +0.146 HD
ENDBRANCH   1   2
BRANCH   1   9
ATOM      9  C   MET A   1       8.932  -5.302  25.405  0.00  0.00    +0.325 C 
ATOM     10  OXT MET A   1       8.231  -5.751  26.302  0.00  0.00    -0.249 OA
BRANCH   9  11
ATOM     11  O   MET A   1      10.255  -5.561  25.334  0.00  0.00    -0.479 OA
ATOM     12  H   MET A   1      10.432  -6.495  25.088  0.00  0.00    +0.295 HD
ENDBRANCH   9  11
ENDBRANCH   1   9
BRANCH   1  13
ATOM     13  CB  MET A   1       6.905  -4.539  24.174  0.00  0.00    +0.044 C 
BRANCH  13  14
ATOM     14  CG  MET A   1       6.568  -5.449  22.996  0.00  0.00    +0.071 C 
BRANCH  14  16
ATOM     15  CE  MET A   1       4.563  -6.811  24.361  0.00  0.00    +0.084 C 
ATOM     16  SD  MET A   1       4.776  -5.779  22.884  0.00  0.00    -0.164 S 
ENDBRANCH  14  16
ENDBRANCH  13  14
ENDBRANCH   1  13
TORSDOF 6
ENDMDL
MODEL 9
REMARK VINA RESULT:      -3.9      5.120      6.618
REMARK  Name = 
REMARK  7 active torsions:
REMARK  status: ('A' for Active; 'I' for Inactive)
REMARK    1  A    between atoms: CE_1  and  SD_2
REMARK    2  A    between atoms: SD_2  and  CG_3
REMARK    3  A    between atoms: CG_3  and  CB_4
REMARK    4  A    between atoms: CB_4  and  CA_5
REMARK    5  A    between atoms: CA_5  and  N_7
REMARK    6  A    between atoms: CA_5  and  C_11
REMARK    7  A    between atoms: C_11  and  O_12
REMARK                            x       y       z     vdW  Elec       q    Type
REMARK                         _______ _______ _______ _____ _____    ______ ____
ROOT
ATOM      1  CA  MET A   1       9.106   0.926  21.798  0.00  0.00    +0.184 C 
ENDROOT
BRANCH   1   2
ATOM      2  N   MET A   1       7.734   0.967  22.332  0.00  0.00    -0.286 N 
ATOM      3  H   MET A   1       7.382   0.111  22.737  0.00  0.00    +0.151 HD
ATOM      4  C   UNK A   0       6.904   2.035  22.352  0.00  0.00    +0.298 C 
ATOM      5  O   UNK A   0       7.165   3.118  21.850  0.00  0.00    -0.253 OA
ATOM      6  N   UNK A   0       5.723   1.788  22.956  0.00  0.00    -0.313 N 
ATOM      7  H   UNK A   0       5.072   2.565  22.925  0.00  0.00    +0.146 HD
ATOM      8  H   UNK A   0       5.291   0.885  22.821  0.00  0.00    +0.146 HD
ENDBRANCH   1   2
BRANCH   1   9
ATOM      9  C   MET A   1      10.102   1.692  22.685  0.00  0.00    +0.325 C 
ATOM     10  OXT MET A   1      10.611   1.212  23.690  0.00  0.00    -0.249 OA
BRANCH   9  11
ATOM     11  O   MET A   1      10.294   2.980  22.332  0.00  0.00    -0.479 OA
ATOM     12  H   MET A   1       9.453   3.486  22.320  0.00  0.00    +0.295 HD
ENDBRANCH   9  11
ENDBRANCH   1   9
BRANCH   1  13
ATOM     13  CB  MET A   1       9.680  -0.476  21.533  0.00  0.00    +0.044 C 
BRANCH  13  14
ATOM     14  CG  MET A   1       8.869  -1.591  22.187  0.00  0.00    +0.071 C 
BRANCH  14  16
ATOM     15  CE  MET A   1       8.595  -3.655  24.031  0.00  0.00    +0.084 C 
ATOM     16  SD  MET A   1       9.712  -2.275  23.654  0.00  0.00    -0.164 S 
ENDBRANCH  14  16
ENDBRANCH  13  14
ENDBRANCH   1  13
TORSDOF 6
ENDMDL
