MODEL 1
REMARK VINA RESULT:      -8.4      0.000      0.000
REMARK  Name = 
REMARK  8 active torsions:
REMARK  status: ('A' for Active; 'I' for Inactive)
REMARK    1  A    between atoms: C_1  and  C_2
REMARK    2  A    between atoms: C_2  and  C_3
REMARK    3  A    between atoms: C_6  and  C_7
REMARK    4  A    between atoms: C_6  and  C_8
REMARK    5  A    between atoms: C_13  and  C_15
REMARK    6  A    between atoms: C_15  and  C_17
REMARK    7  A    between atoms: C_24  and  C_27
REMARK    8  A    between atoms: C_27  and  O_28
REMARK                            x       y       z     vdW  Elec       q    Type
REMARK                         _______ _______ _______ _____ _____    ______ ____
ROOT
ATOM      1  C   UNL     1       8.888  -4.095  24.791  0.00  0.00    +0.193 C 
ATOM      2  O   UNL     1       9.915  -4.768  24.856  0.00  0.00    -0.287 OA
ENDROOT
BRANCH   1   8
ATOM      3  C   UNL     1      10.925   2.008  23.959  0.00  0.00    +0.016 C 
ATOM      4  C   UNL     1       9.601   1.526  23.322  0.00  0.00    -0.010 C 
ATOM      5  C   UNL     1       9.353   0.060  23.716  0.00  0.00    -0.038 A 
ATOM      6  C   UNL     1      10.192  -0.946  23.190  0.00  0.00    +0.005 A 
ATOM      7  C   UNL     1      10.028  -2.290  23.532  0.00  0.00    +0.012 A 
ATOM      8  C   UNL     1       8.994  -2.671  24.381  0.00  0.00    +0.023 A 
ATOM      9  C   UNL     1       8.155  -1.692  24.916  0.00  0.00    +0.016 A 
ATOM     10  C   UNL     1       8.345  -0.317  24.635  0.00  0.00    -0.037 A 
ATOM     11  C   UNL     1       7.469   0.712  25.365  0.00  0.00    -0.010 C 
ATOM     12  C   UNL     1       6.028   0.639  24.818  0.00  0.00    +0.016 C 
ATOM     13  C   UNL     1       7.436   0.422  26.885  0.00  0.00    +0.016 C 
ATOM     14  C   UNL     1       8.019   2.147  25.207  0.00  0.00    +0.012 C 
ATOM     15  C   UNL     1       8.440   2.439  23.776  0.00  0.00    +0.012 C 
ATOM     16  C   UNL     1       9.716   1.692  21.789  0.00  0.00    +0.016 C 
ENDBRANCH   1   8
BRANCH   1  17
ATOM     17  C   UNL     1       7.591  -4.742  25.121  0.00  0.00    +0.023 A 
ATOM     18  C   UNL     1       7.402  -5.234  26.417  0.00  0.00    +0.012 A 
ATOM     19  C   UNL     1       6.246  -5.952  26.741  0.00  0.00    +0.009 A 
ATOM     20  C   UNL     1       5.275  -6.221  25.763  0.00  0.00    -0.017 A 
ATOM     21  C   UNL     1       4.145  -7.009  26.048  0.00  0.00    +0.023 A 
ATOM     22  C   UNL     1       3.225  -7.318  25.036  0.00  0.00    +0.059 A 
ATOM     23  C   UNL     1       3.425  -6.838  23.741  0.00  0.00    +0.015 A 
ATOM     24  C   UNL     1       4.530  -6.034  23.455  0.00  0.00    +0.009 A 
ATOM     25  C   UNL     1       5.466  -5.724  24.451  0.00  0.00    -0.017 A 
ATOM     26  C   UNL     1       6.615  -4.972  24.147  0.00  0.00    +0.020 A 
BRANCH  22  27
ATOM     27  C   UNL     1       2.060  -8.205  25.276  0.00  0.00    +0.337 C 
ATOM     28  O   UNL     1       0.937  -7.778  25.478  0.00  0.00    -0.245 OA
BRANCH  27  29
ATOM     29  O   UNL     1       2.370  -9.518  25.292  0.00  0.00    -0.477 OA
ATOM     30  H   UNL     1       3.322  -9.715  25.301  0.00  0.00    +0.295 HD
ENDBRANCH  27  29
ENDBRANCH  22  27
ENDBRANCH   1  17
TORSDOF 4
ENDMDL
MODEL 2
REMARK VINA RESULT:      -8.2      2.632      8.611
REMARK  Name = 
REMARK  8 active torsions:
REMARK  status: ('A' for Active; 'I' for Inactive)
REMARK    1  A    between atoms: C_1  and  C_2
REMARK    2  A    between atoms: C_2  and  C_3
REMARK    3  A    between atoms: C_6  and  C_7
REMARK    4  A    between atoms: C_6  and  C_8
REMARK    5  A    between atoms: C_13  and  C_15
REMARK    6  A    between atoms: C_15  and  C_17
REMARK    7  A    between atoms: C_24  and  C_27
REMARK    8  A    between atoms: C_27  and  O_28
REMARK                            x       y       z     vdW  Elec       q    Type
REMARK                         _______ _______ _______ _____ _____    ______ ____
ROOT
ATOM      1  C   UNL     1       8.780  -4.476  24.895  0.00  0.00    +0.193 C 
ATOM      2  O   UNL     1       9.720  -5.267  24.860  0.00  0.00    -0.287 OA
ENDROOT
BRANCH   1   8
ATOM      3  C   UNL     1       2.332  -5.139  24.619  0.00  0.00    +0.016 C 
ATOM      4  C   UNL     1       3.226  -6.315  25.078  0.00  0.00    -0.010 C 
ATOM      5  C   UNL     1       4.695  -5.862  25.083  0.00  0.00    -0.038 A 
ATOM      6  C   UNL     1       5.341  -5.604  23.855  0.00  0.00    +0.005 A 
ATOM      7  C   UNL     1       6.667  -5.168  23.800  0.00  0.00    +0.012 A 
ATOM      8  C   UNL     1       7.398  -5.016  24.973  0.00  0.00    +0.023 A 
ATOM      9  C   UNL     1       6.778  -5.261  26.200  0.00  0.00    +0.016 A 
ATOM     10  C   UNL     1       5.416  -5.640  26.281  0.00  0.00    -0.037 A 
ATOM     11  C   UNL     1       4.767  -5.762  27.667  0.00  0.00    -0.010 C 
ATOM     12  C   UNL     1       5.318  -7.012  28.384  0.00  0.00    +0.016 C 
ATOM     13  C   UNL     1       5.083  -4.517  28.531  0.00  0.00    +0.016 C 
ATOM     14  C   UNL     1       3.227  -5.847  27.573  0.00  0.00    +0.012 C 
ATOM     15  C   UNL     1       2.777  -6.797  26.476  0.00  0.00    +0.012 C 
ATOM     16  C   UNL     1       2.998  -7.499  24.110  0.00  0.00    +0.016 C 
ENDBRANCH   1   8
BRANCH   1  17
ATOM     17  C   UNL     1       9.074  -3.019  24.862  0.00  0.00    +0.023 A 
ATOM     18  C   UNL     1       8.713  -2.242  25.968  0.00  0.00    +0.012 A 
ATOM     19  C   UNL     1       8.863  -0.851  25.935  0.00  0.00    +0.009 A 
ATOM     20  C   UNL     1       9.345  -0.212  24.781  0.00  0.00    -0.017 A 
ATOM     21  C   UNL     1       9.428   1.191  24.700  0.00  0.00    +0.023 A 
ATOM     22  C   UNL     1       9.850   1.806  23.513  0.00  0.00    +0.059 A 
ATOM     23  C   UNL     1      10.193   1.027  22.407  0.00  0.00    +0.015 A 
ATOM     24  C   UNL     1      10.138  -0.366  22.487  0.00  0.00    +0.009 A 
ATOM     25  C   UNL     1       9.710  -0.998  23.662  0.00  0.00    -0.017 A 
ATOM     26  C   UNL     1       9.588  -2.398  23.720  0.00  0.00    +0.020 A 
BRANCH  22  27
ATOM     27  C   UNL     1       9.882   3.282  23.360  0.00  0.00    +0.337 C 
ATOM     28  O   UNL     1       8.898   3.983  23.522  0.00  0.00    -0.245 OA
BRANCH  27  29
ATOM     29  O   UNL     1      11.084   3.764  22.985  0.00  0.00    -0.477 OA
ATOM     30  H   UNL     1      11.524   4.329  23.643  0.00  0.00    +0.295 HD
ENDBRANCH  27  29
ENDBRANCH  22  27
ENDBRANCH   1  17
TORSDOF 4
ENDMDL
MODEL 3
REMARK VINA RESULT:      -8.1      3.663      9.133
REMARK  Name = 
REMARK  8 active torsions:
REMARK  status: ('A' for Active; 'I' for Inactive)
REMARK    1  A    between atoms: C_1  and  C_2
REMARK    2  A    between atoms: C_2  and  C_3
REMARK    3  A    between atoms: C_6  and  C_7
REMARK    4  A    between atoms: C_6  and  C_8
REMARK    5  A    between atoms: C_13  and  C_15
REMARK    6  A    between atoms: C_15  and  C_17
REMARK    7  A    between atoms: C_24  and  C_27
REMARK    8  A    between atoms: C_27  and  O_28
REMARK                            x       y       z     vdW  Elec       q    Type
REMARK                         _______ _______ _______ _____ _____    ______ ____
ROOT
ATOM      1  C   UNL     1       9.696  -1.313  23.105  0.00  0.00    +0.193 C 
ATOM      2  O   UNL     1      10.568  -1.893  22.461  0.00  0.00    -0.287 OA
ENDROOT
BRANCH   1   8
ATOM      3  C   UNL     1       7.120  -5.673  27.159  0.00  0.00    +0.016 C 
ATOM      4  C   UNL     1       6.218  -4.664  26.411  0.00  0.00    -0.010 C 
ATOM      5  C   UNL     1       7.089  -3.786  25.497  0.00  0.00    -0.038 A 
ATOM      6  C   UNL     1       7.974  -2.853  26.078  0.00  0.00    +0.005 A 
ATOM      7  C   UNL     1       8.805  -2.045  25.298  0.00  0.00    +0.012 A 
ATOM      8  C   UNL     1       8.747  -2.123  23.911  0.00  0.00    +0.023 A 
ATOM      9  C   UNL     1       7.882  -3.042  23.315  0.00  0.00    +0.016 A 
ATOM     10  C   UNL     1       7.079  -3.916  24.088  0.00  0.00    -0.037 A 
ATOM     11  C   UNL     1       6.254  -4.991  23.366  0.00  0.00    -0.010 C 
ATOM     12  C   UNL     1       5.081  -4.322  22.618  0.00  0.00    +0.016 C 
ATOM     13  C   UNL     1       7.127  -5.751  22.337  0.00  0.00    +0.016 C 
ATOM     14  C   UNL     1       5.713  -6.054  24.348  0.00  0.00    +0.012 C 
ATOM     15  C   UNL     1       5.140  -5.423  25.606  0.00  0.00    +0.012 C 
ATOM     16  C   UNL     1       5.465  -3.818  27.464  0.00  0.00    +0.016 C 
ENDBRANCH   1   8
BRANCH   1  17
ATOM     17  C   UNL     1       9.640   0.172  23.049  0.00  0.00    +0.023 A 
ATOM     18  C   UNL     1      10.641   0.902  23.698  0.00  0.00    +0.012 A 
ATOM     19  C   UNL     1      10.566   2.297  23.771  0.00  0.00    +0.009 A 
ATOM     20  C   UNL     1       9.469   2.983  23.227  0.00  0.00    -0.017 A 
ATOM     21  C   UNL     1       9.335   4.377  23.359  0.00  0.00    +0.023 A 
ATOM     22  C   UNL     1       8.197   5.029  22.864  0.00  0.00    +0.059 A 
ATOM     23  C   UNL     1       7.193   4.295  22.232  0.00  0.00    +0.015 A 
ATOM     24  C   UNL     1       7.328   2.914  22.073  0.00  0.00    +0.009 A 
ATOM     25  C   UNL     1       8.454   2.244  22.570  0.00  0.00    -0.017 A 
ATOM     26  C   UNL     1       8.559   0.846  22.471  0.00  0.00    +0.020 A 
BRANCH  22  27
ATOM     27  C   UNL     1       7.982   6.486  23.048  0.00  0.00    +0.337 C 
ATOM     28  O   UNL     1       8.445   7.107  23.989  0.00  0.00    -0.245 OA
BRANCH  27  29
ATOM     29  O   UNL     1       7.194   7.043  22.106  0.00  0.00    -0.477 OA
ATOM     30  H   UNL     1       7.070   8.004  22.188  0.00  0.00    +0.295 HD
ENDBRANCH  27  29
ENDBRANCH  22  27
ENDBRANCH   1  17
TORSDOF 4
ENDMDL
MODEL 4
REMARK VINA RESULT:      -8.1      2.775      4.821
REMARK  Name = 
REMARK  8 active torsions:
REMARK  status: ('A' for Active; 'I' for Inactive)
REMARK    1  A    between atoms: C_1  and  C_2
REMARK    2  A    between atoms: C_2  and  C_3
REMARK    3  A    between atoms: C_6  and  C_7
REMARK    4  A    between atoms: C_6  and  C_8
REMARK    5  A    between atoms: C_13  and  C_15
REMARK    6  A    between atoms: C_15  and  C_17
REMARK    7  A    between atoms: C_24  and  C_27
REMARK    8  A    between atoms: C_27  and  O_28
REMARK                            x       y       z     vdW  Elec       q    Type
REMARK                         _______ _______ _______ _____ _____    ______ ____
ROOT
ATOM      1  C   UNL     1      10.389   0.554  24.331  0.00  0.00    +0.193 C 
ATOM      2  O   UNL     1      11.502   0.408  24.831  0.00  0.00    -0.287 OA
ENDROOT
BRANCH   1   8
ATOM      3  C   UNL     1       9.304   6.895  25.172  0.00  0.00    +0.016 C 
ATOM      4  C   UNL     1       8.339   6.037  24.321  0.00  0.00    -0.010 C 
ATOM      5  C   UNL     1       8.819   4.576  24.328  0.00  0.00    -0.038 A 
ATOM      6  C   UNL     1      10.013   4.240  23.656  0.00  0.00    +0.005 A 
ATOM      7  C   UNL     1      10.509   2.934  23.648  0.00  0.00    +0.012 A 
ATOM      8  C   UNL     1       9.802   1.918  24.284  0.00  0.00    +0.023 A 
ATOM      9  C   UNL     1       8.621   2.229  24.960  0.00  0.00    +0.016 A 
ATOM     10  C   UNL     1       8.135   3.558  25.035  0.00  0.00    -0.037 A 
ATOM     11  C   UNL     1       6.905   3.844  25.907  0.00  0.00    -0.010 C 
ATOM     12  C   UNL     1       5.648   3.257  25.231  0.00  0.00    +0.016 C 
ATOM     13  C   UNL     1       7.062   3.196  27.305  0.00  0.00    +0.016 C 
ATOM     14  C   UNL     1       6.713   5.358  26.148  0.00  0.00    +0.012 C 
ATOM     15  C   UNL     1       6.901   6.163  24.873  0.00  0.00    +0.012 C 
ATOM     16  C   UNL     1       8.312   6.620  22.889  0.00  0.00    +0.016 C 
ENDBRANCH   1   8
BRANCH   1  17
ATOM     17  C   UNL     1       9.689  -0.641  23.791  0.00  0.00    +0.023 A 
ATOM     18  C   UNL     1       9.557  -0.768  22.404  0.00  0.00    +0.012 A 
ATOM     19  C   UNL     1       8.807  -1.813  21.857  0.00  0.00    +0.009 A 
ATOM     20  C   UNL     1       8.146  -2.730  22.689  0.00  0.00    -0.017 A 
ATOM     21  C   UNL     1       7.321  -3.741  22.159  0.00  0.00    +0.023 A 
ATOM     22  C   UNL     1       6.620  -4.601  23.015  0.00  0.00    +0.059 A 
ATOM     23  C   UNL     1       6.741  -4.462  24.398  0.00  0.00    +0.015 A 
ATOM     24  C   UNL     1       7.577  -3.479  24.932  0.00  0.00    +0.009 A 
ATOM     25  C   UNL     1       8.278  -2.603  24.093  0.00  0.00    -0.017 A 
ATOM     26  C   UNL     1       9.064  -1.569  24.631  0.00  0.00    +0.020 A 
BRANCH  22  27
ATOM     27  C   UNL     1       5.684  -5.632  22.500  0.00  0.00    +0.337 C 
ATOM     28  O   UNL     1       4.476  -5.473  22.478  0.00  0.00    -0.245 OA
BRANCH  27  29
ATOM     29  O   UNL     1       6.291  -6.769  22.104  0.00  0.00    -0.477 OA
ATOM     30  H   UNL     1       7.157  -6.938  22.514  0.00  0.00    +0.295 HD
ENDBRANCH  27  29
ENDBRANCH  22  27
ENDBRANCH   1  17
TORSDOF 4
ENDMDL
MODEL 5
REMARK VINA RESULT:      -8.1      3.753      8.848
REMARK  Name = 
REMARK  8 active torsions:
REMARK  status: ('A' for Active; 'I' for Inactive)
REMARK    1  A    between atoms: C_1  and  C_2
REMARK    2  A    between atoms: C_2  and  C_3
REMARK    3  A    between atoms: C_6  and  C_7
REMARK    4  A    between atoms: C_6  and  C_8
REMARK    5  A    between atoms: C_13  and  C_15
REMARK    6  A    between atoms: C_15  and  C_17
REMARK    7  A    between atoms: C_24  and  C_27
REMARK    8  A    between atoms: C_27  and  O_28
REMARK                            x       y       z     vdW  Elec       q    Type
REMARK                         _______ _______ _______ _____ _____    ______ ____
ROOT
ATOM      1  C   UNL     1       9.918  -1.447  22.617  0.00  0.00    +0.193 C 
ATOM      2  O   UNL     1      11.004  -1.879  22.235  0.00  0.00    -0.287 OA
ENDROOT
BRANCH   1   8
ATOM      3  C   UNL     1       4.084  -4.143  23.503  0.00  0.00    +0.016 C 
ATOM      4  C   UNL     1       5.369  -4.999  23.588  0.00  0.00    -0.010 C 
ATOM      5  C   UNL     1       6.596  -4.096  23.377  0.00  0.00    -0.038 A 
ATOM      6  C   UNL     1       6.827  -3.535  22.103  0.00  0.00    +0.005 A 
ATOM      7  C   UNL     1       7.912  -2.689  21.860  0.00  0.00    +0.012 A 
ATOM      8  C   UNL     1       8.819  -2.411  22.878  0.00  0.00    +0.023 A 
ATOM      9  C   UNL     1       8.606  -2.951  24.147  0.00  0.00    +0.016 A 
ATOM     10  C   UNL     1       7.477  -3.758  24.432  0.00  0.00    -0.037 A 
ATOM     11  C   UNL     1       7.238  -4.206  25.880  0.00  0.00    -0.010 C 
ATOM     12  C   UNL     1       8.289  -5.267  26.270  0.00  0.00    +0.016 C 
ATOM     13  C   UNL     1       7.363  -3.007  26.852  0.00  0.00    +0.016 C 
ATOM     14  C   UNL     1       5.817  -4.778  26.076  0.00  0.00    +0.012 C 
ATOM     15  C   UNL     1       5.426  -5.723  24.952  0.00  0.00    +0.012 C 
ATOM     16  C   UNL     1       5.283  -6.104  22.508  0.00  0.00    +0.016 C 
ENDBRANCH   1   8
BRANCH   1  17
ATOM     17  C   UNL     1       9.763   0.020  22.805  0.00  0.00    +0.023 A 
ATOM     18  C   UNL     1      10.568   0.659  23.754  0.00  0.00    +0.012 A 
ATOM     19  C   UNL     1      10.377   2.013  24.048  0.00  0.00    +0.009 A 
ATOM     20  C   UNL     1       9.354   2.743  23.422  0.00  0.00    -0.017 A 
ATOM     21  C   UNL     1       9.094   4.084  23.762  0.00  0.00    +0.023 A 
ATOM     22  C   UNL     1       8.024   4.768  23.169  0.00  0.00    +0.059 A 
ATOM     23  C   UNL     1       7.214   4.122  22.235  0.00  0.00    +0.015 A 
ATOM     24  C   UNL     1       7.480   2.800  21.872  0.00  0.00    +0.009 A 
ATOM     25  C   UNL     1       8.539   2.096  22.461  0.00  0.00    -0.017 A 
ATOM     26  C   UNL     1       8.763   0.744  22.148  0.00  0.00    +0.020 A 
BRANCH  22  27
ATOM     27  C   UNL     1       7.671   6.158  23.552  0.00  0.00    +0.337 C 
ATOM     28  O   UNL     1       6.519   6.548  23.628  0.00  0.00    -0.245 OA
BRANCH  27  29
ATOM     29  O   UNL     1       8.740   6.953  23.764  0.00  0.00    -0.477 OA
ATOM     30  H   UNL     1       9.134   6.885  24.650  0.00  0.00    +0.295 HD
ENDBRANCH  27  29
ENDBRANCH  22  27
ENDBRANCH   1  17
TORSDOF 4
ENDMDL
MODEL 6
REMARK VINA RESULT:      -7.9      2.877      8.913
REMARK  Name = 
REMARK  8 active torsions:
REMARK  status: ('A' for Active; 'I' for Inactive)
REMARK    1  A    between atoms: C_1  and  C_2
REMARK    2  A    between atoms: C_2  and  C_3
REMARK    3  A    between atoms: C_6  and  C_7
REMARK    4  A    between atoms: C_6  and  C_8
REMARK    5  A    between atoms: C_13  and  C_15
REMARK    6  A    between atoms: C_15  and  C_17
REMARK    7  A    between atoms: C_24  and  C_27
REMARK    8  A    between atoms: C_27  and  O_28
REMARK                            x       y       z     vdW  Elec       q    Type
REMARK                         _______ _______ _______ _____ _____    ______ ____
ROOT
ATOM      1  C   UNL     1       9.176  -3.513  24.672  0.00  0.00    +0.193 C 
ATOM      2  O   UNL     1      10.107  -4.299  24.503  0.00  0.00    -0.287 OA
ENDROOT
BRANCH   1   8
ATOM      3  C   UNL     1       4.891  -7.083  27.986  0.00  0.00    +0.016 C 
ATOM      4  C   UNL     1       4.492  -5.701  27.417  0.00  0.00    -0.010 C 
ATOM      5  C   UNL     1       5.685  -5.105  26.651  0.00  0.00    -0.038 A 
ATOM      6  C   UNL     1       6.827  -4.691  27.369  0.00  0.00    +0.005 A 
ATOM      7  C   UNL     1       7.949  -4.164  26.724  0.00  0.00    +0.012 A 
ATOM      8  C   UNL     1       7.944  -4.001  25.343  0.00  0.00    +0.023 A 
ATOM      9  C   UNL     1       6.827  -4.409  24.612  0.00  0.00    +0.016 A 
ATOM     10  C   UNL     1       5.706  -5.006  25.239  0.00  0.00    -0.037 A 
ATOM     11  C   UNL     1       4.573  -5.552  24.359  0.00  0.00    -0.010 C 
ATOM     12  C   UNL     1       3.793  -4.374  23.737  0.00  0.00    +0.016 C 
ATOM     13  C   UNL     1       5.141  -6.427  23.214  0.00  0.00    +0.016 C 
ATOM     14  C   UNL     1       3.609  -6.455  25.160  0.00  0.00    +0.012 C 
ATOM     15  C   UNL     1       3.252  -5.849  26.507  0.00  0.00    +0.012 C 
ATOM     16  C   UNL     1       4.066  -4.799  28.598  0.00  0.00    +0.016 C 
ENDBRANCH   1   8
BRANCH   1  17
ATOM     17  C   UNL     1       9.334  -2.112  24.201  0.00  0.00    +0.023 A 
ATOM     18  C   UNL     1      10.229  -1.856  23.157  0.00  0.00    +0.012 A 
ATOM     19  C   UNL     1      10.497  -0.542  22.759  0.00  0.00    +0.009 A 
ATOM     20  C   UNL     1       9.900   0.541  23.424  0.00  0.00    -0.017 A 
ATOM     21  C   UNL     1      10.217   1.871  23.092  0.00  0.00    +0.023 A 
ATOM     22  C   UNL     1       9.658   2.933  23.817  0.00  0.00    +0.059 A 
ATOM     23  C   UNL     1       8.778   2.673  24.868  0.00  0.00    +0.015 A 
ATOM     24  C   UNL     1       8.437   1.358  25.188  0.00  0.00    +0.009 A 
ATOM     25  C   UNL     1       8.995   0.283  24.482  0.00  0.00    -0.017 A 
ATOM     26  C   UNL     1       8.706  -1.044  24.849  0.00  0.00    +0.020 A 
BRANCH  22  27
ATOM     27  C   UNL     1      10.022   4.347  23.548  0.00  0.00    +0.337 C 
ATOM     28  O   UNL     1       9.216   5.259  23.614  0.00  0.00    -0.245 OA
BRANCH  27  29
ATOM     29  O   UNL     1      11.308   4.517  23.182  0.00  0.00    -0.477 OA
ATOM     30  H   UNL     1      11.598   3.973  22.430  0.00  0.00    +0.295 HD
ENDBRANCH  27  29
ENDBRANCH  22  27
ENDBRANCH   1  17
TORSDOF 4
ENDMDL
MODEL 7
REMARK VINA RESULT:      -7.9      2.010      3.334
REMARK  Name = 
REMARK  8 active torsions:
REMARK  status: ('A' for Active; 'I' for Inactive)
REMARK    1  A    between atoms: C_1  and  C_2
REMARK    2  A    between atoms: C_2  and  C_3
REMARK    3  A    between atoms: C_6  and  C_7
REMARK    4  A    between atoms: C_6  and  C_8
REMARK    5  A    between atoms: C_13  and  C_15
REMARK    6  A    between atoms: C_15  and  C_17
REMARK    7  A    between atoms: C_24  and  C_27
REMARK    8  A    between atoms: C_27  and  O_28
REMARK                            x       y       z     vdW  Elec       q    Type
REMARK                         _______ _______ _______ _____ _____    ______ ____
ROOT
ATOM      1  C   UNL     1       8.778  -1.618  22.457  0.00  0.00    +0.193 C 
ATOM      2  O   UNL     1       9.678  -1.882  21.662  0.00  0.00    -0.287 OA
ENDROOT
BRANCH   1   8
ATOM      3  C   UNL     1       9.061   4.709  23.861  0.00  0.00    +0.016 C 
ATOM      4  C   UNL     1       7.725   4.055  23.437  0.00  0.00    -0.010 C 
ATOM      5  C   UNL     1       7.947   2.551  23.207  0.00  0.00    -0.038 A 
ATOM      6  C   UNL     1       8.721   2.130  22.104  0.00  0.00    +0.005 A 
ATOM      7  C   UNL     1       8.974   0.779  21.859  0.00  0.00    +0.012 A 
ATOM      8  C   UNL     1       8.429  -0.194  22.691  0.00  0.00    +0.023 A 
ATOM      9  C   UNL     1       7.664   0.201  23.790  0.00  0.00    +0.016 A 
ATOM     10  C   UNL     1       7.449   1.567  24.094  0.00  0.00    -0.037 A 
ATOM     11  C   UNL     1       6.713   1.926  25.393  0.00  0.00    -0.010 C 
ATOM     12  C   UNL     1       5.220   1.562  25.254  0.00  0.00    +0.016 C 
ATOM     13  C   UNL     1       7.304   1.143  26.591  0.00  0.00    +0.016 C 
ATOM     14  C   UNL     1       6.858   3.425  25.738  0.00  0.00    +0.012 C 
ATOM     15  C   UNL     1       6.652   4.310  24.520  0.00  0.00    +0.012 C 
ATOM     16  C   UNL     1       7.229   4.761  22.153  0.00  0.00    +0.016 C 
ENDBRANCH   1   8
BRANCH   1  17
ATOM     17  C   UNL     1       8.079  -2.739  23.139  0.00  0.00    +0.023 A 
ATOM     18  C   UNL     1       6.957  -3.300  22.521  0.00  0.00    +0.012 A 
ATOM     19  C   UNL     1       6.200  -4.277  23.178  0.00  0.00    +0.009 A 
ATOM     20  C   UNL     1       6.534  -4.683  24.479  0.00  0.00    -0.017 A 
ATOM     21  C   UNL     1       5.741  -5.605  25.187  0.00  0.00    +0.023 A 
ATOM     22  C   UNL     1       6.059  -5.943  26.510  0.00  0.00    +0.059 A 
ATOM     23  C   UNL     1       7.171  -5.369  27.128  0.00  0.00    +0.015 A 
ATOM     24  C   UNL     1       7.979  -4.473  26.425  0.00  0.00    +0.009 A 
ATOM     25  C   UNL     1       7.670  -4.116  25.106  0.00  0.00    -0.017 A 
ATOM     26  C   UNL     1       8.444  -3.161  24.421  0.00  0.00    +0.020 A 
BRANCH  22  27
ATOM     27  C   UNL     1       5.208  -6.853  27.316  0.00  0.00    +0.337 C 
ATOM     28  O   UNL     1       5.538  -7.262  28.416  0.00  0.00    -0.245 OA
BRANCH  27  29
ATOM     29  O   UNL     1       4.064  -7.215  26.701  0.00  0.00    -0.477 OA
ATOM     30  H   UNL     1       3.958  -6.875  25.796  0.00  0.00    +0.295 HD
ENDBRANCH  27  29
ENDBRANCH  22  27
ENDBRANCH   1  17
TORSDOF 4
ENDMDL
MODEL 8
REMARK VINA RESULT:      -7.8      3.535      8.955
REMARK  Name = 
REMARK  8 active torsions:
REMARK  status: ('A' for Active; 'I' for Inactive)
REMARK    1  A    between atoms: C_1  and  C_2
REMARK    2  A    between atoms: C_2  and  C_3
REMARK    3  A    between atoms: C_6  and  C_7
REMARK    4  A    between atoms: C_6  and  C_8
REMARK    5  A    between atoms: C_13  and  C_15
REMARK    6  A    between atoms: C_15  and  C_17
REMARK    7  A    between atoms: C_24  and  C_27
REMARK    8  A    between atoms: C_27  and  O_28
REMARK                            x       y       z     vdW  Elec       q    Type
REMARK                         _______ _______ _______ _____ _____    ______ ____
ROOT
ATOM      1  C   UNL     1       9.640  -1.478  22.683  0.00  0.00    +0.193 C 
ATOM      2  O   UNL     1      10.726  -1.869  22.260  0.00  0.00    -0.287 OA
ENDROOT
BRANCH   1   8
ATOM      3  C   UNL     1       3.904  -4.371  23.587  0.00  0.00    +0.016 C 
ATOM      4  C   UNL     1       5.217  -5.184  23.662  0.00  0.00    -0.010 C 
ATOM      5  C   UNL     1       6.411  -4.240  23.449  0.00  0.00    -0.038 A 
ATOM      6  C   UNL     1       6.618  -3.666  22.176  0.00  0.00    +0.005 A 
ATOM      7  C   UNL     1       7.672  -2.784  21.931  0.00  0.00    +0.012 A 
ATOM      8  C   UNL     1       8.574  -2.479  22.945  0.00  0.00    +0.023 A 
ATOM      9  C   UNL     1       8.386  -3.031  24.213  0.00  0.00    +0.016 A 
ATOM     10  C   UNL     1       7.286  -3.877  24.500  0.00  0.00    -0.037 A 
ATOM     11  C   UNL     1       7.070  -4.337  25.948  0.00  0.00    -0.010 C 
ATOM     12  C   UNL     1       8.157  -5.364  26.329  0.00  0.00    +0.016 C 
ATOM     13  C   UNL     1       7.160  -3.138  26.924  0.00  0.00    +0.016 C 
ATOM     14  C   UNL     1       5.669  -4.957  26.149  0.00  0.00    +0.012 C 
ATOM     15  C   UNL     1       5.304  -5.911  25.023  0.00  0.00    +0.012 C 
ATOM     16  C   UNL     1       5.162  -6.287  22.578  0.00  0.00    +0.016 C 
ENDBRANCH   1   8
BRANCH   1  17
ATOM     17  C   UNL     1       9.450  -0.022  22.917  0.00  0.00    +0.023 A 
ATOM     18  C   UNL     1      10.140   0.880  22.100  0.00  0.00    +0.012 A 
ATOM     19  C   UNL     1      10.084   2.254  22.357  0.00  0.00    +0.009 A 
ATOM     20  C   UNL     1       9.363   2.746  23.456  0.00  0.00    -0.017 A 
ATOM     21  C   UNL     1       9.359   4.116  23.778  0.00  0.00    +0.023 A 
ATOM     22  C   UNL     1       8.687   4.572  24.920  0.00  0.00    +0.059 A 
ATOM     23  C   UNL     1       8.013   3.667  25.741  0.00  0.00    +0.015 A 
ATOM     24  C   UNL     1       7.990   2.310  25.416  0.00  0.00    +0.009 A 
ATOM     25  C   UNL     1       8.665   1.834  24.284  0.00  0.00    -0.017 A 
ATOM     26  C   UNL     1       8.699   0.458  23.995  0.00  0.00    +0.020 A 
BRANCH  22  27
ATOM     27  C   UNL     1       8.719   5.997  25.336  0.00  0.00    +0.337 C 
ATOM     28  O   UNL     1       8.451   6.359  26.468  0.00  0.00    -0.245 OA
BRANCH  27  29
ATOM     29  O   UNL     1       9.027   6.848  24.336  0.00  0.00    -0.477 OA
ATOM     30  H   UNL     1       8.532   6.710  23.511  0.00  0.00    +0.295 HD
ENDBRANCH  27  29
ENDBRANCH  22  27
ENDBRANCH   1  17
TORSDOF 4
ENDMDL
MODEL 9
REMARK VINA RESULT:      -7.7      3.383      8.461
REMARK  Name = 
REMARK  8 active torsions:
REMARK  status: ('A' for Active; 'I' for Inactive)
REMARK    1  A    between atoms: C_1  and  C_2
REMARK    2  A    between atoms: C_2  and  C_3
REMARK    3  A    between atoms: C_6  and  C_7
REMARK    4  A    between atoms: C_6  and  C_8
REMARK    5  A    between atoms: C_13  and  C_15
REMARK    6  A    between atoms: C_15  and  C_17
REMARK    7  A    between atoms: C_24  and  C_27
REMARK    8  A    between atoms: C_27  and  O_28
REMARK                            x       y       z     vdW  Elec       q    Type
REMARK                         _______ _______ _______ _____ _____    ______ ____
ROOT
ATOM      1  C   UNL     1       9.107  -2.728  24.090  0.00  0.00    +0.193 C 
ATOM      2  O   UNL     1      10.171  -3.343  24.093  0.00  0.00    -0.287 OA
ENDROOT
BRANCH   1   8
ATOM      3  C   UNL     1       3.187  -5.279  23.354  0.00  0.00    +0.016 C 
ATOM      4  C   UNL     1       4.038  -5.610  24.602  0.00  0.00    -0.010 C 
ATOM      5  C   UNL     1       5.367  -4.841  24.529  0.00  0.00    -0.038 A 
ATOM      6  C   UNL     1       6.319  -5.201  23.551  0.00  0.00    +0.005 A 
ATOM      7  C   UNL     1       7.533  -4.523  23.423  0.00  0.00    +0.012 A 
ATOM      8  C   UNL     1       7.846  -3.486  24.296  0.00  0.00    +0.023 A 
ATOM      9  C   UNL     1       6.917  -3.109  25.268  0.00  0.00    +0.016 A 
ATOM     10  C   UNL     1       5.653  -3.741  25.372  0.00  0.00    -0.037 A 
ATOM     11  C   UNL     1       4.633  -3.184  26.375  0.00  0.00    -0.010 C 
ATOM     12  C   UNL     1       5.091  -3.516  27.811  0.00  0.00    +0.016 C 
ATOM     13  C   UNL     1       4.512  -1.647  26.237  0.00  0.00    +0.016 C 
ATOM     14  C   UNL     1       3.219  -3.756  26.130  0.00  0.00    +0.012 C 
ATOM     15  C   UNL     1       3.248  -5.255  25.882  0.00  0.00    +0.012 C 
ATOM     16  C   UNL     1       4.267  -7.139  24.637  0.00  0.00    +0.016 C 
ENDBRANCH   1   8
BRANCH   1  17
ATOM     17  C   UNL     1       9.136  -1.256  23.887  0.00  0.00    +0.023 A 
ATOM     18  C   UNL     1       9.906  -0.478  24.757  0.00  0.00    +0.012 A 
ATOM     19  C   UNL     1       9.872   0.919  24.678  0.00  0.00    +0.009 A 
ATOM     20  C   UNL     1       9.039   1.561  23.748  0.00  0.00    -0.017 A 
ATOM     21  C   UNL     1       8.931   2.963  23.705  0.00  0.00    +0.023 A 
ATOM     22  C   UNL     1       8.041   3.576  22.811  0.00  0.00    +0.059 A 
ATOM     23  C   UNL     1       7.263   2.796  21.956  0.00  0.00    +0.015 A 
ATOM     24  C   UNL     1       7.383   1.405  21.973  0.00  0.00    +0.009 A 
ATOM     25  C   UNL     1       8.259   0.774  22.866  0.00  0.00    -0.017 A 
ATOM     26  C   UNL     1       8.329  -0.629  22.932  0.00  0.00    +0.020 A 
BRANCH  22  27
ATOM     27  C   UNL     1       7.842   5.047  22.785  0.00  0.00    +0.337 C 
ATOM     28  O   UNL     1       8.466   5.810  23.502  0.00  0.00    -0.245 OA
BRANCH  27  29
ATOM     29  O   UNL     1       6.881   5.450  21.929  0.00  0.00    -0.477 OA
ATOM     30  H   UNL     1       7.191   5.665  21.033  0.00  0.00    +0.295 HD
ENDBRANCH  27  29
ENDBRANCH  22  27
ENDBRANCH   1  17
TORSDOF 4
ENDMDL
