MODEL 1
REMARK VINA RESULT:      -6.6      0.000      0.000
REMARK  Name = 
REMARK  7 active torsions:
REMARK  status: ('A' for Active; 'I' for Inactive)
REMARK    1  A    between atoms: O_1  and  C_2
REMARK    2  A    between atoms: C_5  and  N_16
REMARK    3  A    between atoms: C_8  and  C_10
REMARK    4  A    between atoms: C_10  and  O_11
REMARK    5  A    between atoms: O_11  and  P_12
REMARK    6  A    between atoms: P_12  and  O_13
REMARK    7  A    between atoms: P_12  and  O_14
REMARK                            x       y       z     vdW  Elec       q    Type
REMARK                         _______ _______ _______ _____ _____    ______ ____
ROOT
ATOM      1  C   UNL     1      10.107  -1.293  23.076  0.00  0.00    +0.150 C 
ATOM      2  C   UNL     1       8.878  -0.491  23.512  0.00  0.00    +0.175 C 
ATOM      3  O   UNL     1       8.052  -1.360  24.318  0.00  0.00    -0.348 OA
ATOM      4  C   UNL     1       8.618  -2.684  24.295  0.00  0.00    +0.226 C 
ATOM      5  C   UNL     1      10.102  -2.473  24.018  0.00  0.00    +0.088 C 
ENDROOT
BRANCH   4   6
ATOM      6  N   UNL     1       7.909  -3.519  23.309  0.00  0.00    -0.271 N 
ATOM      7  C   UNL     1       8.073  -4.900  23.413  0.00  0.00    +0.331 A 
ATOM      8  O   UNL     1       8.777  -5.445  24.253  0.00  0.00    -0.246 OA
ATOM      9  N   UNL     1       7.369  -5.655  22.508  0.00  0.00    -0.273 N 
ATOM     10  H   UNL     1       7.471  -6.657  22.582  0.00  0.00    +0.174 HD
ATOM     11  C   UNL     1       6.406  -5.201  21.646  0.00  0.00    +0.289 A 
ATOM     12  O   UNL     1       5.717  -5.955  20.971  0.00  0.00    -0.265 OA
ATOM     13  C   UNL     1       6.249  -3.740  21.620  0.00  0.00    +0.204 A 
ATOM     14  F   UNL     1       5.337  -3.219  20.781  0.00  0.00    -0.198 F 
ATOM     15  C   UNL     1       6.978  -2.975  22.438  0.00  0.00    +0.137 A 
ENDBRANCH   4   6
BRANCH   1  16
ATOM     16  O   UNL     1       9.979  -1.757  21.728  0.00  0.00    -0.389 OA
ATOM     17  H   UNL     1       9.162  -1.396  21.346  0.00  0.00    +0.210 HD
ENDBRANCH   1  16
BRANCH   2  18
ATOM     18  C   UNL     1       9.221   0.747  24.328  0.00  0.00    +0.206 C 
BRANCH  18  19
ATOM     19  O   UNL     1       8.976   1.898  23.538  0.00  0.00    -0.284 OA
BRANCH  19  20
ATOM     20  P   UNL     1      10.359   2.924  23.368  0.00  0.00    +0.472 P 
ATOM     21  O   UNL     1      11.596   3.842  23.215  0.00  0.00    -0.228 OA
BRANCH  20  22
ATOM     22  O   UNL     1       9.290   4.133  23.095  0.00  0.00    -0.303 OA
ATOM     23  H   UNL     1       8.715   3.893  22.345  0.00  0.00    +0.222 HD
ENDBRANCH  20  22
BRANCH  20  24
ATOM     24  O   UNL     1      10.366   2.432  21.807  0.00  0.00    -0.303 OA
ATOM     25  H   UNL     1       9.722   3.003  21.346  0.00  0.00    +0.222 HD
ENDBRANCH  20  24
ENDBRANCH  19  20
ENDBRANCH  18  19
ENDBRANCH   2  18
TORSDOF 7
ENDMDL
MODEL 2
REMARK VINA RESULT:      -6.5      2.773      3.640
REMARK  Name = 
REMARK  7 active torsions:
REMARK  status: ('A' for Active; 'I' for Inactive)
REMARK    1  A    between atoms: O_1  and  C_2
REMARK    2  A    between atoms: C_5  and  N_16
REMARK    3  A    between atoms: C_8  and  C_10
REMARK    4  A    between atoms: C_10  and  O_11
REMARK    5  A    between atoms: O_11  and  P_12
REMARK    6  A    between atoms: P_12  and  O_13
REMARK    7  A    between atoms: P_12  and  O_14
REMARK                            x       y       z     vdW  Elec       q    Type
REMARK                         _______ _______ _______ _____ _____    ______ ____
ROOT
ATOM      1  C   UNL     1       9.664  -4.461  25.147  0.00  0.00    +0.150 C 
ATOM      2  C   UNL     1       9.053  -3.413  24.212  0.00  0.00    +0.175 C 
ATOM      3  O   UNL     1       7.772  -3.031  24.761  0.00  0.00    -0.348 OA
ATOM      4  C   UNL     1       7.489  -3.871  25.895  0.00  0.00    +0.226 C 
ATOM      5  C   UNL     1       8.854  -4.308  26.412  0.00  0.00    +0.088 C 
ENDROOT
BRANCH   4   6
ATOM      6  N   UNL     1       6.588  -4.968  25.499  0.00  0.00    -0.271 N 
ATOM      7  C   UNL     1       6.086  -5.777  26.518  0.00  0.00    +0.331 A 
ATOM      8  O   UNL     1       6.364  -5.638  27.702  0.00  0.00    -0.246 OA
ATOM      9  N   UNL     1       5.218  -6.765  26.125  0.00  0.00    -0.273 N 
ATOM     10  H   UNL     1       4.838  -7.348  26.856  0.00  0.00    +0.174 HD
ATOM     11  C   UNL     1       4.672  -6.917  24.877  0.00  0.00    +0.289 A 
ATOM     12  O   UNL     1       3.793  -7.733  24.638  0.00  0.00    -0.265 OA
ATOM     13  C   UNL     1       5.209  -6.002  23.860  0.00  0.00    +0.204 A 
ATOM     14  F   UNL     1       4.736  -6.108  22.606  0.00  0.00    -0.198 F 
ATOM     15  C   UNL     1       6.112  -5.080  24.201  0.00  0.00    +0.137 A 
ENDBRANCH   4   6
BRANCH   1  16
ATOM     16  O   UNL     1       9.497  -5.785  24.630  0.00  0.00    -0.389 OA
ATOM     17  H   UNL     1       9.195  -5.729  23.708  0.00  0.00    +0.210 HD
ENDBRANCH   1  16
BRANCH   2  18
ATOM     18  C   UNL     1       9.909  -2.163  24.061  0.00  0.00    +0.206 C 
BRANCH  18  19
ATOM     19  O   UNL     1      10.083  -1.893  22.681  0.00  0.00    -0.284 OA
BRANCH  19  20
ATOM     20  P   UNL     1       9.845  -0.229  22.271  0.00  0.00    +0.472 P 
ATOM     21  O   UNL     1       9.632   1.260  21.903  0.00  0.00    -0.228 OA
BRANCH  20  22
ATOM     22  O   UNL     1       8.333  -0.411  22.870  0.00  0.00    -0.303 OA
ATOM     23  H   UNL     1       8.178   0.253  23.566  0.00  0.00    +0.222 HD
ENDBRANCH  20  22
BRANCH  20  24
ATOM     24  O   UNL     1       9.441  -0.790  20.787  0.00  0.00    -0.303 OA
ATOM     25  H   UNL     1       9.481  -0.018  20.192  0.00  0.00    +0.222 HD
ENDBRANCH  20  24
ENDBRANCH  19  20
ENDBRANCH  18  19
ENDBRANCH   2  18
TORSDOF 7
ENDMDL
MODEL 3
REMARK VINA RESULT:      -6.5      2.729      3.557
REMARK  Name = 
REMARK  7 active torsions:
REMARK  status: ('A' for Active; 'I' for Inactive)
REMARK    1  A    between atoms: O_1  and  C_2
REMARK    2  A    between atoms: C_5  and  N_16
REMARK    3  A    between atoms: C_8  and  C_10
REMARK    4  A    between atoms: C_10  and  O_11
REMARK    5  A    between atoms: O_11  and  P_12
REMARK    6  A    between atoms: P_12  and  O_13
REMARK    7  A    between atoms: P_12  and  O_14
REMARK                            x       y       z     vdW  Elec       q    Type
REMARK                         _______ _______ _______ _____ _____    ______ ____
ROOT
ATOM      1  C   UNL     1       7.298  -2.112  22.638  0.00  0.00    +0.150 C 
ATOM      2  C   UNL     1       7.121  -0.964  23.635  0.00  0.00    +0.175 C 
ATOM      3  O   UNL     1       8.140  -1.104  24.649  0.00  0.00    -0.348 OA
ATOM      4  C   UNL     1       8.846  -2.339  24.424  0.00  0.00    +0.226 C 
ATOM      5  C   UNL     1       8.691  -2.614  22.933  0.00  0.00    +0.088 C 
ENDROOT
BRANCH   4   6
ATOM      6  N   UNL     1       8.322  -3.390  25.314  0.00  0.00    -0.271 N 
ATOM      7  C   UNL     1       9.071  -4.562  25.420  0.00  0.00    +0.331 A 
ATOM      8  O   UNL     1      10.112  -4.767  24.812  0.00  0.00    -0.246 OA
ATOM      9  N   UNL     1       8.580  -5.508  26.287  0.00  0.00    -0.273 N 
ATOM     10  H   UNL     1       9.121  -6.355  26.382  0.00  0.00    +0.174 HD
ATOM     11  C   UNL     1       7.545  -5.343  27.169  0.00  0.00    +0.289 A 
ATOM     12  O   UNL     1       7.258  -6.181  28.013  0.00  0.00    -0.265 OA
ATOM     13  C   UNL     1       6.828  -4.066  27.036  0.00  0.00    +0.204 A 
ATOM     14  F   UNL     1       5.784  -3.842  27.854  0.00  0.00    -0.198 F 
ATOM     15  C   UNL     1       7.238  -3.158  26.147  0.00  0.00    +0.137 A 
ENDBRANCH   4   6
BRANCH   1  16
ATOM     16  O   UNL     1       6.353  -3.161  22.872  0.00  0.00    -0.389 OA
ATOM     17  H   UNL     1       6.183  -3.225  23.827  0.00  0.00    +0.210 HD
ENDBRANCH   1  16
BRANCH   2  18
ATOM     18  C   UNL     1       7.254   0.414  23.001  0.00  0.00    +0.206 C 
BRANCH  18  19
ATOM     19  O   UNL     1       8.530   0.515  22.392  0.00  0.00    -0.284 OA
BRANCH  19  20
ATOM     20  P   UNL     1       9.506   1.786  23.045  0.00  0.00    +0.472 P 
ATOM     21  O   UNL     1      10.378   2.923  23.629  0.00  0.00    -0.228 OA
BRANCH  20  22
ATOM     22  O   UNL     1      10.116   1.945  21.535  0.00  0.00    -0.303 OA
ATOM     23  H   UNL     1       9.789   1.216  20.976  0.00  0.00    +0.222 HD
ENDBRANCH  20  22
BRANCH  20  24
ATOM     24  O   UNL     1      10.548   0.594  23.458  0.00  0.00    -0.303 OA
ATOM     25  H   UNL     1      11.441   0.967  23.332  0.00  0.00    +0.222 HD
ENDBRANCH  20  24
ENDBRANCH  19  20
ENDBRANCH  18  19
ENDBRANCH   2  18
TORSDOF 7
ENDMDL
MODEL 4
REMARK VINA RESULT:      -6.5      3.252      4.371
REMARK  Name = 
REMARK  7 active torsions:
REMARK  status: ('A' for Active; 'I' for Inactive)
REMARK    1  A    between atoms: O_1  and  C_2
REMARK    2  A    between atoms: C_5  and  N_16
REMARK    3  A    between atoms: C_8  and  C_10
REMARK    4  A    between atoms: C_10  and  O_11
REMARK    5  A    between atoms: O_11  and  P_12
REMARK    6  A    between atoms: P_12  and  O_13
REMARK    7  A    between atoms: P_12  and  O_14
REMARK                            x       y       z     vdW  Elec       q    Type
REMARK                         _______ _______ _______ _____ _____    ______ ____
ROOT
ATOM      1  C   UNL     1       8.984   2.251  22.574  0.00  0.00    +0.150 C 
ATOM      2  C   UNL     1       9.695   2.768  23.828  0.00  0.00    +0.175 C 
ATOM      3  O   UNL     1      10.723   1.813  24.172  0.00  0.00    -0.348 OA
ATOM      4  C   UNL     1      10.605   0.674  23.299  0.00  0.00    +0.226 C 
ATOM      5  C   UNL     1       9.941   1.214  22.037  0.00  0.00    +0.088 C 
ENDROOT
BRANCH   4   6
ATOM      6  N   UNL     1       9.873  -0.410  23.978  0.00  0.00    -0.271 N 
ATOM      7  C   UNL     1       9.903  -1.668  23.378  0.00  0.00    +0.331 A 
ATOM      8  O   UNL     1      10.479  -1.912  22.326  0.00  0.00    -0.246 OA
ATOM      9  N   UNL     1       9.247  -2.668  24.052  0.00  0.00    -0.273 N 
ATOM     10  H   UNL     1       9.274  -3.586  23.634  0.00  0.00    +0.174 HD
ATOM     11  C   UNL     1       8.728  -2.589  25.318  0.00  0.00    +0.289 A 
ATOM     12  O   UNL     1       8.288  -3.564  25.912  0.00  0.00    -0.265 OA
ATOM     13  C   UNL     1       8.772  -1.245  25.913  0.00  0.00    +0.204 A 
ATOM     14  F   UNL     1       8.260  -1.086  27.146  0.00  0.00    -0.198 F 
ATOM     15  C   UNL     1       9.336  -0.237  25.245  0.00  0.00    +0.137 A 
ENDBRANCH   4   6
BRANCH   1  16
ATOM     16  O   UNL     1       7.737   1.629  22.897  0.00  0.00    -0.389 OA
ATOM     17  H   UNL     1       7.480   1.885  23.798  0.00  0.00    +0.210 HD
ENDBRANCH   1  16
BRANCH   2  18
ATOM     18  C   UNL     1      10.343   4.132  23.638  0.00  0.00    +0.206 C 
BRANCH  18  19
ATOM     19  O   UNL     1      11.740   4.006  23.839  0.00  0.00    -0.284 OA
BRANCH  19  20
ATOM     20  P   UNL     1      12.677   5.090  22.868  0.00  0.00    +0.472 P 
ATOM     21  O   UNL     1      13.514   6.060  22.000  0.00  0.00    -0.228 OA
BRANCH  20  22
ATOM     22  O   UNL     1      12.988   5.892  24.261  0.00  0.00    -0.303 OA
ATOM     23  H   UNL     1      12.311   5.663  24.924  0.00  0.00    +0.222 HD
ENDBRANCH  20  22
BRANCH  20  24
ATOM     24  O   UNL     1      11.261   5.870  22.610  0.00  0.00    -0.303 OA
ATOM     25  H   UNL     1      11.129   5.866  21.643  0.00  0.00    +0.222 HD
ENDBRANCH  20  24
ENDBRANCH  19  20
ENDBRANCH  18  19
ENDBRANCH   2  18
TORSDOF 7
ENDMDL
MODEL 5
REMARK VINA RESULT:      -6.4      3.413      7.113
REMARK  Name = 
REMARK  7 active torsions:
REMARK  status: ('A' for Active; 'I' for Inactive)
REMARK    1  A    between atoms: O_1  and  C_2
REMARK    2  A    between atoms: C_5  and  N_16
REMARK    3  A    between atoms: C_8  and  C_10
REMARK    4  A    between atoms: C_10  and  O_11
REMARK    5  A    between atoms: O_11  and  P_12
REMARK    6  A    between atoms: P_12  and  O_13
REMARK    7  A    between atoms: P_12  and  O_14
REMARK                            x       y       z     vdW  Elec       q    Type
REMARK                         _______ _______ _______ _____ _____    ______ ____
ROOT
ATOM      1  C   UNL     1       6.361  -2.417  23.698  0.00  0.00    +0.150 C 
ATOM      2  C   UNL     1       7.176  -2.956  22.519  0.00  0.00    +0.175 C 
ATOM      3  O   UNL     1       8.564  -2.979  22.920  0.00  0.00    -0.348 OA
ATOM      4  C   UNL     1       8.678  -2.362  24.216  0.00  0.00    +0.226 C 
ATOM      5  C   UNL     1       7.311  -2.551  24.864  0.00  0.00    +0.088 C 
ENDROOT
BRANCH   4   6
ATOM      6  N   UNL     1       9.116  -0.962  24.073  0.00  0.00    -0.271 N 
ATOM      7  C   UNL     1       9.382  -0.257  25.246  0.00  0.00    +0.331 A 
ATOM      8  O   UNL     1       9.257  -0.726  26.370  0.00  0.00    -0.246 OA
ATOM      9  N   UNL     1       9.826   1.031  25.082  0.00  0.00    -0.273 N 
ATOM     10  H   UNL     1      10.035   1.546  25.924  0.00  0.00    +0.174 HD
ATOM     11  C   UNL     1      10.193   1.620  23.900  0.00  0.00    +0.289 A 
ATOM     12  O   UNL     1      10.718   2.723  23.848  0.00  0.00    -0.265 OA
ATOM     13  C   UNL     1       9.931   0.804  22.705  0.00  0.00    +0.204 A 
ATOM     14  F   UNL     1      10.245   1.326  21.506  0.00  0.00    -0.198 F 
ATOM     15  C   UNL     1       9.427  -0.426  22.833  0.00  0.00    +0.137 A 
ENDBRANCH   4   6
BRANCH   1  16
ATOM     16  O   UNL     1       6.022  -1.039  23.515  0.00  0.00    -0.389 OA
ATOM     17  H   UNL     1       6.189  -0.793  22.590  0.00  0.00    +0.210 HD
ENDBRANCH   1  16
BRANCH   2  18
ATOM     18  C   UNL     1       6.770  -4.360  22.093  0.00  0.00    +0.206 C 
BRANCH  18  19
ATOM     19  O   UNL     1       5.390  -4.537  22.362  0.00  0.00    -0.284 OA
BRANCH  19  20
ATOM     20  P   UNL     1       5.049  -5.943  23.312  0.00  0.00    +0.472 P 
ATOM     21  O   UNL     1       4.743  -7.201  24.161  0.00  0.00    -0.228 OA
BRANCH  20  22
ATOM     22  O   UNL     1       5.992  -6.755  22.248  0.00  0.00    -0.303 OA
ATOM     23  H   UNL     1       5.861  -6.388  21.354  0.00  0.00    +0.222 HD
ENDBRANCH  20  22
BRANCH  20  24
ATOM     24  O   UNL     1       3.704  -6.078  22.388  0.00  0.00    -0.303 OA
ATOM     25  H   UNL     1       3.531  -5.183  22.040  0.00  0.00    +0.222 HD
ENDBRANCH  20  24
ENDBRANCH  19  20
ENDBRANCH  18  19
ENDBRANCH   2  18
TORSDOF 7
ENDMDL
MODEL 6
REMARK VINA RESULT:      -6.4      3.595      6.887
REMARK  Name = 
REMARK  7 active torsions:
REMARK  status: ('A' for Active; 'I' for Inactive)
REMARK    1  A    between atoms: O_1  and  C_2
REMARK    2  A    between atoms: C_5  and  N_16
REMARK    3  A    between atoms: C_8  and  C_10
REMARK    4  A    between atoms: C_10  and  O_11
REMARK    5  A    between atoms: O_11  and  P_12
REMARK    6  A    between atoms: P_12  and  O_13
REMARK    7  A    between atoms: P_12  and  O_14
REMARK                            x       y       z     vdW  Elec       q    Type
REMARK                         _______ _______ _______ _____ _____    ______ ____
ROOT
ATOM      1  C   UNL     1       6.657  -1.798  23.694  0.00  0.00    +0.150 C 
ATOM      2  C   UNL     1       7.993  -2.394  23.242  0.00  0.00    +0.175 C 
ATOM      3  O   UNL     1       9.020  -1.883  24.120  0.00  0.00    -0.348 OA
ATOM      4  C   UNL     1       8.430  -0.905  24.997  0.00  0.00    +0.226 C 
ATOM      5  C   UNL     1       6.958  -1.291  25.084  0.00  0.00    +0.088 C 
ENDROOT
BRANCH   4   6
ATOM      6  N   UNL     1       8.692   0.453  24.488  0.00  0.00    -0.271 N 
ATOM      7  C   UNL     1       8.262   1.520  25.277  0.00  0.00    +0.331 A 
ATOM      8  O   UNL     1       7.672   1.391  26.341  0.00  0.00    -0.246 OA
ATOM      9  N   UNL     1       8.555   2.773  24.798  0.00  0.00    -0.273 N 
ATOM     10  H   UNL     1       8.260   3.553  25.368  0.00  0.00    +0.174 HD
ATOM     11  C   UNL     1       9.366   3.067  23.734  0.00  0.00    +0.289 A 
ATOM     12  O   UNL     1       9.700   4.211  23.456  0.00  0.00    -0.265 OA
ATOM     13  C   UNL     1       9.825   1.895  22.974  0.00  0.00    +0.204 A 
ATOM     14  F   UNL     1      10.608   2.107  21.901  0.00  0.00    -0.198 F 
ATOM     15  C   UNL     1       9.490   0.666  23.374  0.00  0.00    +0.137 A 
ENDBRANCH   4   6
BRANCH   1  16
ATOM     16  O   UNL     1       6.262  -0.703  22.861  0.00  0.00    -0.389 OA
ATOM     17  H   UNL     1       7.024  -0.114  22.731  0.00  0.00    +0.210 HD
ENDBRANCH   1  16
BRANCH   2  18
ATOM     18  C   UNL     1       8.025  -3.915  23.290  0.00  0.00    +0.206 C 
BRANCH  18  19
ATOM     19  O   UNL     1       8.999  -4.321  24.236  0.00  0.00    -0.284 OA
BRANCH  19  20
ATOM     20  P   UNL     1       8.329  -5.133  25.609  0.00  0.00    +0.472 P 
ATOM     21  O   UNL     1       7.730  -5.860  26.838  0.00  0.00    -0.228 OA
BRANCH  20  22
ATOM     22  O   UNL     1       8.945  -3.904  26.498  0.00  0.00    -0.303 OA
ATOM     23  H   UNL     1       9.802  -4.175  26.876  0.00  0.00    +0.222 HD
ENDBRANCH  20  22
BRANCH  20  24
ATOM     24  O   UNL     1       9.727  -5.984  25.621  0.00  0.00    -0.303 OA
ATOM     25  H   UNL     1      10.118  -5.840  26.504  0.00  0.00    +0.222 HD
ENDBRANCH  20  24
ENDBRANCH  19  20
ENDBRANCH  18  19
ENDBRANCH   2  18
TORSDOF 7
ENDMDL
MODEL 7
REMARK VINA RESULT:      -6.3      3.682      7.121
REMARK  Name = 
REMARK  7 active torsions:
REMARK  status: ('A' for Active; 'I' for Inactive)
REMARK    1  A    between atoms: O_1  and  C_2
REMARK    2  A    between atoms: C_5  and  N_16
REMARK    3  A    between atoms: C_8  and  C_10
REMARK    4  A    between atoms: C_10  and  O_11
REMARK    5  A    between atoms: O_11  and  P_12
REMARK    6  A    between atoms: P_12  and  O_13
REMARK    7  A    between atoms: P_12  and  O_14
REMARK                            x       y       z     vdW  Elec       q    Type
REMARK                         _______ _______ _______ _____ _____    ______ ____
ROOT
ATOM      1  C   UNL     1       7.907  -2.846  22.733  0.00  0.00    +0.150 C 
ATOM      2  C   UNL     1       8.531  -3.232  24.077  0.00  0.00    +0.175 C 
ATOM      3  O   UNL     1       8.194  -2.199  25.029  0.00  0.00    -0.348 OA
ATOM      4  C   UNL     1       7.523  -1.133  24.332  0.00  0.00    +0.226 C 
ATOM      5  C   UNL     1       6.891  -1.795  23.114  0.00  0.00    +0.088 C 
ENDROOT
BRANCH   4   6
ATOM      6  N   UNL     1       8.474  -0.047  24.034  0.00  0.00    -0.271 N 
ATOM      7  C   UNL     1       7.946   1.133  23.511  0.00  0.00    +0.331 A 
ATOM      8  O   UNL     1       6.757   1.306  23.276  0.00  0.00    -0.246 OA
ATOM      9  N   UNL     1       8.849   2.141  23.280  0.00  0.00    -0.273 N 
ATOM     10  H   UNL     1       8.475   3.005  22.915  0.00  0.00    +0.174 HD
ATOM     11  C   UNL     1      10.162   2.161  23.669  0.00  0.00    +0.289 A 
ATOM     12  O   UNL     1      10.868   3.153  23.558  0.00  0.00    -0.265 OA
ATOM     13  C   UNL     1      10.643   0.902  24.256  0.00  0.00    +0.204 A 
ATOM     14  F   UNL     1      11.930   0.838  24.642  0.00  0.00    -0.198 F 
ATOM     15  C   UNL     1       9.803  -0.123  24.422  0.00  0.00    +0.137 A 
ENDBRANCH   4   6
BRANCH   1  16
ATOM     16  O   UNL     1       8.877  -2.274  21.850  0.00  0.00    -0.389 OA
ATOM     17  H   UNL     1       8.481  -2.172  20.969  0.00  0.00    +0.210 HD
ENDBRANCH   1  16
BRANCH   2  18
ATOM     18  C   UNL     1       8.034  -4.567  24.614  0.00  0.00    +0.206 C 
BRANCH  18  19
ATOM     19  O   UNL     1       6.959  -4.329  25.506  0.00  0.00    -0.284 OA
BRANCH  19  20
ATOM     20  P   UNL     1       7.061  -5.249  26.968  0.00  0.00    +0.472 P 
ATOM     21  O   UNL     1       7.152  -6.072  28.276  0.00  0.00    -0.228 OA
BRANCH  20  22
ATOM     22  O   UNL     1       8.422  -5.901  26.333  0.00  0.00    -0.303 OA
ATOM     23  H   UNL     1       8.196  -6.397  25.525  0.00  0.00    +0.222 HD
ENDBRANCH  20  22
BRANCH  20  24
ATOM     24  O   UNL     1       6.071  -6.311  26.213  0.00  0.00    -0.303 OA
ATOM     25  H   UNL     1       6.225  -6.184  25.258  0.00  0.00    +0.222 HD
ENDBRANCH  20  24
ENDBRANCH  19  20
ENDBRANCH  18  19
ENDBRANCH   2  18
TORSDOF 7
ENDMDL
MODEL 8
REMARK VINA RESULT:      -6.2      2.111      2.542
REMARK  Name = 
REMARK  7 active torsions:
REMARK  status: ('A' for Active; 'I' for Inactive)
REMARK    1  A    between atoms: O_1  and  C_2
REMARK    2  A    between atoms: C_5  and  N_16
REMARK    3  A    between atoms: C_8  and  C_10
REMARK    4  A    between atoms: C_10  and  O_11
REMARK    5  A    between atoms: O_11  and  P_12
REMARK    6  A    between atoms: P_12  and  O_13
REMARK    7  A    between atoms: P_12  and  O_14
REMARK                            x       y       z     vdW  Elec       q    Type
REMARK                         _______ _______ _______ _____ _____    ______ ____
ROOT
ATOM      1  C   UNL     1       9.628  -2.489  24.062  0.00  0.00    +0.150 C 
ATOM      2  C   UNL     1       9.278  -2.276  22.587  0.00  0.00    +0.175 C 
ATOM      3  O   UNL     1       7.851  -2.067  22.502  0.00  0.00    -0.348 OA
ATOM      4  C   UNL     1       7.277  -2.274  23.806  0.00  0.00    +0.226 C 
ATOM      5  C   UNL     1       8.406  -1.974  24.785  0.00  0.00    +0.088 C 
ENDROOT
BRANCH   4   6
ATOM      6  N   UNL     1       6.711  -3.632  23.899  0.00  0.00    -0.271 N 
ATOM      7  C   UNL     1       5.900  -3.906  25.000  0.00  0.00    +0.331 A 
ATOM      8  O   UNL     1       5.652  -3.100  25.886  0.00  0.00    -0.246 OA
ATOM      9  N   UNL     1       5.353  -5.165  25.040  0.00  0.00    -0.273 N 
ATOM     10  H   UNL     1       4.753  -5.370  25.826  0.00  0.00    +0.174 HD
ATOM     11  C   UNL     1       5.385  -6.097  24.037  0.00  0.00    +0.289 A 
ATOM     12  O   UNL     1       4.751  -7.142  24.087  0.00  0.00    -0.265 OA
ATOM     13  C   UNL     1       6.218  -5.725  22.884  0.00  0.00    +0.204 A 
ATOM     14  F   UNL     1       6.316  -6.601  21.868  0.00  0.00    -0.198 F 
ATOM     15  C   UNL     1       6.824  -4.535  22.854  0.00  0.00    +0.137 A 
ENDBRANCH   4   6
BRANCH   1  16
ATOM     16  O   UNL     1       9.812  -3.876  24.362  0.00  0.00    -0.389 OA
ATOM     17  H   UNL     1      10.199  -4.318  23.589  0.00  0.00    +0.210 HD
ENDBRANCH   1  16
BRANCH   2  18
ATOM     18  C   UNL     1       9.982  -1.078  21.964  0.00  0.00    +0.206 C 
BRANCH  18  19
ATOM     19  O   UNL     1       9.139   0.055  22.075  0.00  0.00    -0.284 OA
BRANCH  19  20
ATOM     20  P   UNL     1       9.880   1.388  22.894  0.00  0.00    +0.472 P 
ATOM     21  O   UNL     1      10.543   2.579  23.626  0.00  0.00    -0.228 OA
BRANCH  20  22
ATOM     22  O   UNL     1       8.365   1.806  23.353  0.00  0.00    -0.303 OA
ATOM     23  H   UNL     1       8.393   2.190  24.248  0.00  0.00    +0.222 HD
ENDBRANCH  20  22
BRANCH  20  24
ATOM     24  O   UNL     1       9.773   2.160  21.455  0.00  0.00    -0.303 OA
ATOM     25  H   UNL     1       8.821   2.324  21.312  0.00  0.00    +0.222 HD
ENDBRANCH  20  24
ENDBRANCH  19  20
ENDBRANCH  18  19
ENDBRANCH   2  18
TORSDOF 7
ENDMDL
MODEL 9
REMARK VINA RESULT:      -6.2      3.647      7.018
REMARK  Name = 
REMARK  7 active torsions:
REMARK  status: ('A' for Active; 'I' for Inactive)
REMARK    1  A    between atoms: O_1  and  C_2
REMARK    2  A    between atoms: C_5  and  N_16
REMARK    3  A    between atoms: C_8  and  C_10
REMARK    4  A    between atoms: C_10  and  O_11
REMARK    5  A    between atoms: O_11  and  P_12
REMARK    6  A    between atoms: P_12  and  O_13
REMARK    7  A    between atoms: P_12  and  O_14
REMARK                            x       y       z     vdW  Elec       q    Type
REMARK                         _______ _______ _______ _____ _____    ______ ____
ROOT
ATOM      1  C   UNL     1       9.536  -0.650  24.811  0.00  0.00    +0.150 C 
ATOM      2  C   UNL     1       8.787  -1.254  23.620  0.00  0.00    +0.175 C 
ATOM      3  O   UNL     1       9.187  -0.528  22.437  0.00  0.00    -0.348 OA
ATOM      4  C   UNL     1      10.027   0.572  22.835  0.00  0.00    +0.226 C 
ATOM      5  C   UNL     1      10.648   0.136  24.157  0.00  0.00    +0.088 C 
ENDROOT
BRANCH   4   6
ATOM      6  N   UNL     1       9.237   1.815  22.893  0.00  0.00    -0.271 N 
ATOM      7  C   UNL     1       9.917   2.983  23.237  0.00  0.00    +0.331 A 
ATOM      8  O   UNL     1      11.110   3.027  23.506  0.00  0.00    -0.246 OA
ATOM      9  N   UNL     1       9.166   4.132  23.244  0.00  0.00    -0.273 N 
ATOM     10  H   UNL     1       9.651   4.986  23.478  0.00  0.00    +0.174 HD
ATOM     11  C   UNL     1       7.882   4.266  22.784  0.00  0.00    +0.289 A 
ATOM     12  O   UNL     1       7.327   5.352  22.686  0.00  0.00    -0.265 OA
ATOM     13  C   UNL     1       7.239   3.003  22.392  0.00  0.00    +0.204 A 
ATOM     14  F   UNL     1       5.969   3.053  21.952  0.00  0.00    -0.198 F 
ATOM     15  C   UNL     1       7.924   1.859  22.449  0.00  0.00    +0.137 A 
ENDBRANCH   4   6
BRANCH   1  16
ATOM     16  O   UNL     1       8.701   0.238  25.560  0.00  0.00    -0.389 OA
ATOM     17  H   UNL     1       8.290  -0.254  26.291  0.00  0.00    +0.210 HD
ENDBRANCH   1  16
BRANCH   2  18
ATOM     18  C   UNL     1       9.081  -2.732  23.406  0.00  0.00    +0.206 C 
BRANCH  18  19
ATOM     19  O   UNL     1       9.791  -3.223  24.530  0.00  0.00    -0.284 OA
BRANCH  19  20
ATOM     20  P   UNL     1       8.998  -4.541  25.323  0.00  0.00    +0.472 P 
ATOM     21  O   UNL     1       8.289  -5.720  26.033  0.00  0.00    -0.228 OA
BRANCH  20  22
ATOM     22  O   UNL     1      10.431  -5.326  25.212  0.00  0.00    -0.303 OA
ATOM     23  H   UNL     1      10.949  -5.169  26.022  0.00  0.00    +0.222 HD
ENDBRANCH  20  22
BRANCH  20  24
ATOM     24  O   UNL     1       8.517  -4.982  23.823  0.00  0.00    -0.303 OA
ATOM     25  H   UNL     1       7.574  -4.738  23.764  0.00  0.00    +0.222 HD
ENDBRANCH  20  24
ENDBRANCH  19  20
ENDBRANCH  18  19
ENDBRANCH   2  18
TORSDOF 7
ENDMDL
