MODEL 1
REMARK VINA RESULT:      -4.9      0.000      0.000
REMARK  Name = 
REMARK  11 active torsions:
REMARK  status: ('A' for Active; 'I' for Inactive)
REMARK    1  A    between atoms: C_1  and  O_2
REMARK    2  A    between atoms: O_2  and  P_3
REMARK    3  A    between atoms: P_3  and  N_5
REMARK    4  A    between atoms: P_3  and  O_22
REMARK    5  A    between atoms: N_5  and  C_6
REMARK    6  A    between atoms: C_9  and  C_11
REMARK    7  A    between atoms: C_11  and  O_12
REMARK    8  A    between atoms: C_13  and  O_15
REMARK    9  A    between atoms: C_16  and  O_18
REMARK   10  A    between atoms: C_19  and  O_21
REMARK   11  A    between atoms: O_22  and  C_23
REMARK                            x       y       z     vdW  Elec       q    Type
REMARK                         _______ _______ _______ _____ _____    ______ ____
ROOT
ATOM      1  C   UNL     1       9.512  -0.710  24.694  0.00  0.00    +0.227 C 
ATOM      2  C   UNL     1       8.115  -0.185  25.172  0.00  0.00    +0.189 C 
ATOM      3  C   UNL     1       7.138   0.344  24.095  0.00  0.00    +0.178 C 
ATOM      4  C   UNL     1       7.738   0.753  22.752  0.00  0.00    +0.176 C 
ATOM      5  C   UNL     1       9.243   0.507  22.548  0.00  0.00    +0.177 C 
ATOM      6  O   UNL     1      10.047   0.072  23.638  0.00  0.00    -0.351 OA
ENDROOT
BRANCH   1   7
ATOM      7  N   UNL     1       9.582  -2.165  24.489  0.00  0.00    -0.194 NA
ATOM      8  H   UNL     1      10.010  -2.329  23.585  0.00  0.00    +0.136 HD
BRANCH   7   9
ATOM      9  P   UNL     1       8.328  -3.337  24.601  0.00  0.00    +0.410 P 
ATOM     10  O   UNL     1       8.941  -4.662  24.118  0.00  0.00    -0.240 OA
BRANCH   9  12
ATOM     11  C   UNL     1       7.084  -3.885  22.340  0.00  0.00    +0.206 C 
ATOM     12  O   UNL     1       7.935  -2.935  22.965  0.00  0.00    -0.300 OA
ENDBRANCH   9  12
BRANCH   9  13
ATOM     13  O   UNL     1       8.719  -3.741  26.237  0.00  0.00    -0.300 OA
ATOM     14  C   UNL     1       8.198  -4.968  26.713  0.00  0.00    +0.206 C 
ENDBRANCH   9  13
ENDBRANCH   7   9
ENDBRANCH   1   7
BRANCH   2  15
ATOM     15  O   UNL     1       8.299   0.860  26.159  0.00  0.00    -0.385 OA
ATOM     16  H   UNL     1       8.230   1.723  25.705  0.00  0.00    +0.210 HD
ENDBRANCH   2  15
BRANCH   3  17
ATOM     17  O   UNL     1       6.018  -0.543  23.884  0.00  0.00    -0.386 OA
ATOM     18  H   UNL     1       6.269  -1.449  24.121  0.00  0.00    +0.210 HD
ENDBRANCH   3  17
BRANCH   4  19
ATOM     19  O   UNL     1       7.486   2.179  22.599  0.00  0.00    -0.386 OA
ATOM     20  H   UNL     1       6.855   2.444  23.290  0.00  0.00    +0.210 HD
ENDBRANCH   4  19
BRANCH   5  21
ATOM     21  C   UNL     1       9.497  -0.362  21.313  0.00  0.00    +0.190 C 
BRANCH  21  22
ATOM     22  O   UNL     1      10.227  -1.541  21.636  0.00  0.00    -0.392 OA
ATOM     23  H   UNL     1      11.134  -1.403  21.282  0.00  0.00    +0.210 HD
ENDBRANCH  21  22
ENDBRANCH   5  21
TORSDOF 9
ENDMDL
MODEL 2
REMARK VINA RESULT:      -4.9      2.211      3.667
REMARK  Name = 
REMARK  11 active torsions:
REMARK  status: ('A' for Active; 'I' for Inactive)
REMARK    1  A    between atoms: C_1  and  O_2
REMARK    2  A    between atoms: O_2  and  P_3
REMARK    3  A    between atoms: P_3  and  N_5
REMARK    4  A    between atoms: P_3  and  O_22
REMARK    5  A    between atoms: N_5  and  C_6
REMARK    6  A    between atoms: C_9  and  C_11
REMARK    7  A    between atoms: C_11  and  O_12
REMARK    8  A    between atoms: C_13  and  O_15
REMARK    9  A    between atoms: C_16  and  O_18
REMARK   10  A    between atoms: C_19  and  O_21
REMARK   11  A    between atoms: O_22  and  C_23
REMARK                            x       y       z     vdW  Elec       q    Type
REMARK                         _______ _______ _______ _____ _____    ______ ____
ROOT
ATOM      1  C   UNL     1       8.569  -2.136  22.516  0.00  0.00    +0.227 C 
ATOM      2  C   UNL     1       9.078  -2.651  23.905  0.00  0.00    +0.189 C 
ATOM      3  C   UNL     1       8.875  -1.732  25.133  0.00  0.00    +0.178 C 
ATOM      4  C   UNL     1       8.639  -0.248  24.859  0.00  0.00    +0.176 C 
ATOM      5  C   UNL     1       8.519   0.187  23.389  0.00  0.00    +0.177 C 
ATOM      6  O   UNL     1       8.787  -0.744  22.347  0.00  0.00    -0.351 OA
ENDROOT
BRANCH   1   7
ATOM      7  N   UNL     1       7.226  -2.605  22.142  0.00  0.00    -0.194 NA
ATOM      8  H   UNL     1       6.612  -1.800  22.120  0.00  0.00    +0.136 HD
BRANCH   7   9
ATOM      9  P   UNL     1       6.281  -3.858  22.848  0.00  0.00    +0.410 P 
ATOM     10  O   UNL     1       4.996  -3.944  22.009  0.00  0.00    -0.240 OA
BRANCH   9  12
ATOM     11  C   UNL     1       4.551  -3.125  24.700  0.00  0.00    +0.206 C 
ATOM     12  O   UNL     1       5.550  -2.628  23.821  0.00  0.00    -0.300 OA
ENDBRANCH   9  12
BRANCH   9  13
ATOM     13  O   UNL     1       7.011  -5.089  21.876  0.00  0.00    -0.300 OA
ATOM     14  C   UNL     1       6.156  -5.733  20.950  0.00  0.00    +0.206 C 
ENDBRANCH   9  13
ENDBRANCH   7   9
ENDBRANCH   1   7
BRANCH   2  15
ATOM     15  O   UNL     1      10.489  -2.974  23.817  0.00  0.00    -0.385 OA
ATOM     16  H   UNL     1      10.992  -2.136  23.807  0.00  0.00    +0.210 HD
ENDBRANCH   2  15
BRANCH   3  17
ATOM     17  O   UNL     1       7.865  -2.234  26.035  0.00  0.00    -0.386 OA
ATOM     18  H   UNL     1       7.092  -2.528  25.530  0.00  0.00    +0.210 HD
ENDBRANCH   3  17
BRANCH   4  19
ATOM     19  O   UNL     1       9.757   0.470  25.456  0.00  0.00    -0.386 OA
ATOM     20  H   UNL     1      10.487  -0.163  25.571  0.00  0.00    +0.210 HD
ENDBRANCH   4  19
BRANCH   5  21
ATOM     21  C   UNL     1       7.193   0.910  23.135  0.00  0.00    +0.190 C 
BRANCH  21  22
ATOM     22  O   UNL     1       6.074   0.106  23.493  0.00  0.00    -0.392 OA
ATOM     23  H   UNL     1       5.603   0.599  24.202  0.00  0.00    +0.210 HD
ENDBRANCH  21  22
ENDBRANCH   5  21
TORSDOF 9
ENDMDL
MODEL 3
REMARK VINA RESULT:      -4.9      1.662      3.130
REMARK  Name = 
REMARK  11 active torsions:
REMARK  status: ('A' for Active; 'I' for Inactive)
REMARK    1  A    between atoms: C_1  and  O_2
REMARK    2  A    between atoms: O_2  and  P_3
REMARK    3  A    between atoms: P_3  and  N_5
REMARK    4  A    between atoms: P_3  and  O_22
REMARK    5  A    between atoms: N_5  and  C_6
REMARK    6  A    between atoms: C_9  and  C_11
REMARK    7  A    between atoms: C_11  and  O_12
REMARK    8  A    between atoms: C_13  and  O_15
REMARK    9  A    between atoms: C_16  and  O_18
REMARK   10  A    between atoms: C_19  and  O_21
REMARK   11  A    between atoms: O_22  and  C_23
REMARK                            x       y       z     vdW  Elec       q    Type
REMARK                         _______ _______ _______ _____ _____    ______ ____
ROOT
ATOM      1  C   UNL     1       8.352  -2.169  22.911  0.00  0.00    +0.227 C 
ATOM      2  C   UNL     1       9.791  -1.548  22.916  0.00  0.00    +0.189 C 
ATOM      3  C   UNL     1       9.950  -0.104  23.448  0.00  0.00    +0.178 C 
ATOM      4  C   UNL     1       8.694   0.765  23.489  0.00  0.00    +0.176 C 
ATOM      5  C   UNL     1       7.364   0.100  23.096  0.00  0.00    +0.177 C 
ATOM      6  O   UNL     1       7.358  -1.219  22.563  0.00  0.00    -0.351 OA
ENDROOT
BRANCH   1   7
ATOM      7  N   UNL     1       8.038  -2.996  24.086  0.00  0.00    -0.194 NA
ATOM      8  H   UNL     1       8.863  -3.023  24.675  0.00  0.00    +0.136 HD
BRANCH   7   9
ATOM      9  P   UNL     1       7.403  -4.595  24.149  0.00  0.00    +0.410 P 
ATOM     10  O   UNL     1       7.273  -5.058  22.688  0.00  0.00    -0.240 OA
BRANCH   9  12
ATOM     11  C   UNL     1       5.154  -4.171  22.837  0.00  0.00    +0.206 C 
ATOM     12  O   UNL     1       5.834  -3.873  24.048  0.00  0.00    -0.300 OA
ENDBRANCH   9  12
BRANCH   9  13
ATOM     13  O   UNL     1       8.971  -5.317  24.249  0.00  0.00    -0.300 OA
ATOM     14  C   UNL     1       9.706  -5.040  25.427  0.00  0.00    +0.206 C 
ENDBRANCH   9  13
ENDBRANCH   7   9
ENDBRANCH   1   7
BRANCH   2  15
ATOM     15  O   UNL     1      10.344  -1.593  21.577  0.00  0.00    -0.385 OA
ATOM     16  H   UNL     1       9.779  -1.046  20.995  0.00  0.00    +0.210 HD
ENDBRANCH   2  15
BRANCH   3  17
ATOM     17  O   UNL     1      10.621  -0.060  24.727  0.00  0.00    -0.386 OA
ATOM     18  H   UNL     1      10.235   0.640  25.275  0.00  0.00    +0.210 HD
ENDBRANCH   3  17
BRANCH   4  19
ATOM     19  O   UNL     1       8.930   1.881  22.583  0.00  0.00    -0.386 OA
ATOM     20  H   UNL     1       9.151   1.511  21.710  0.00  0.00    +0.210 HD
ENDBRANCH   4  19
BRANCH   5  21
ATOM     21  C   UNL     1       6.331   0.230  24.219  0.00  0.00    +0.190 C 
BRANCH  21  22
ATOM     22  O   UNL     1       5.510  -0.929  24.320  0.00  0.00    -0.392 OA
ATOM     23  H   UNL     1       6.113  -1.698  24.213  0.00  0.00    +0.210 HD
ENDBRANCH  21  22
ENDBRANCH   5  21
TORSDOF 9
ENDMDL
MODEL 4
REMARK VINA RESULT:      -4.8      2.189      5.370
REMARK  Name = 
REMARK  11 active torsions:
REMARK  status: ('A' for Active; 'I' for Inactive)
REMARK    1  A    between atoms: C_1  and  O_2
REMARK    2  A    between atoms: O_2  and  P_3
REMARK    3  A    between atoms: P_3  and  N_5
REMARK    4  A    between atoms: P_3  and  O_22
REMARK    5  A    between atoms: N_5  and  C_6
REMARK    6  A    between atoms: C_9  and  C_11
REMARK    7  A    between atoms: C_11  and  O_12
REMARK    8  A    between atoms: C_13  and  O_15
REMARK    9  A    between atoms: C_16  and  O_18
REMARK   10  A    between atoms: C_19  and  O_21
REMARK   11  A    between atoms: O_22  and  C_23
REMARK                            x       y       z     vdW  Elec       q    Type
REMARK                         _______ _______ _______ _____ _____    ______ ____
ROOT
ATOM      1  C   UNL     1       7.396  -3.120  22.329  0.00  0.00    +0.227 C 
ATOM      2  C   UNL     1       5.851  -3.251  22.099  0.00  0.00    +0.189 C 
ATOM      3  C   UNL     1       5.070  -4.239  22.998  0.00  0.00    +0.178 C 
ATOM      4  C   UNL     1       5.878  -5.329  23.700  0.00  0.00    +0.176 C 
ATOM      5  C   UNL     1       7.406  -5.290  23.536  0.00  0.00    +0.177 C 
ATOM      6  O   UNL     1       8.001  -4.368  22.630  0.00  0.00    -0.351 OA
ENDROOT
BRANCH   1   7
ATOM      7  N   UNL     1       7.792  -2.008  23.207  0.00  0.00    -0.194 NA
ATOM      8  H   UNL     1       7.249  -1.195  22.940  0.00  0.00    +0.136 HD
BRANCH   7   9
ATOM      9  P   UNL     1       9.365  -1.396  23.537  0.00  0.00    +0.410 P 
ATOM     10  O   UNL     1      10.322  -2.592  23.409  0.00  0.00    -0.240 OA
BRANCH   9  12
ATOM     11  C   UNL     1       9.014  -0.691  26.055  0.00  0.00    +0.206 C 
ATOM     12  O   UNL     1       9.078  -1.816  25.190  0.00  0.00    -0.300 OA
ENDBRANCH   9  12
BRANCH   9  13
ATOM     13  O   UNL     1       9.653  -0.975  21.884  0.00  0.00    -0.300 OA
ATOM     14  C   UNL     1       9.434   0.382  21.544  0.00  0.00    +0.206 C 
ENDBRANCH   9  13
ENDBRANCH   7   9
ENDBRANCH   1   7
BRANCH   2  15
ATOM     15  O   UNL     1       5.594  -3.608  20.718  0.00  0.00    -0.385 OA
ATOM     16  H   UNL     1       4.824  -3.091  20.408  0.00  0.00    +0.210 HD
ENDBRANCH   2  15
BRANCH   3  17
ATOM     17  O   UNL     1       4.224  -3.562  23.953  0.00  0.00    -0.386 OA
ATOM     18  H   UNL     1       4.183  -2.616  23.743  0.00  0.00    +0.210 HD
ENDBRANCH   3  17
BRANCH   4  19
ATOM     19  O   UNL     1       5.397  -6.603  23.182  0.00  0.00    -0.386 OA
ATOM     20  H   UNL     1       5.398  -6.546  22.210  0.00  0.00    +0.210 HD
ENDBRANCH   4  19
BRANCH   5  21
ATOM     21  C   UNL     1       8.105  -5.231  24.897  0.00  0.00    +0.190 C 
BRANCH  21  22
ATOM     22  O   UNL     1       9.487  -4.913  24.770  0.00  0.00    -0.392 OA
ATOM     23  H   UNL     1       9.970  -5.593  25.291  0.00  0.00    +0.210 HD
ENDBRANCH  21  22
ENDBRANCH   5  21
TORSDOF 9
ENDMDL
MODEL 5
REMARK VINA RESULT:      -4.8      2.022      4.067
REMARK  Name = 
REMARK  11 active torsions:
REMARK  status: ('A' for Active; 'I' for Inactive)
REMARK    1  A    between atoms: C_1  and  O_2
REMARK    2  A    between atoms: O_2  and  P_3
REMARK    3  A    between atoms: P_3  and  N_5
REMARK    4  A    between atoms: P_3  and  O_22
REMARK    5  A    between atoms: N_5  and  C_6
REMARK    6  A    between atoms: C_9  and  C_11
REMARK    7  A    between atoms: C_11  and  O_12
REMARK    8  A    between atoms: C_13  and  O_15
REMARK    9  A    between atoms: C_16  and  O_18
REMARK   10  A    between atoms: C_19  and  O_21
REMARK   11  A    between atoms: O_22  and  C_23
REMARK                            x       y       z     vdW  Elec       q    Type
REMARK                         _______ _______ _______ _____ _____    ______ ____
ROOT
ATOM      1  C   UNL     1       7.468  -1.264  22.603  0.00  0.00    +0.227 C 
ATOM      2  C   UNL     1       8.899  -1.840  22.323  0.00  0.00    +0.189 C 
ATOM      3  C   UNL     1       9.911  -1.855  23.492  0.00  0.00    +0.178 C 
ATOM      4  C   UNL     1       9.634  -0.915  24.664  0.00  0.00    +0.176 C 
ATOM      5  C   UNL     1       8.323  -0.113  24.630  0.00  0.00    +0.177 C 
ATOM      6  O   UNL     1       7.503  -0.139  23.467  0.00  0.00    -0.351 OA
ENDROOT
BRANCH   1   7
ATOM      7  N   UNL     1       6.456  -2.277  22.939  0.00  0.00    -0.194 NA
ATOM      8  H   UNL     1       6.021  -2.002  23.813  0.00  0.00    +0.136 HD
BRANCH   7   9
ATOM      9  P   UNL     1       6.627  -3.985  23.053  0.00  0.00    +0.410 P 
ATOM     10  O   UNL     1       5.305  -4.506  23.640  0.00  0.00    -0.240 OA
BRANCH   9  12
ATOM     11  C   UNL     1       7.408  -4.924  25.392  0.00  0.00    +0.206 C 
ATOM     12  O   UNL     1       7.223  -3.723  24.656  0.00  0.00    -0.300 OA
ENDBRANCH   9  12
BRANCH   9  13
ATOM     13  O   UNL     1       6.031  -4.249  21.451  0.00  0.00    -0.300 OA
ATOM     14  C   UNL     1       6.198  -5.557  20.936  0.00  0.00    +0.206 C 
ENDBRANCH   9  13
ENDBRANCH   7   9
ENDBRANCH   1   7
BRANCH   2  15
ATOM     15  O   UNL     1       9.504  -1.122  21.218  0.00  0.00    -0.385 OA
ATOM     16  H   UNL     1       9.889  -0.295  21.567  0.00  0.00    +0.210 HD
ENDBRANCH   2  15
BRANCH   3  17
ATOM     17  O   UNL     1      10.168  -3.189  23.981  0.00  0.00    -0.386 OA
ATOM     18  H   UNL     1       9.546  -3.812  23.575  0.00  0.00    +0.210 HD
ENDBRANCH   3  17
BRANCH   4  19
ATOM     19  O   UNL     1      10.743   0.029  24.713  0.00  0.00    -0.386 OA
ATOM     20  H   UNL     1      11.155   0.047  23.832  0.00  0.00    +0.210 HD
ENDBRANCH   4  19
BRANCH   5  21
ATOM     21  C   UNL     1       7.484  -0.375  25.884  0.00  0.00    +0.190 C 
BRANCH  21  22
ATOM     22  O   UNL     1       7.894  -1.561  26.558  0.00  0.00    -0.392 OA
ATOM     23  H   UNL     1       7.354  -2.289  26.176  0.00  0.00    +0.210 HD
ENDBRANCH  21  22
ENDBRANCH   5  21
TORSDOF 9
ENDMDL
MODEL 6
REMARK VINA RESULT:      -4.8      2.998      5.394
REMARK  Name = 
REMARK  11 active torsions:
REMARK  status: ('A' for Active; 'I' for Inactive)
REMARK    1  A    between atoms: C_1  and  O_2
REMARK    2  A    between atoms: O_2  and  P_3
REMARK    3  A    between atoms: P_3  and  N_5
REMARK    4  A    between atoms: P_3  and  O_22
REMARK    5  A    between atoms: N_5  and  C_6
REMARK    6  A    between atoms: C_9  and  C_11
REMARK    7  A    between atoms: C_11  and  O_12
REMARK    8  A    between atoms: C_13  and  O_15
REMARK    9  A    between atoms: C_16  and  O_18
REMARK   10  A    between atoms: C_19  and  O_21
REMARK   11  A    between atoms: O_22  and  C_23
REMARK                            x       y       z     vdW  Elec       q    Type
REMARK                         _______ _______ _______ _____ _____    ______ ____
ROOT
ATOM      1  C   UNL     1       9.064   0.817  24.843  0.00  0.00    +0.227 C 
ATOM      2  C   UNL     1      10.178   1.307  23.856  0.00  0.00    +0.189 C 
ATOM      3  C   UNL     1      10.104   0.823  22.388  0.00  0.00    +0.178 C 
ATOM      4  C   UNL     1       9.269  -0.424  22.109  0.00  0.00    +0.176 C 
ATOM      5  C   UNL     1       8.491  -1.032  23.289  0.00  0.00    +0.177 C 
ATOM      6  O   UNL     1       8.692  -0.531  24.606  0.00  0.00    -0.351 OA
ENDROOT
BRANCH   1   7
ATOM      7  N   UNL     1       7.942   1.752  25.013  0.00  0.00    -0.194 NA
ATOM      8  H   UNL     1       7.101   1.289  24.687  0.00  0.00    +0.136 HD
BRANCH   7   9
ATOM      9  P   UNL     1       7.790   3.375  24.461  0.00  0.00    +0.410 P 
ATOM     10  O   UNL     1       6.337   3.788  24.751  0.00  0.00    -0.240 OA
BRANCH   9  12
ATOM     11  C   UNL     1       6.660   3.662  22.095  0.00  0.00    +0.206 C 
ATOM     12  O   UNL     1       7.287   2.712  22.945  0.00  0.00    -0.300 OA
ENDBRANCH   9  12
BRANCH   9  13
ATOM     13  O   UNL     1       8.292   4.039  25.978  0.00  0.00    -0.300 OA
ATOM     14  C   UNL     1       8.273   5.452  26.071  0.00  0.00    +0.206 C 
ENDBRANCH   9  13
ENDBRANCH   7   9
ENDBRANCH   1   7
BRANCH   2  15
ATOM     15  O   UNL     1      11.482   0.949  24.378  0.00  0.00    -0.385 OA
ATOM     16  H   UNL     1      11.508  -0.021  24.494  0.00  0.00    +0.210 HD
ENDBRANCH   2  15
BRANCH   3  17
ATOM     17  O   UNL     1       9.729   1.881  21.479  0.00  0.00    -0.386 OA
ATOM     18  H   UNL     1       8.838   1.716  21.135  0.00  0.00    +0.210 HD
ENDBRANCH   3  17
BRANCH   4  19
ATOM     19  O   UNL     1      10.186  -1.435  21.601  0.00  0.00    -0.386 OA
ATOM     20  H   UNL     1      10.174  -1.384  20.629  0.00  0.00    +0.210 HD
ENDBRANCH   4  19
BRANCH   5  21
ATOM     21  C   UNL     1       6.996  -1.126  22.973  0.00  0.00    +0.190 C 
BRANCH  21  22
ATOM     22  O   UNL     1       6.397   0.160  22.850  0.00  0.00    -0.392 OA
ATOM     23  H   UNL     1       7.142   0.799  22.783  0.00  0.00    +0.210 HD
ENDBRANCH  21  22
ENDBRANCH   5  21
TORSDOF 9
ENDMDL
MODEL 7
REMARK VINA RESULT:      -4.7      2.801      4.423
REMARK  Name = 
REMARK  11 active torsions:
REMARK  status: ('A' for Active; 'I' for Inactive)
REMARK    1  A    between atoms: C_1  and  O_2
REMARK    2  A    between atoms: O_2  and  P_3
REMARK    3  A    between atoms: P_3  and  N_5
REMARK    4  A    between atoms: P_3  and  O_22
REMARK    5  A    between atoms: N_5  and  C_6
REMARK    6  A    between atoms: C_9  and  C_11
REMARK    7  A    between atoms: C_11  and  O_12
REMARK    8  A    between atoms: C_13  and  O_15
REMARK    9  A    between atoms: C_16  and  O_18
REMARK   10  A    between atoms: C_19  and  O_21
REMARK   11  A    between atoms: O_22  and  C_23
REMARK                            x       y       z     vdW  Elec       q    Type
REMARK                         _______ _______ _______ _____ _____    ______ ____
ROOT
ATOM      1  C   UNL     1       7.900  -5.060  24.529  0.00  0.00    +0.227 C 
ATOM      2  C   UNL     1       9.120  -4.208  25.020  0.00  0.00    +0.189 C 
ATOM      3  C   UNL     1       9.284  -2.783  24.441  0.00  0.00    +0.178 C 
ATOM      4  C   UNL     1       8.560  -2.477  23.131  0.00  0.00    +0.176 C 
ATOM      5  C   UNL     1       7.650  -3.575  22.555  0.00  0.00    +0.177 C 
ATOM      6  O   UNL     1       7.633  -4.868  23.149  0.00  0.00    -0.351 OA
ENDROOT
BRANCH   1   7
ATOM      7  N   UNL     1       6.721  -5.002  25.406  0.00  0.00    -0.194 NA
ATOM      8  H   UNL     1       5.985  -4.518  24.904  0.00  0.00    +0.136 HD
BRANCH   7   9
ATOM      9  P   UNL     1       6.599  -4.427  27.023  0.00  0.00    +0.410 P 
ATOM     10  O   UNL     1       5.116  -4.554  27.408  0.00  0.00    -0.240 OA
BRANCH   9  12
ATOM     11  C   UNL     1       5.422  -2.070  27.149  0.00  0.00    +0.206 C 
ATOM     12  O   UNL     1       6.278  -2.869  26.344  0.00  0.00    -0.300 OA
ENDBRANCH   9  12
BRANCH   9  13
ATOM     13  O   UNL     1       6.920  -5.985  27.703  0.00  0.00    -0.300 OA
ATOM     14  C   UNL     1       6.192  -6.311  28.873  0.00  0.00    +0.206 C 
ENDBRANCH   9  13
ENDBRANCH   7   9
ENDBRANCH   1   7
BRANCH   2  15
ATOM     15  O   UNL     1      10.351  -4.933  24.773  0.00  0.00    -0.385 OA
ATOM     16  H   UNL     1      10.324  -5.275  23.858  0.00  0.00    +0.210 HD
ENDBRANCH   2  15
BRANCH   3  17
ATOM     17  O   UNL     1       8.994  -1.756  25.415  0.00  0.00    -0.386 OA
ATOM     18  H   UNL     1       9.399  -1.987  26.265  0.00  0.00    +0.210 HD
ENDBRANCH   3  17
BRANCH   4  19
ATOM     19  O   UNL     1       9.590  -2.177  22.146  0.00  0.00    -0.386 OA
ATOM     20  H   UNL     1       9.964  -3.023  21.842  0.00  0.00    +0.210 HD
ENDBRANCH   4  19
BRANCH   5  21
ATOM     21  C   UNL     1       6.223  -3.058  22.353  0.00  0.00    +0.190 C 
BRANCH  21  22
ATOM     22  O   UNL     1       5.630  -2.645  23.580  0.00  0.00    -0.392 OA
ATOM     23  H   UNL     1       4.844  -2.109  23.333  0.00  0.00    +0.210 HD
ENDBRANCH  21  22
ENDBRANCH   5  21
TORSDOF 9
ENDMDL
MODEL 8
REMARK VINA RESULT:      -4.6      1.445      2.415
REMARK  Name = 
REMARK  11 active torsions:
REMARK  status: ('A' for Active; 'I' for Inactive)
REMARK    1  A    between atoms: C_1  and  O_2
REMARK    2  A    between atoms: O_2  and  P_3
REMARK    3  A    between atoms: P_3  and  N_5
REMARK    4  A    between atoms: P_3  and  O_22
REMARK    5  A    between atoms: N_5  and  C_6
REMARK    6  A    between atoms: C_9  and  C_11
REMARK    7  A    between atoms: C_11  and  O_12
REMARK    8  A    between atoms: C_13  and  O_15
REMARK    9  A    between atoms: C_16  and  O_18
REMARK   10  A    between atoms: C_19  and  O_21
REMARK   11  A    between atoms: O_22  and  C_23
REMARK                            x       y       z     vdW  Elec       q    Type
REMARK                         _______ _______ _______ _____ _____    ______ ____
ROOT
ATOM      1  C   UNL     1       9.172  -1.781  24.739  0.00  0.00    +0.227 C 
ATOM      2  C   UNL     1       8.440  -0.713  25.622  0.00  0.00    +0.189 C 
ATOM      3  C   UNL     1       8.209   0.689  25.012  0.00  0.00    +0.178 C 
ATOM      4  C   UNL     1       9.085   1.086  23.826  0.00  0.00    +0.176 C 
ATOM      5  C   UNL     1      10.049   0.021  23.275  0.00  0.00    +0.177 C 
ATOM      6  O   UNL     1      10.215  -1.213  23.963  0.00  0.00    -0.351 OA
ENDROOT
BRANCH   1   7
ATOM      7  N   UNL     1       8.275  -2.688  24.006  0.00  0.00    -0.194 NA
ATOM      8  H   UNL     1       7.328  -2.348  24.123  0.00  0.00    +0.136 HD
BRANCH   7   9
ATOM      9  P   UNL     1       8.142  -4.401  24.113  0.00  0.00    +0.410 P 
ATOM     10  O   UNL     1       6.786  -4.681  24.781  0.00  0.00    -0.240 OA
BRANCH   9  12
ATOM     11  C   UNL     1       8.155  -4.950  26.693  0.00  0.00    +0.206 C 
ATOM     12  O   UNL     1       8.872  -4.265  25.675  0.00  0.00    -0.300 OA
ENDBRANCH   9  12
BRANCH   9  13
ATOM     13  O   UNL     1       7.411  -4.538  22.551  0.00  0.00    -0.300 OA
ATOM     14  C   UNL     1       7.213  -5.856  22.074  0.00  0.00    +0.206 C 
ENDBRANCH   9  13
ENDBRANCH   7   9
ENDBRANCH   1   7
BRANCH   2  15
ATOM     15  O   UNL     1       9.155  -0.544  26.872  0.00  0.00    -0.385 OA
ATOM     16  H   UNL     1       9.352  -1.431  27.233  0.00  0.00    +0.210 HD
ENDBRANCH   2  15
BRANCH   3  17
ATOM     17  O   UNL     1       6.819   0.931  24.700  0.00  0.00    -0.386 OA
ATOM     18  H   UNL     1       6.715   1.826  24.341  0.00  0.00    +0.210 HD
ENDBRANCH   3  17
BRANCH   4  19
ATOM     19  O   UNL     1       9.873   2.233  24.254  0.00  0.00    -0.386 OA
ATOM     20  H   UNL     1      10.307   1.998  25.093  0.00  0.00    +0.210 HD
ENDBRANCH   4  19
BRANCH   5  21
ATOM     21  C   UNL     1       9.803  -0.225  21.784  0.00  0.00    +0.190 C 
BRANCH  21  22
ATOM     22  O   UNL     1       9.995  -1.592  21.433  0.00  0.00    -0.392 OA
ATOM     23  H   UNL     1       9.299  -1.801  20.771  0.00  0.00    +0.210 HD
ENDBRANCH  21  22
ENDBRANCH   5  21
TORSDOF 9
ENDMDL
MODEL 9
REMARK VINA RESULT:      -4.6      1.711      3.729
REMARK  Name = 
REMARK  11 active torsions:
REMARK  status: ('A' for Active; 'I' for Inactive)
REMARK    1  A    between atoms: C_1  and  O_2
REMARK    2  A    between atoms: O_2  and  P_3
REMARK    3  A    between atoms: P_3  and  N_5
REMARK    4  A    between atoms: P_3  and  O_22
REMARK    5  A    between atoms: N_5  and  C_6
REMARK    6  A    between atoms: C_9  and  C_11
REMARK    7  A    between atoms: C_11  and  O_12
REMARK    8  A    between atoms: C_13  and  O_15
REMARK    9  A    between atoms: C_16  and  O_18
REMARK   10  A    between atoms: C_19  and  O_21
REMARK   11  A    between atoms: O_22  and  C_23
REMARK                            x       y       z     vdW  Elec       q    Type
REMARK                         _______ _______ _______ _____ _____    ______ ____
ROOT
ATOM      1  C   UNL     1       8.449  -2.404  22.752  0.00  0.00    +0.227 C 
ATOM      2  C   UNL     1       9.803  -1.616  22.788  0.00  0.00    +0.189 C 
ATOM      3  C   UNL     1       9.812  -0.230  23.476  0.00  0.00    +0.178 C 
ATOM      4  C   UNL     1       8.466   0.469  23.649  0.00  0.00    +0.176 C 
ATOM      5  C   UNL     1       7.208  -0.305  23.220  0.00  0.00    +0.177 C 
ATOM      6  O   UNL     1       7.336  -1.549  22.541  0.00  0.00    -0.351 OA
ENDROOT
BRANCH   1   7
ATOM      7  N   UNL     1       8.284  -3.386  23.834  0.00  0.00    -0.194 NA
ATOM      8  H   UNL     1       9.171  -3.467  24.317  0.00  0.00    +0.136 HD
BRANCH   7   9
ATOM      9  P   UNL     1       7.679  -4.996  23.754  0.00  0.00    +0.410 P 
ATOM     10  O   UNL     1       6.242  -4.936  24.296  0.00  0.00    -0.240 OA
BRANCH   9  12
ATOM     11  C   UNL     1       9.676  -5.036  25.478  0.00  0.00    +0.206 C 
ATOM     12  O   UNL     1       8.268  -5.195  25.368  0.00  0.00    -0.300 OA
ENDBRANCH   9  12
BRANCH   9  13
ATOM     13  O   UNL     1       7.090  -4.797  22.140  0.00  0.00    -0.300 OA
ATOM     14  C   UNL     1       6.681  -5.981  21.480  0.00  0.00    +0.206 C 
ENDBRANCH   9  13
ENDBRANCH   7   9
ENDBRANCH   1   7
BRANCH   2  15
ATOM     15  O   UNL     1      10.303  -1.446  21.437  0.00  0.00    -0.385 OA
ATOM     16  H   UNL     1      10.948  -0.712  21.441  0.00  0.00    +0.210 HD
ENDBRANCH   2  15
BRANCH   3  17
ATOM     17  O   UNL     1      10.525  -0.244  24.732  0.00  0.00    -0.386 OA
ATOM     18  H   UNL     1       9.916  -0.034  25.456  0.00  0.00    +0.210 HD
ENDBRANCH   3  17
BRANCH   4  19
ATOM     19  O   UNL     1       8.530   1.698  22.869  0.00  0.00    -0.386 OA
ATOM     20  H   UNL     1       9.384   1.707  22.401  0.00  0.00    +0.210 HD
ENDBRANCH   4  19
BRANCH   5  21
ATOM     21  C   UNL     1       6.214  -0.426  24.378  0.00  0.00    +0.190 C 
BRANCH  21  22
ATOM     22  O   UNL     1       5.302   0.667  24.410  0.00  0.00    -0.392 OA
ATOM     23  H   UNL     1       5.853   1.480  24.354  0.00  0.00    +0.210 HD
ENDBRANCH  21  22
ENDBRANCH   5  21
TORSDOF 9
ENDMDL
