MODEL 1
REMARK VINA RESULT:      -3.9      0.000      0.000
REMARK  Name = 
REMARK  1 active torsions:
REMARK  status: ('A' for Active; 'I' for Inactive)
REMARK    1  A    between atoms: O_1  and  C_2
REMARK                            x       y       z     vdW  Elec       q    Type
REMARK                         _______ _______ _______ _____ _____    ______ ____
ROOT
ATOM      1  C   UNL     1       5.141  -6.145  23.814  0.00  0.00    +0.145 A 
ATOM      2  C   UNL     1       6.275  -5.629  23.180  0.00  0.00    +0.061 A 
ATOM      3 BR   UNL     1       6.425  -5.596  21.290  0.00  0.00    -0.046 Br
ATOM      4  C   UNL     1       7.332  -5.119  23.937  0.00  0.00    +0.034 A 
ATOM      5  C   UNL     1       7.250  -5.131  25.329  0.00  0.00    +0.020 A 
ATOM      6 BR   UNL     1       8.682  -4.442  26.355  0.00  0.00    -0.050 Br
ATOM      7  C   UNL     1       6.126  -5.643  25.973  0.00  0.00    +0.034 A 
ATOM      8  C   UNL     1       5.072  -6.150  25.211  0.00  0.00    +0.061 A 
ATOM      9 BR   UNL     1       3.550  -6.844  26.105  0.00  0.00    -0.046 Br
ENDROOT
BRANCH   1  10
ATOM     10  O   UNL     1       4.112  -6.642  23.058  0.00  0.00    -0.505 OA
ATOM     11  H   UNL     1       4.268  -7.593  22.922  0.00  0.00    +0.292 HD
ENDBRANCH   1  10
TORSDOF 1
ENDMDL
MODEL 2
REMARK VINA RESULT:      -3.9      0.014      2.991
REMARK  Name = 
REMARK  1 active torsions:
REMARK  status: ('A' for Active; 'I' for Inactive)
REMARK    1  A    between atoms: O_1  and  C_2
REMARK                            x       y       z     vdW  Elec       q    Type
REMARK                         _______ _______ _______ _____ _____    ______ ____
ROOT
ATOM      1  C   UNL     1       5.154  -6.143  23.811  0.00  0.00    +0.145 A 
ATOM      2  C   UNL     1       5.079  -6.147  25.207  0.00  0.00    +0.061 A 
ATOM      3 BR   UNL     1       3.564  -6.838  26.116  0.00  0.00    -0.046 Br
ATOM      4  C   UNL     1       6.132  -5.638  25.970  0.00  0.00    +0.034 A 
ATOM      5  C   UNL     1       7.259  -5.124  25.329  0.00  0.00    +0.020 A 
ATOM      6 BR   UNL     1       8.685  -4.433  26.361  0.00  0.00    -0.050 Br
ATOM      7  C   UNL     1       7.347  -5.113  23.938  0.00  0.00    +0.034 A 
ATOM      8  C   UNL     1       6.291  -5.624  23.182  0.00  0.00    +0.061 A 
ATOM      9 BR   UNL     1       6.428  -5.601  21.291  0.00  0.00    -0.046 Br
ENDROOT
BRANCH   1  10
ATOM     10  O   UNL     1       4.113  -6.646  23.077  0.00  0.00    -0.505 OA
ATOM     11  H   UNL     1       4.240  -6.381  22.149  0.00  0.00    +0.292 HD
ENDBRANCH   1  10
TORSDOF 1
ENDMDL
MODEL 3
REMARK VINA RESULT:      -3.9      3.248      4.399
REMARK  Name = 
REMARK  1 active torsions:
REMARK  status: ('A' for Active; 'I' for Inactive)
REMARK    1  A    between atoms: O_1  and  C_2
REMARK                            x       y       z     vdW  Elec       q    Type
REMARK                         _______ _______ _______ _____ _____    ______ ____
ROOT
ATOM      1  C   UNL     1       7.829  -4.054  23.689  0.00  0.00    +0.145 A 
ATOM      2  C   UNL     1       7.324  -3.135  22.764  0.00  0.00    +0.061 A 
ATOM      3 BR   UNL     1       5.689  -3.443  21.854  0.00  0.00    -0.046 Br
ATOM      4  C   UNL     1       8.023  -1.958  22.490  0.00  0.00    +0.034 A 
ATOM      5  C   UNL     1       9.228  -1.705  23.145  0.00  0.00    +0.020 A 
ATOM      6 BR   UNL     1      10.175  -0.111  22.774  0.00  0.00    -0.050 Br
ATOM      7  C   UNL     1       9.743  -2.613  24.068  0.00  0.00    +0.034 A 
ATOM      8  C   UNL     1       9.040  -3.787  24.338  0.00  0.00    +0.061 A 
ATOM      9 BR   UNL     1       9.756  -5.011  25.598  0.00  0.00    -0.046 Br
ENDROOT
BRANCH   1  10
ATOM     10  O   UNL     1       7.133  -5.205  23.947  0.00  0.00    -0.505 OA
ATOM     11  H   UNL     1       7.624  -5.714  24.616  0.00  0.00    +0.292 HD
ENDBRANCH   1  10
TORSDOF 1
ENDMDL
MODEL 4
REMARK VINA RESULT:      -3.9      3.273      4.665
REMARK  Name = 
REMARK  1 active torsions:
REMARK  status: ('A' for Active; 'I' for Inactive)
REMARK    1  A    between atoms: O_1  and  C_2
REMARK                            x       y       z     vdW  Elec       q    Type
REMARK                         _______ _______ _______ _____ _____    ______ ____
ROOT
ATOM      1  C   UNL     1       7.836  -4.014  23.688  0.00  0.00    +0.145 A 
ATOM      2  C   UNL     1       9.046  -3.768  24.346  0.00  0.00    +0.061 A 
ATOM      3 BR   UNL     1       9.773  -5.011  25.580  0.00  0.00    -0.046 Br
ATOM      4  C   UNL     1       9.751  -2.588  24.102  0.00  0.00    +0.034 A 
ATOM      5  C   UNL     1       9.240  -1.655  23.200  0.00  0.00    +0.020 A 
ATOM      6 BR   UNL     1      10.194  -0.056  22.870  0.00  0.00    -0.050 Br
ATOM      7  C   UNL     1       8.036  -1.887  22.539  0.00  0.00    +0.034 A 
ATOM      8  C   UNL     1       7.336  -3.069  22.786  0.00  0.00    +0.061 A 
ATOM      9 BR   UNL     1       5.699  -3.368  21.877  0.00  0.00    -0.046 Br
ENDROOT
BRANCH   1  10
ATOM     10  O   UNL     1       7.156  -5.176  23.938  0.00  0.00    -0.505 OA
ATOM     11  H   UNL     1       7.323  -5.433  24.862  0.00  0.00    +0.292 HD
ENDBRANCH   1  10
TORSDOF 1
ENDMDL
MODEL 5
REMARK VINA RESULT:      -3.9      3.391      4.731
REMARK  Name = 
REMARK  1 active torsions:
REMARK  status: ('A' for Active; 'I' for Inactive)
REMARK    1  A    between atoms: O_1  and  C_2
REMARK                            x       y       z     vdW  Elec       q    Type
REMARK                         _______ _______ _______ _____ _____    ______ ____
ROOT
ATOM      1  C   UNL     1       8.586  -2.745  24.305  0.00  0.00    +0.145 A 
ATOM      2  C   UNL     1       8.194  -2.325  23.030  0.00  0.00    +0.061 A 
ATOM      3 BR   UNL     1       8.529  -0.560  22.421  0.00  0.00    -0.046 Br
ATOM      4  C   UNL     1       7.540  -3.209  22.169  0.00  0.00    +0.034 A 
ATOM      5  C   UNL     1       7.281  -4.513  22.590  0.00  0.00    +0.020 A 
ATOM      6 BR   UNL     1       6.395  -5.711  21.425  0.00  0.00    -0.050 Br
ATOM      7  C   UNL     1       7.665  -4.944  23.858  0.00  0.00    +0.034 A 
ATOM      8  C   UNL     1       8.319  -4.056  24.713  0.00  0.00    +0.061 A 
ATOM      9 BR   UNL     1       8.835  -4.660  26.435  0.00  0.00    -0.046 Br
ENDROOT
BRANCH   1  10
ATOM     10  O   UNL     1       9.226  -1.866  25.138  0.00  0.00    -0.505 OA
ATOM     11  H   UNL     1      10.086  -1.642  24.740  0.00  0.00    +0.292 HD
ENDBRANCH   1  10
TORSDOF 1
ENDMDL
MODEL 6
REMARK VINA RESULT:      -3.8      1.511      3.321
REMARK  Name = 
REMARK  1 active torsions:
REMARK  status: ('A' for Active; 'I' for Inactive)
REMARK    1  A    between atoms: O_1  and  C_2
REMARK                            x       y       z     vdW  Elec       q    Type
REMARK                         _______ _______ _______ _____ _____    ______ ____
ROOT
ATOM      1  C   UNL     1       7.271  -5.143  24.008  0.00  0.00    +0.145 A 
ATOM      2  C   UNL     1       6.251  -5.645  23.194  0.00  0.00    +0.061 A 
ATOM      3 BR   UNL     1       6.386  -5.611  21.302  0.00  0.00    -0.046 Br
ATOM      4  C   UNL     1       5.099  -6.189  23.765  0.00  0.00    +0.034 A 
ATOM      5  C   UNL     1       4.972  -6.227  25.153  0.00  0.00    +0.020 A 
ATOM      6 BR   UNL     1       3.411  -6.963  25.928  0.00  0.00    -0.050 Br
ATOM      7  C   UNL     1       5.980  -5.730  25.976  0.00  0.00    +0.034 A 
ATOM      8  C   UNL     1       7.129  -5.189  25.399  0.00  0.00    +0.061 A 
ATOM      9 BR   UNL     1       8.491  -4.517  26.535  0.00  0.00    -0.046 Br
ENDROOT
BRANCH   1  10
ATOM     10  O   UNL     1       8.395  -4.613  23.433  0.00  0.00    -0.505 OA
ATOM     11  H   UNL     1       8.186  -4.389  22.509  0.00  0.00    +0.292 HD
ENDBRANCH   1  10
TORSDOF 1
ENDMDL
MODEL 7
REMARK VINA RESULT:      -3.8      3.432      5.312
REMARK  Name = 
REMARK  1 active torsions:
REMARK  status: ('A' for Active; 'I' for Inactive)
REMARK    1  A    between atoms: O_1  and  C_2
REMARK                            x       y       z     vdW  Elec       q    Type
REMARK                         _______ _______ _______ _____ _____    ______ ____
ROOT
ATOM      1  C   UNL     1       8.465  -2.679  24.389  0.00  0.00    +0.145 A 
ATOM      2  C   UNL     1       8.345  -4.035  24.707  0.00  0.00    +0.061 A 
ATOM      3 BR   UNL     1       8.973  -4.725  26.359  0.00  0.00    -0.046 Br
ATOM      4  C   UNL     1       7.752  -4.920  23.804  0.00  0.00    +0.034 A 
ATOM      5  C   UNL     1       7.281  -4.441  22.582  0.00  0.00    +0.020 A 
ATOM      6 BR   UNL     1       6.479  -5.638  21.357  0.00  0.00    -0.050 Br
ATOM      7  C   UNL     1       7.395  -3.092  22.251  0.00  0.00    +0.034 A 
ATOM      8  C   UNL     1       7.988  -2.213  23.159  0.00  0.00    +0.061 A 
ATOM      9 BR   UNL     1       8.134  -0.381  22.693  0.00  0.00    -0.046 Br
ENDROOT
BRANCH   1  10
ATOM     10  O   UNL     1       9.049  -1.824  25.286  0.00  0.00    -0.505 OA
ATOM     11  H   UNL     1       8.390  -1.602  25.967  0.00  0.00    +0.292 HD
ENDBRANCH   1  10
TORSDOF 1
ENDMDL
MODEL 8
REMARK VINA RESULT:      -3.8      2.907      3.631
REMARK  Name = 
REMARK  1 active torsions:
REMARK  status: ('A' for Active; 'I' for Inactive)
REMARK    1  A    between atoms: O_1  and  C_2
REMARK                            x       y       z     vdW  Elec       q    Type
REMARK                         _______ _______ _______ _____ _____    ______ ____
ROOT
ATOM      1  C   UNL     1       6.497  -3.401  22.492  0.00  0.00    +0.145 A 
ATOM      2  C   UNL     1       7.082  -2.532  23.419  0.00  0.00    +0.061 A 
ATOM      3 BR   UNL     1       6.617  -0.694  23.485  0.00  0.00    -0.046 Br
ATOM      4  C   UNL     1       8.031  -3.008  24.326  0.00  0.00    +0.034 A 
ATOM      5  C   UNL     1       8.392  -4.355  24.301  0.00  0.00    +0.020 A 
ATOM      6 BR   UNL     1       9.678  -5.000  25.529  0.00  0.00    -0.050 Br
ATOM      7  C   UNL     1       7.818  -5.231  23.382  0.00  0.00    +0.034 A 
ATOM      8  C   UNL     1       6.870  -4.749  22.478  0.00  0.00    +0.061 A 
ATOM      9 BR   UNL     1       6.098  -5.956  21.235  0.00  0.00    -0.046 Br
ENDROOT
BRANCH   1  10
ATOM     10  O   UNL     1       5.568  -2.919  21.608  0.00  0.00    -0.505 OA
ATOM     11  H   UNL     1       4.800  -3.518  21.619  0.00  0.00    +0.292 HD
ENDBRANCH   1  10
TORSDOF 1
ENDMDL
MODEL 9
REMARK VINA RESULT:      -3.8      7.605      8.677
REMARK  Name = 
REMARK  1 active torsions:
REMARK  status: ('A' for Active; 'I' for Inactive)
REMARK    1  A    between atoms: O_1  and  C_2
REMARK                            x       y       z     vdW  Elec       q    Type
REMARK                         _______ _______ _______ _____ _____    ______ ____
ROOT
ATOM      1  C   UNL     1       9.603   2.062  22.855  0.00  0.00    +0.145 A 
ATOM      2  C   UNL     1       9.169   0.736  22.951  0.00  0.00    +0.061 A 
ATOM      3 BR   UNL     1       9.550  -0.532  21.593  0.00  0.00    -0.046 Br
ATOM      4  C   UNL     1       8.439   0.314  24.064  0.00  0.00    +0.034 A 
ATOM      5  C   UNL     1       8.144   1.225  25.078  0.00  0.00    +0.020 A 
ATOM      6 BR   UNL     1       7.154   0.655  26.586  0.00  0.00    -0.050 Br
ATOM      7  C   UNL     1       8.569   2.549  24.995  0.00  0.00    +0.034 A 
ATOM      8  C   UNL     1       9.299   2.964  23.880  0.00  0.00    +0.061 A 
ATOM      9 BR   UNL     1       9.869   4.770  23.783  0.00  0.00    -0.046 Br
ENDROOT
BRANCH   1  10
ATOM     10  O   UNL     1      10.318   2.460  21.757  0.00  0.00    -0.505 OA
ATOM     11  H   UNL     1      10.997   3.093  22.050  0.00  0.00    +0.292 HD
ENDBRANCH   1  10
TORSDOF 1
ENDMDL
