MODEL 1
REMARK VINA RESULT:      -7.6      0.000      0.000
REMARK  Name = 
REMARK  14 active torsions:
REMARK  status: ('A' for Active; 'I' for Inactive)
REMARK    1  A    between atoms: C_1  and  C_2
REMARK    2  A    between atoms: C_9  and  O_10
REMARK    3  A    between atoms: O_10  and  C_11
REMARK    4  A    between atoms: C_11  and  C_12
REMARK    5  A    between atoms: C_17  and  S_20
REMARK    6  A    between atoms: S_20  and  N_23
REMARK    7  A    between atoms: C_27  and  C_28
REMARK    8  A    between atoms: N_30  and  C_31
REMARK    9  A    between atoms: C_31  and  C_32
REMARK   10  A    between atoms: C_32  and  C_33
REMARK   11  A    between atoms: C_33  and  N_34
REMARK   12  A    between atoms: C_35  and  C_37
REMARK   13  A    between atoms: C_40  and  C_43
REMARK   14  A    between atoms: C_46  and  C_47
REMARK                            x       y       z     vdW  Elec       q    Type
REMARK                         _______ _______ _______ _____ _____    ______ ____
ROOT
ATOM      1  N   UNL     1       6.653   5.311  24.217  0.00  0.00    -0.165 NA
ATOM      2  C   UNL     1       8.176   5.354  24.211  0.00  0.00    +0.165 C 
ATOM      3  C   UNL     1       8.570   6.196  22.987  0.00  0.00    +0.031 C 
ATOM      4  C   UNL     1       7.325   6.261  22.134  0.00  0.00    +0.019 C 
ATOM      5  C   UNL     1       6.200   6.248  23.152  0.00  0.00    +0.110 C 
ENDROOT
BRANCH   2   6
ATOM      6  C   UNL     1       8.908   4.011  24.277  0.00  0.00    +0.232 C 
ATOM      7  N   UNL     1       9.703   3.738  23.180  0.00  0.00    -0.314 N 
ATOM      8  H   UNL     1       9.984   4.513  22.579  0.00  0.00    +0.149 HD
ATOM      9  O   UNL     1       8.691   3.170  25.144  0.00  0.00    -0.274 OA
BRANCH   7  10
ATOM     10  C   UNL     1      10.222   2.415  22.886  0.00  0.00    +0.106 C 
BRANCH  10  11
ATOM     11  C   UNL     1       9.242   1.558  22.067  0.00  0.00    +0.037 C 
BRANCH  11  12
ATOM     12  C   UNL     1       9.741   0.128  21.866  0.00  0.00    +0.106 C 
BRANCH  12  13
ATOM     13  N   UNL     1       8.688  -0.859  22.054  0.00  0.00    -0.311 N 
ATOM     14  H   UNL     1       7.731  -0.538  21.988  0.00  0.00    +0.149 HD
ATOM     15  C   UNL     1       8.939  -2.142  22.498  0.00  0.00    +0.244 C 
ATOM     16  O   UNL     1      10.049  -2.551  22.815  0.00  0.00    -0.270 OA
BRANCH  15  17
ATOM     17  C   UNL     1       7.749  -3.035  22.614  0.00  0.00    +0.037 A 
ATOM     18  C   UNL     1       7.942  -4.405  22.839  0.00  0.00    +0.014 A 
ATOM     19  C   UNL     1       6.841  -5.253  23.020  0.00  0.00    +0.016 A 
ATOM     20  C   UNL     1       5.541  -4.737  22.966  0.00  0.00    +0.065 A 
ATOM     21  C   UNL     1       5.346  -3.384  22.669  0.00  0.00    +0.016 A 
ATOM     22  C   UNL     1       6.445  -2.535  22.493  0.00  0.00    +0.014 A 
BRANCH  20  23
ATOM     23  C   UNL     1       4.369  -5.624  23.237  0.00  0.00    +0.308 C 
ATOM     24  N   UNL     1       3.149  -5.268  22.987  0.00  0.00    -0.099 NA
ATOM     25  H   UNL     1       3.099  -4.308  22.639  0.00  0.00    +0.363 HD
ATOM     26  N   UNL     1       4.544  -6.859  23.781  0.00  0.00    -0.247 N 
ATOM     27  H   UNL     1       3.687  -7.402  23.724  0.00  0.00    +0.288 HD
ATOM     28  H   UNL     1       5.357  -7.377  23.470  0.00  0.00    +0.288 HD
ENDBRANCH  20  23
ENDBRANCH  15  17
ENDBRANCH  12  13
ENDBRANCH  11  12
ENDBRANCH  10  11
ENDBRANCH   7  10
ENDBRANCH   2   6
BRANCH   1  29
ATOM     29  S   UNL     1       6.010   5.576  25.780  0.00  0.00    +0.063 S 
ATOM     30  O   UNL     1       6.897   6.486  26.467  0.00  0.00    -0.153 OA
ATOM     31  O   UNL     1       4.624   5.953  25.569  0.00  0.00    -0.153 OA
BRANCH  29  35
ATOM     32  C   UNL     1       5.199   1.730  27.015  0.00  0.00    +0.028 A 
ATOM     33  C   UNL     1       5.345   2.864  26.167  0.00  0.00    +0.075 A 
ATOM     34 CL   UNL     1       4.753   2.784  24.542  0.00  0.00    -0.081 Cl
ATOM     35  C   UNL     1       5.991   4.012  26.644  0.00  0.00    +0.124 A 
ATOM     36  C   UNL     1       6.646   3.972  27.886  0.00  0.00    +0.031 A 
ATOM     37  C   UNL     1       6.631   2.815  28.661  0.00  0.00    +0.022 A 
ATOM     38  C   UNL     1       5.895   1.709  28.241  0.00  0.00    +0.049 A 
ATOM     39 CL   UNL     1       5.841   0.357  29.321  0.00  0.00    -0.083 Cl
BRANCH  32  40
ATOM     40  C   UNL     1       4.178   0.644  26.711  0.00  0.00    +0.267 C 
BRANCH  40  41
ATOM     41  O   UNL     1       4.519  -0.196  25.611  0.00  0.00    -0.485 OA
BRANCH  41  51
ATOM     42  C   UNL     1       9.451  -0.391  25.695  0.00  0.00    +0.065 C 
ATOM     43  C   UNL     1       8.395  -1.435  25.891  0.00  0.00    +0.039 A 
ATOM     44  C   UNL     1       8.755  -2.741  26.176  0.00  0.00    +0.027 A 
ATOM     45  C   UNL     1       7.758  -3.692  26.413  0.00  0.00    -0.039 A 
ATOM     46  C   UNL     1       8.225  -5.090  26.727  0.00  0.00    +0.044 C 
ATOM     47  C   UNL     1       6.400  -3.283  26.373  0.00  0.00    +0.007 A 
ATOM     48  C   UNL     1       5.326  -4.159  26.649  0.00  0.00    +0.010 A 
ATOM     49  C   UNL     1       4.008  -3.720  26.628  0.00  0.00    +0.004 A 
ATOM     50  C   UNL     1       3.731  -2.401  26.301  0.00  0.00    +0.048 A 
ATOM     51  C   UNL     1       4.771  -1.516  25.975  0.00  0.00    +0.147 A 
ATOM     52  C   UNL     1       6.117  -1.926  26.046  0.00  0.00    +0.113 A 
ATOM     53  N   UNL     1       7.107  -1.039  25.808  0.00  0.00    -0.248 NA
ENDBRANCH  41  51
ENDBRANCH  40  41
ENDBRANCH  32  40
ENDBRANCH  29  35
ENDBRANCH   1  29
TORSDOF 12
ENDMDL
MODEL 2
REMARK VINA RESULT:      -7.1      2.079      3.776
REMARK  Name = 
REMARK  14 active torsions:
REMARK  status: ('A' for Active; 'I' for Inactive)
REMARK    1  A    between atoms: C_1  and  C_2
REMARK    2  A    between atoms: C_9  and  O_10
REMARK    3  A    between atoms: O_10  and  C_11
REMARK    4  A    between atoms: C_11  and  C_12
REMARK    5  A    between atoms: C_17  and  S_20
REMARK    6  A    between atoms: S_20  and  N_23
REMARK    7  A    between atoms: C_27  and  C_28
REMARK    8  A    between atoms: N_30  and  C_31
REMARK    9  A    between atoms: C_31  and  C_32
REMARK   10  A    between atoms: C_32  and  C_33
REMARK   11  A    between atoms: C_33  and  N_34
REMARK   12  A    between atoms: C_35  and  C_37
REMARK   13  A    between atoms: C_40  and  C_43
REMARK   14  A    between atoms: C_46  and  C_47
REMARK                            x       y       z     vdW  Elec       q    Type
REMARK                         _______ _______ _______ _____ _____    ______ ____
ROOT
ATOM      1  N   UNL     1       6.163   3.395  24.569  0.00  0.00    -0.165 NA
ATOM      2  C   UNL     1       6.826   4.579  23.877  0.00  0.00    +0.165 C 
ATOM      3  C   UNL     1       6.692   4.316  22.368  0.00  0.00    +0.031 C 
ATOM      4  C   UNL     1       6.336   2.851  22.252  0.00  0.00    +0.019 C 
ATOM      5  C   UNL     1       5.512   2.589  23.499  0.00  0.00    +0.110 C 
ENDROOT
BRANCH   2   6
ATOM      6  C   UNL     1       8.257   4.919  24.301  0.00  0.00    +0.232 C 
ATOM      7  N   UNL     1       9.233   4.489  23.423  0.00  0.00    -0.314 N 
ATOM      8  H   UNL     1       8.959   4.262  22.467  0.00  0.00    +0.149 HD
ATOM      9  O   UNL     1       8.538   5.389  25.400  0.00  0.00    -0.274 OA
BRANCH   7  10
ATOM     10  C   UNL     1      10.640   4.418  23.772  0.00  0.00    +0.106 C 
BRANCH  10  11
ATOM     11  C   UNL     1      11.293   3.091  23.352  0.00  0.00    +0.037 C 
BRANCH  11  12
ATOM     12  C   UNL     1      10.368   2.227  22.496  0.00  0.00    +0.106 C 
BRANCH  12  13
ATOM     13  N   UNL     1      10.217   0.881  23.028  0.00  0.00    -0.311 N 
ATOM     14  H   UNL     1      10.596   0.119  22.483  0.00  0.00    +0.149 HD
ATOM     15  C   UNL     1       9.427   0.597  24.126  0.00  0.00    +0.244 C 
ATOM     16  O   UNL     1       8.753   1.431  24.716  0.00  0.00    -0.270 OA
BRANCH  15  17
ATOM     17  C   UNL     1       9.400  -0.832  24.556  0.00  0.00    +0.037 A 
ATOM     18  C   UNL     1       8.862  -1.157  25.808  0.00  0.00    +0.014 A 
ATOM     19  C   UNL     1       8.763  -2.497  26.208  0.00  0.00    +0.016 A 
ATOM     20  C   UNL     1       9.212  -3.517  25.361  0.00  0.00    +0.065 A 
ATOM     21  C   UNL     1       9.817  -3.188  24.142  0.00  0.00    +0.016 A 
ATOM     22  C   UNL     1       9.911  -1.850  23.741  0.00  0.00    +0.014 A 
BRANCH  20  23
ATOM     23  C   UNL     1       9.035  -4.949  25.749  0.00  0.00    +0.308 C 
ATOM     24  N   UNL     1       9.772  -5.901  25.271  0.00  0.00    -0.099 NA
ATOM     25  H   UNL     1      10.433  -5.553  24.573  0.00  0.00    +0.363 HD
ATOM     26  N   UNL     1       8.064  -5.314  26.630  0.00  0.00    -0.247 N 
ATOM     27  H   UNL     1       8.196  -6.275  26.934  0.00  0.00    +0.288 HD
ATOM     28  H   UNL     1       7.894  -4.681  27.401  0.00  0.00    +0.288 HD
ENDBRANCH  20  23
ENDBRANCH  15  17
ENDBRANCH  12  13
ENDBRANCH  11  12
ENDBRANCH  10  11
ENDBRANCH   7  10
ENDBRANCH   2   6
BRANCH   1  29
ATOM     29  S   UNL     1       5.157   3.888  25.862  0.00  0.00    +0.063 S 
ATOM     30  O   UNL     1       6.003   4.492  26.865  0.00  0.00    -0.153 OA
ATOM     31  O   UNL     1       4.101   4.674  25.250  0.00  0.00    -0.153 OA
BRANCH  29  35
ATOM     32  C   UNL     1       4.381   0.111  27.311  0.00  0.00    +0.028 A 
ATOM     33  C   UNL     1       5.087   1.302  26.980  0.00  0.00    +0.075 A 
ATOM     34 CL   UNL     1       6.808   1.340  27.159  0.00  0.00    -0.081 Cl
ATOM     35  C   UNL     1       4.381   2.432  26.548  0.00  0.00    +0.124 A 
ATOM     36  C   UNL     1       2.979   2.441  26.617  0.00  0.00    +0.031 A 
ATOM     37  C   UNL     1       2.282   1.327  27.079  0.00  0.00    +0.022 A 
ATOM     38  C   UNL     1       2.975   0.161  27.402  0.00  0.00    +0.049 A 
ATOM     39 CL   UNL     1       2.019  -1.208  27.858  0.00  0.00    -0.083 Cl
BRANCH  32  40
ATOM     40  C   UNL     1       5.091  -1.232  27.384  0.00  0.00    +0.267 C 
BRANCH  40  41
ATOM     41  O   UNL     1       4.519  -2.248  26.564  0.00  0.00    -0.485 OA
BRANCH  41  51
ATOM     42  C   UNL     1       4.376  -7.124  25.807  0.00  0.00    +0.065 C 
ATOM     43  C   UNL     1       4.997  -6.000  25.036  0.00  0.00    +0.039 A 
ATOM     44  C   UNL     1       5.671  -6.258  23.855  0.00  0.00    +0.027 A 
ATOM     45  C   UNL     1       6.196  -5.192  23.118  0.00  0.00    -0.039 A 
ATOM     46  C   UNL     1       6.909  -5.549  21.838  0.00  0.00    +0.044 C 
ATOM     47  C   UNL     1       6.004  -3.871  23.595  0.00  0.00    +0.007 A 
ATOM     48  C   UNL     1       6.452  -2.728  22.894  0.00  0.00    +0.010 A 
ATOM     49  C   UNL     1       6.223  -1.446  23.376  0.00  0.00    +0.004 A 
ATOM     50  C   UNL     1       5.568  -1.276  24.585  0.00  0.00    +0.048 A 
ATOM     51  C   UNL     1       5.150  -2.390  25.331  0.00  0.00    +0.147 A 
ATOM     52  C   UNL     1       5.322  -3.697  24.833  0.00  0.00    +0.113 A 
ATOM     53  N   UNL     1       4.842  -4.751  25.526  0.00  0.00    -0.248 NA
ENDBRANCH  41  51
ENDBRANCH  40  41
ENDBRANCH  32  40
ENDBRANCH  29  35
ENDBRANCH   1  29
TORSDOF 12
ENDMDL
MODEL 3
REMARK VINA RESULT:      -7.1      2.283      4.442
REMARK  Name = 
REMARK  14 active torsions:
REMARK  status: ('A' for Active; 'I' for Inactive)
REMARK    1  A    between atoms: C_1  and  C_2
REMARK    2  A    between atoms: C_9  and  O_10
REMARK    3  A    between atoms: O_10  and  C_11
REMARK    4  A    between atoms: C_11  and  C_12
REMARK    5  A    between atoms: C_17  and  S_20
REMARK    6  A    between atoms: S_20  and  N_23
REMARK    7  A    between atoms: C_27  and  C_28
REMARK    8  A    between atoms: N_30  and  C_31
REMARK    9  A    between atoms: C_31  and  C_32
REMARK   10  A    between atoms: C_32  and  C_33
REMARK   11  A    between atoms: C_33  and  N_34
REMARK   12  A    between atoms: C_35  and  C_37
REMARK   13  A    between atoms: C_40  and  C_43
REMARK   14  A    between atoms: C_46  and  C_47
REMARK                            x       y       z     vdW  Elec       q    Type
REMARK                         _______ _______ _______ _____ _____    ______ ____
ROOT
ATOM      1  N   UNL     1       8.544   5.351  25.442  0.00  0.00    -0.165 NA
ATOM      2  C   UNL     1       7.347   5.655  26.334  0.00  0.00    +0.165 C 
ATOM      3  C   UNL     1       7.731   6.903  27.146  0.00  0.00    +0.031 C 
ATOM      4  C   UNL     1       9.230   7.026  26.998  0.00  0.00    +0.019 C 
ATOM      5  C   UNL     1       9.491   6.490  25.603  0.00  0.00    +0.110 C 
ENDROOT
BRANCH   2   6
ATOM      6  C   UNL     1       6.822   4.511  27.206  0.00  0.00    +0.232 C 
ATOM      7  N   UNL     1       5.752   3.824  26.665  0.00  0.00    -0.314 N 
ATOM      8  H   UNL     1       5.581   3.904  25.662  0.00  0.00    +0.149 HD
ATOM      9  O   UNL     1       7.203   4.313  28.356  0.00  0.00    -0.274 OA
BRANCH   7  10
ATOM     10  C   UNL     1       4.908   2.933  27.439  0.00  0.00    +0.106 C 
BRANCH  10  11
ATOM     11  C   UNL     1       4.443   1.706  26.638  0.00  0.00    +0.037 C 
BRANCH  11  12
ATOM     12  C   UNL     1       5.604   0.954  25.989  0.00  0.00    +0.106 C 
BRANCH  12  13
ATOM     13  N   UNL     1       5.293  -0.447  25.749  0.00  0.00    -0.311 N 
ATOM     14  H   UNL     1       4.990  -0.705  24.820  0.00  0.00    +0.149 HD
ATOM     15  C   UNL     1       5.215  -1.378  26.766  0.00  0.00    +0.244 C 
ATOM     16  O   UNL     1       5.351  -1.108  27.953  0.00  0.00    -0.270 OA
BRANCH  15  17
ATOM     17  C   UNL     1       4.909  -2.777  26.346  0.00  0.00    +0.037 A 
ATOM     18  C   UNL     1       4.204  -2.994  25.155  0.00  0.00    +0.014 A 
ATOM     19  C   UNL     1       3.963  -4.299  24.703  0.00  0.00    +0.016 A 
ATOM     20  C   UNL     1       4.417  -5.394  25.448  0.00  0.00    +0.065 A 
ATOM     21  C   UNL     1       5.057  -5.179  26.674  0.00  0.00    +0.016 A 
ATOM     22  C   UNL     1       5.301  -3.876  27.123  0.00  0.00    +0.014 A 
BRANCH  20  23
ATOM     23  C   UNL     1       4.232  -6.783  24.930  0.00  0.00    +0.308 C 
ATOM     24  N   UNL     1       4.584  -7.138  23.735  0.00  0.00    -0.099 NA
ATOM     25  H   UNL     1       4.944  -6.347  23.196  0.00  0.00    +0.363 HD
ATOM     26  N   UNL     1       3.663  -7.744  25.708  0.00  0.00    -0.247 N 
ATOM     27  H   UNL     1       3.784  -8.663  25.291  0.00  0.00    +0.288 HD
ATOM     28  H   UNL     1       3.903  -7.727  26.692  0.00  0.00    +0.288 HD
ENDBRANCH  20  23
ENDBRANCH  15  17
ENDBRANCH  12  13
ENDBRANCH  11  12
ENDBRANCH  10  11
ENDBRANCH   7  10
ENDBRANCH   2   6
BRANCH   1  29
ATOM     29  S   UNL     1       8.073   4.980  23.840  0.00  0.00    +0.063 S 
ATOM     30  O   UNL     1       6.631   4.903  23.819  0.00  0.00    -0.153 OA
ATOM     31  O   UNL     1       8.749   5.954  23.003  0.00  0.00    -0.153 OA
BRANCH  29  35
ATOM     32  C   UNL     1       8.636   1.151  22.429  0.00  0.00    +0.028 A 
ATOM     33  C   UNL     1       8.138   2.479  22.540  0.00  0.00    +0.075 A 
ATOM     34 CL   UNL     1       6.803   2.966  21.552  0.00  0.00    -0.081 Cl
ATOM     35  C   UNL     1       8.751   3.381  23.419  0.00  0.00    +0.124 A 
ATOM     36  C   UNL     1       9.958   3.027  24.046  0.00  0.00    +0.031 A 
ATOM     37  C   UNL     1      10.531   1.775  23.828  0.00  0.00    +0.022 A 
ATOM     38  C   UNL     1       9.864   0.835  23.044  0.00  0.00    +0.049 A 
ATOM     39 CL   UNL     1      10.595  -0.730  22.922  0.00  0.00    -0.083 Cl
BRANCH  32  40
ATOM     40  C   UNL     1       7.789   0.039  21.827  0.00  0.00    +0.267 C 
BRANCH  40  41
ATOM     41  O   UNL     1       6.840  -0.532  22.724  0.00  0.00    -0.485 OA
BRANCH  41  51
ATOM     42  C   UNL     1       9.068  -0.882  27.115  0.00  0.00    +0.065 C 
ATOM     43  C   UNL     1       8.690  -1.907  26.089  0.00  0.00    +0.039 A 
ATOM     44  C   UNL     1       8.950  -3.247  26.319  0.00  0.00    +0.027 A 
ATOM     45  C   UNL     1       8.541  -4.196  25.378  0.00  0.00    -0.039 A 
ATOM     46  C   UNL     1       8.850  -5.636  25.700  0.00  0.00    +0.044 C 
ATOM     47  C   UNL     1       7.850  -3.757  24.220  0.00  0.00    +0.007 A 
ATOM     48  C   UNL     1       7.352  -4.644  23.239  0.00  0.00    +0.010 A 
ATOM     49  C   UNL     1       6.655  -4.183  22.130  0.00  0.00    +0.004 A 
ATOM     50  C   UNL     1       6.465  -2.821  21.959  0.00  0.00    +0.048 A 
ATOM     51  C   UNL     1       6.987  -1.907  22.889  0.00  0.00    +0.147 A 
ATOM     52  C   UNL     1       7.647  -2.357  24.049  0.00  0.00    +0.113 A 
ATOM     53  N   UNL     1       8.071  -1.468  24.973  0.00  0.00    -0.248 NA
ENDBRANCH  41  51
ENDBRANCH  40  41
ENDBRANCH  32  40
ENDBRANCH  29  35
ENDBRANCH   1  29
TORSDOF 12
ENDMDL
MODEL 4
REMARK VINA RESULT:      -6.9      2.459      5.537
REMARK  Name = 
REMARK  14 active torsions:
REMARK  status: ('A' for Active; 'I' for Inactive)
REMARK    1  A    between atoms: C_1  and  C_2
REMARK    2  A    between atoms: C_9  and  O_10
REMARK    3  A    between atoms: O_10  and  C_11
REMARK    4  A    between atoms: C_11  and  C_12
REMARK    5  A    between atoms: C_17  and  S_20
REMARK    6  A    between atoms: S_20  and  N_23
REMARK    7  A    between atoms: C_27  and  C_28
REMARK    8  A    between atoms: N_30  and  C_31
REMARK    9  A    between atoms: C_31  and  C_32
REMARK   10  A    between atoms: C_32  and  C_33
REMARK   11  A    between atoms: C_33  and  N_34
REMARK   12  A    between atoms: C_35  and  C_37
REMARK   13  A    between atoms: C_40  and  C_43
REMARK   14  A    between atoms: C_46  and  C_47
REMARK                            x       y       z     vdW  Elec       q    Type
REMARK                         _______ _______ _______ _____ _____    ______ ____
ROOT
ATOM      1  N   UNL     1       6.612   1.477  24.733  0.00  0.00    -0.165 NA
ATOM      2  C   UNL     1       6.178   2.928  24.568  0.00  0.00    +0.165 C 
ATOM      3  C   UNL     1       5.931   3.128  23.064  0.00  0.00    +0.031 C 
ATOM      4  C   UNL     1       6.600   1.950  22.394  0.00  0.00    +0.019 C 
ATOM      5  C   UNL     1       6.434   0.830  23.404  0.00  0.00    +0.110 C 
ENDROOT
BRANCH   2   6
ATOM      6  C   UNL     1       7.090   3.999  25.174  0.00  0.00    +0.232 C 
ATOM      7  N   UNL     1       6.779   5.293  24.803  0.00  0.00    -0.314 N 
ATOM      8  H   UNL     1       5.849   5.480  24.429  0.00  0.00    +0.149 HD
ATOM      9  O   UNL     1       8.110   3.734  25.803  0.00  0.00    -0.274 OA
BRANCH   7  10
ATOM     10  C   UNL     1       7.684   6.412  24.992  0.00  0.00    +0.106 C 
BRANCH  10  11
ATOM     11  C   UNL     1       8.457   6.777  23.715  0.00  0.00    +0.037 C 
BRANCH  11  12
ATOM     12  C   UNL     1       9.835   6.119  23.655  0.00  0.00    +0.106 C 
BRANCH  12  13
ATOM     13  N   UNL     1       9.754   4.680  23.460  0.00  0.00    -0.311 N 
ATOM     14  H   UNL     1       8.845   4.248  23.547  0.00  0.00    +0.149 HD
ATOM     15  C   UNL     1      10.874   3.878  23.354  0.00  0.00    +0.244 C 
ATOM     16  O   UNL     1      12.023   4.290  23.459  0.00  0.00    -0.270 OA
BRANCH  15  17
ATOM     17  C   UNL     1      10.615   2.424  23.132  0.00  0.00    +0.037 A 
ATOM     18  C   UNL     1      10.888   1.518  24.165  0.00  0.00    +0.014 A 
ATOM     19  C   UNL     1      10.590   0.157  24.007  0.00  0.00    +0.016 A 
ATOM     20  C   UNL     1      10.028  -0.304  22.811  0.00  0.00    +0.065 A 
ATOM     21  C   UNL     1       9.825   0.589  21.753  0.00  0.00    +0.016 A 
ATOM     22  C   UNL     1      10.118   1.948  21.912  0.00  0.00    +0.014 A 
BRANCH  20  23
ATOM     23  C   UNL     1       9.637  -1.739  22.669  0.00  0.00    +0.308 C 
ATOM     24  N   UNL     1      10.368  -2.712  23.113  0.00  0.00    -0.099 NA
ATOM     25  H   UNL     1      11.245  -2.374  23.513  0.00  0.00    +0.363 HD
ATOM     26  N   UNL     1       8.479  -2.084  22.042  0.00  0.00    -0.247 N 
ATOM     27  H   UNL     1       8.264  -3.065  22.196  0.00  0.00    +0.288 HD
ATOM     28  H   UNL     1       7.682  -1.480  22.203  0.00  0.00    +0.288 HD
ENDBRANCH  20  23
ENDBRANCH  15  17
ENDBRANCH  12  13
ENDBRANCH  11  12
ENDBRANCH  10  11
ENDBRANCH   7  10
ENDBRANCH   2   6
BRANCH   1  29
ATOM     29  S   UNL     1       5.831   0.720  26.054  0.00  0.00    +0.063 S 
ATOM     30  O   UNL     1       6.158   1.474  27.242  0.00  0.00    -0.153 OA
ATOM     31  O   UNL     1       4.442   0.583  25.654  0.00  0.00    -0.153 OA
BRANCH  29  35
ATOM     32  C   UNL     1       6.428  -3.241  27.016  0.00  0.00    +0.028 A 
ATOM     33  C   UNL     1       5.762  -2.016  26.730  0.00  0.00    +0.075 A 
ATOM     34 CL   UNL     1       4.056  -1.901  26.993  0.00  0.00    -0.081 Cl
ATOM     35  C   UNL     1       6.487  -0.935  26.211  0.00  0.00    +0.124 A 
ATOM     36  C   UNL     1       7.819  -1.123  25.807  0.00  0.00    +0.031 A 
ATOM     37  C   UNL     1       8.436  -2.364  25.951  0.00  0.00    +0.022 A 
ATOM     38  C   UNL     1       7.755  -3.410  26.571  0.00  0.00    +0.049 A 
ATOM     39 CL   UNL     1       8.639  -4.879  26.807  0.00  0.00    -0.083 Cl
BRANCH  32  40
ATOM     40  C   UNL     1       5.806  -4.279  27.938  0.00  0.00    +0.267 C 
BRANCH  40  41
ATOM     41  O   UNL     1       5.513  -5.526  27.311  0.00  0.00    -0.485 OA
BRANCH  41  51
ATOM     42  C   UNL     1       6.119  -6.021  22.438  0.00  0.00    +0.065 C 
ATOM     43  C   UNL     1       4.898  -5.890  23.296  0.00  0.00    +0.039 A 
ATOM     44  C   UNL     1       3.639  -5.921  22.721  0.00  0.00    +0.027 A 
ATOM     45  C   UNL     1       2.509  -5.855  23.540  0.00  0.00    -0.039 A 
ATOM     46  C   UNL     1       1.172  -5.903  22.845  0.00  0.00    +0.044 C 
ATOM     47  C   UNL     1       2.686  -5.778  24.945  0.00  0.00    +0.007 A 
ATOM     48  C   UNL     1       1.607  -5.760  25.857  0.00  0.00    +0.010 A 
ATOM     49  C   UNL     1       1.816  -5.712  27.229  0.00  0.00    +0.004 A 
ATOM     50  C   UNL     1       3.110  -5.651  27.722  0.00  0.00    +0.048 A 
ATOM     51  C   UNL     1       4.205  -5.620  26.844  0.00  0.00    +0.147 A 
ATOM     52  C   UNL     1       4.017  -5.725  25.452  0.00  0.00    +0.113 A 
ATOM     53  N   UNL     1       5.085  -5.775  24.628  0.00  0.00    -0.248 NA
ENDBRANCH  41  51
ENDBRANCH  40  41
ENDBRANCH  32  40
ENDBRANCH  29  35
ENDBRANCH   1  29
TORSDOF 12
ENDMDL
MODEL 5
REMARK VINA RESULT:      -6.9      2.405      5.029
REMARK  Name = 
REMARK  14 active torsions:
REMARK  status: ('A' for Active; 'I' for Inactive)
REMARK    1  A    between atoms: C_1  and  C_2
REMARK    2  A    between atoms: C_9  and  O_10
REMARK    3  A    between atoms: O_10  and  C_11
REMARK    4  A    between atoms: C_11  and  C_12
REMARK    5  A    between atoms: C_17  and  S_20
REMARK    6  A    between atoms: S_20  and  N_23
REMARK    7  A    between atoms: C_27  and  C_28
REMARK    8  A    between atoms: N_30  and  C_31
REMARK    9  A    between atoms: C_31  and  C_32
REMARK   10  A    between atoms: C_32  and  C_33
REMARK   11  A    between atoms: C_33  and  N_34
REMARK   12  A    between atoms: C_35  and  C_37
REMARK   13  A    between atoms: C_40  and  C_43
REMARK   14  A    between atoms: C_46  and  C_47
REMARK                            x       y       z     vdW  Elec       q    Type
REMARK                         _______ _______ _______ _____ _____    ______ ____
ROOT
ATOM      1  N   UNL     1       8.360   4.804  25.333  0.00  0.00    -0.165 NA
ATOM      2  C   UNL     1       7.459   5.523  26.329  0.00  0.00    +0.165 C 
ATOM      3  C   UNL     1       8.162   6.850  26.655  0.00  0.00    +0.031 C 
ATOM      4  C   UNL     1       9.583   6.674  26.171  0.00  0.00    +0.019 C 
ATOM      5  C   UNL     1       9.434   5.768  24.964  0.00  0.00    +0.110 C 
ENDROOT
BRANCH   2   6
ATOM      6  C   UNL     1       7.044   4.741  27.578  0.00  0.00    +0.232 C 
ATOM      7  N   UNL     1       5.862   4.036  27.446  0.00  0.00    -0.314 N 
ATOM      8  H   UNL     1       5.518   3.837  26.507  0.00  0.00    +0.149 HD
ATOM      9  O   UNL     1       7.614   4.851  28.659  0.00  0.00    -0.274 OA
BRANCH   7  10
ATOM     10  C   UNL     1       5.128   3.499  28.577  0.00  0.00    +0.106 C 
BRANCH  10  11
ATOM     11  C   UNL     1       4.430   2.167  28.257  0.00  0.00    +0.037 C 
BRANCH  11  12
ATOM     12  C   UNL     1       4.661   1.715  26.816  0.00  0.00    +0.106 C 
BRANCH  12  13
ATOM     13  N   UNL     1       5.380   0.452  26.739  0.00  0.00    -0.311 N 
ATOM     14  H   UNL     1       4.847  -0.396  26.875  0.00  0.00    +0.149 HD
ATOM     15  C   UNL     1       6.758   0.381  26.680  0.00  0.00    +0.244 C 
ATOM     16  O   UNL     1       7.496   1.357  26.733  0.00  0.00    -0.270 OA
BRANCH  15  17
ATOM     17  C   UNL     1       7.336  -0.992  26.581  0.00  0.00    +0.037 A 
ATOM     18  C   UNL     1       6.624  -2.072  27.120  0.00  0.00    +0.014 A 
ATOM     19  C   UNL     1       7.111  -3.379  26.980  0.00  0.00    +0.016 A 
ATOM     20  C   UNL     1       8.320  -3.610  26.311  0.00  0.00    +0.065 A 
ATOM     21  C   UNL     1       9.066  -2.525  25.838  0.00  0.00    +0.016 A 
ATOM     22  C   UNL     1       8.577  -1.220  25.973  0.00  0.00    +0.014 A 
BRANCH  20  23
ATOM     23  C   UNL     1       8.802  -5.007  26.092  0.00  0.00    +0.308 C 
ATOM     24  N   UNL     1       9.831  -5.285  25.357  0.00  0.00    -0.099 NA
ATOM     25  H   UNL     1      10.222  -4.447  24.920  0.00  0.00    +0.363 HD
ATOM     26  N   UNL     1       8.154  -6.062  26.658  0.00  0.00    -0.247 N 
ATOM     27  H   UNL     1       8.707  -6.910  26.575  0.00  0.00    +0.288 HD
ATOM     28  H   UNL     1       7.794  -5.920  27.593  0.00  0.00    +0.288 HD
ENDBRANCH  20  23
ENDBRANCH  15  17
ENDBRANCH  12  13
ENDBRANCH  11  12
ENDBRANCH  10  11
ENDBRANCH   7  10
ENDBRANCH   2   6
BRANCH   1  29
ATOM     29  S   UNL     1       7.473   4.128  24.036  0.00  0.00    +0.063 S 
ATOM     30  O   UNL     1       6.148   3.830  24.525  0.00  0.00    -0.153 OA
ATOM     31  O   UNL     1       7.635   5.057  22.932  0.00  0.00    -0.153 OA
BRANCH  29  35
ATOM     32  C   UNL     1       8.296   0.354  22.606  0.00  0.00    +0.028 A 
ATOM     33  C   UNL     1       7.665   1.619  22.764  0.00  0.00    +0.075 A 
ATOM     34 CL   UNL     1       6.170   1.926  21.948  0.00  0.00    -0.081 Cl
ATOM     35  C   UNL     1       8.275   2.607  23.549  0.00  0.00    +0.124 A 
ATOM     36  C   UNL     1       9.582   2.407  24.022  0.00  0.00    +0.031 A 
ATOM     37  C   UNL     1      10.265   1.225  23.747  0.00  0.00    +0.022 A 
ATOM     38  C   UNL     1       9.620   0.195  23.063  0.00  0.00    +0.049 A 
ATOM     39 CL   UNL     1      10.506  -1.279  22.866  0.00  0.00    -0.083 Cl
BRANCH  32  40
ATOM     40  C   UNL     1       7.516  -0.862  22.127  0.00  0.00    +0.267 C 
BRANCH  40  41
ATOM     41  O   UNL     1       6.589  -1.380  23.078  0.00  0.00    -0.485 OA
BRANCH  41  51
ATOM     42  C   UNL     1       2.693  -2.298  25.966  0.00  0.00    +0.065 C 
ATOM     43  C   UNL     1       3.709  -3.194  25.327  0.00  0.00    +0.039 A 
ATOM     44  C   UNL     1       3.629  -4.565  25.494  0.00  0.00    +0.027 A 
ATOM     45  C   UNL     1       4.551  -5.391  24.844  0.00  0.00    -0.039 A 
ATOM     46  C   UNL     1       4.395  -6.874  25.065  0.00  0.00    +0.044 C 
ATOM     47  C   UNL     1       5.535  -4.796  24.014  0.00  0.00    +0.007 A 
ATOM     48  C   UNL     1       6.476  -5.550  23.276  0.00  0.00    +0.010 A 
ATOM     49  C   UNL     1       7.409  -4.937  22.450  0.00  0.00    +0.004 A 
ATOM     50  C   UNL     1       7.443  -3.554  22.365  0.00  0.00    +0.048 A 
ATOM     51  C   UNL     1       6.554  -2.772  23.119  0.00  0.00    +0.147 A 
ATOM     52  C   UNL     1       5.563  -3.375  23.919  0.00  0.00    +0.113 A 
ATOM     53  N   UNL     1       4.665  -2.609  24.574  0.00  0.00    -0.248 NA
ENDBRANCH  41  51
ENDBRANCH  40  41
ENDBRANCH  32  40
ENDBRANCH  29  35
ENDBRANCH   1  29
TORSDOF 12
ENDMDL
MODEL 6
REMARK VINA RESULT:      -6.9      3.021      6.327
REMARK  Name = 
REMARK  14 active torsions:
REMARK  status: ('A' for Active; 'I' for Inactive)
REMARK    1  A    between atoms: C_1  and  C_2
REMARK    2  A    between atoms: C_9  and  O_10
REMARK    3  A    between atoms: O_10  and  C_11
REMARK    4  A    between atoms: C_11  and  C_12
REMARK    5  A    between atoms: C_17  and  S_20
REMARK    6  A    between atoms: S_20  and  N_23
REMARK    7  A    between atoms: C_27  and  C_28
REMARK    8  A    between atoms: N_30  and  C_31
REMARK    9  A    between atoms: C_31  and  C_32
REMARK   10  A    between atoms: C_32  and  C_33
REMARK   11  A    between atoms: C_33  and  N_34
REMARK   12  A    between atoms: C_35  and  C_37
REMARK   13  A    between atoms: C_40  and  C_43
REMARK   14  A    between atoms: C_46  and  C_47
REMARK                            x       y       z     vdW  Elec       q    Type
REMARK                         _______ _______ _______ _____ _____    ______ ____
ROOT
ATOM      1  N   UNL     1       8.817   0.785  23.644  0.00  0.00    -0.165 NA
ATOM      2  C   UNL     1       7.319   0.510  23.602  0.00  0.00    +0.165 C 
ATOM      3  C   UNL     1       6.832   1.030  22.241  0.00  0.00    +0.031 C 
ATOM      4  C   UNL     1       7.943   1.921  21.736  0.00  0.00    +0.019 C 
ATOM      5  C   UNL     1       9.196   1.266  22.287  0.00  0.00    +0.110 C 
ENDROOT
BRANCH   2   6
ATOM      6  C   UNL     1       6.485   1.030  24.777  0.00  0.00    +0.232 C 
ATOM      7  N   UNL     1       7.218   1.655  25.767  0.00  0.00    -0.314 N 
ATOM      8  H   UNL     1       8.155   1.987  25.541  0.00  0.00    +0.149 HD
ATOM      9  O   UNL     1       5.292   0.778  24.917  0.00  0.00    -0.274 OA
BRANCH   7  10
ATOM     10  C   UNL     1       6.690   1.930  27.091  0.00  0.00    +0.106 C 
BRANCH  10  11
ATOM     11  C   UNL     1       6.856   0.747  28.058  0.00  0.00    +0.037 C 
BRANCH  11  12
ATOM     12  C   UNL     1       5.519   0.137  28.475  0.00  0.00    +0.106 C 
BRANCH  12  13
ATOM     13  N   UNL     1       4.974  -0.752  27.460  0.00  0.00    -0.311 N 
ATOM     14  H   UNL     1       5.302  -0.632  26.511  0.00  0.00    +0.149 HD
ATOM     15  C   UNL     1       3.914  -1.603  27.705  0.00  0.00    +0.244 C 
ATOM     16  O   UNL     1       3.310  -1.654  28.769  0.00  0.00    -0.270 OA
BRANCH  15  17
ATOM     17  C   UNL     1       3.493  -2.465  26.561  0.00  0.00    +0.037 A 
ATOM     18  C   UNL     1       4.361  -2.626  25.473  0.00  0.00    +0.014 A 
ATOM     19  C   UNL     1       4.019  -3.484  24.418  0.00  0.00    +0.016 A 
ATOM     20  C   UNL     1       2.803  -4.177  24.443  0.00  0.00    +0.065 A 
ATOM     21  C   UNL     1       1.905  -3.959  25.494  0.00  0.00    +0.016 A 
ATOM     22  C   UNL     1       2.248  -3.106  26.549  0.00  0.00    +0.014 A 
BRANCH  20  23
ATOM     23  C   UNL     1       2.471  -5.152  23.360  0.00  0.00    +0.308 C 
ATOM     24  N   UNL     1       3.361  -5.914  22.808  0.00  0.00    -0.099 NA
ATOM     25  H   UNL     1       4.298  -5.723  23.168  0.00  0.00    +0.363 HD
ATOM     26  N   UNL     1       1.197  -5.267  22.896  0.00  0.00    -0.247 N 
ATOM     27  H   UNL     1       1.100  -6.092  22.311  0.00  0.00    +0.288 HD
ATOM     28  H   UNL     1       0.458  -5.187  23.584  0.00  0.00    +0.288 HD
ENDBRANCH  20  23
ENDBRANCH  15  17
ENDBRANCH  12  13
ENDBRANCH  11  12
ENDBRANCH  10  11
ENDBRANCH   7  10
ENDBRANCH   2   6
BRANCH   1  29
ATOM     29  S   UNL     1       9.698  -0.552  24.246  0.00  0.00    +0.063 S 
ATOM     30  O   UNL     1      10.942  -0.617  23.515  0.00  0.00    -0.153 OA
ATOM     31  O   UNL     1       9.724  -0.380  25.687  0.00  0.00    -0.153 OA
BRANCH  29  35
ATOM     32  C   UNL     1       7.718  -4.150  24.568  0.00  0.00    +0.028 A 
ATOM     33  C   UNL     1       8.276  -2.890  24.923  0.00  0.00    +0.075 A 
ATOM     34 CL   UNL     1       8.319  -2.426  26.590  0.00  0.00    -0.081 Cl
ATOM     35  C   UNL     1       8.750  -2.032  23.922  0.00  0.00    +0.124 A 
ATOM     36  C   UNL     1       8.507  -2.340  22.574  0.00  0.00    +0.031 A 
ATOM     37  C   UNL     1       7.832  -3.506  22.221  0.00  0.00    +0.022 A 
ATOM     38  C   UNL     1       7.459  -4.417  23.208  0.00  0.00    +0.049 A 
ATOM     39 CL   UNL     1       6.726  -5.889  22.668  0.00  0.00    -0.083 Cl
BRANCH  32  40
ATOM     40  C   UNL     1       7.573  -5.265  25.593  0.00  0.00    +0.267 C 
BRANCH  40  41
ATOM     41  O   UNL     1       6.305  -5.916  25.582  0.00  0.00    -0.485 OA
BRANCH  41  51
ATOM     42  C   UNL     1       2.257  -8.629  24.793  0.00  0.00    +0.065 C 
ATOM     43  C   UNL     1       2.660  -7.716  25.912  0.00  0.00    +0.039 A 
ATOM     44  C   UNL     1       1.820  -7.538  26.998  0.00  0.00    +0.027 A 
ATOM     45  C   UNL     1       2.235  -6.728  28.059  0.00  0.00    -0.039 A 
ATOM     46  C   UNL     1       1.273  -6.588  29.212  0.00  0.00    +0.044 C 
ATOM     47  C   UNL     1       3.519  -6.127  28.000  0.00  0.00    +0.007 A 
ATOM     48  C   UNL     1       4.046  -5.336  29.045  0.00  0.00    +0.010 A 
ATOM     49  C   UNL     1       5.318  -4.785  28.967  0.00  0.00    +0.004 A 
ATOM     50  C   UNL     1       6.082  -4.986  27.828  0.00  0.00    +0.048 A 
ATOM     51  C   UNL     1       5.572  -5.727  26.751  0.00  0.00    +0.147 A 
ATOM     52  C   UNL     1       4.307  -6.342  26.833  0.00  0.00    +0.113 A 
ATOM     53  N   UNL     1       3.867  -7.118  25.820  0.00  0.00    -0.248 NA
ENDBRANCH  41  51
ENDBRANCH  40  41
ENDBRANCH  32  40
ENDBRANCH  29  35
ENDBRANCH   1  29
TORSDOF 12
ENDMDL
MODEL 7
REMARK VINA RESULT:      -6.7      2.649      8.090
REMARK  Name = 
REMARK  14 active torsions:
REMARK  status: ('A' for Active; 'I' for Inactive)
REMARK    1  A    between atoms: C_1  and  C_2
REMARK    2  A    between atoms: C_9  and  O_10
REMARK    3  A    between atoms: O_10  and  C_11
REMARK    4  A    between atoms: C_11  and  C_12
REMARK    5  A    between atoms: C_17  and  S_20
REMARK    6  A    between atoms: S_20  and  N_23
REMARK    7  A    between atoms: C_27  and  C_28
REMARK    8  A    between atoms: N_30  and  C_31
REMARK    9  A    between atoms: C_31  and  C_32
REMARK   10  A    between atoms: C_32  and  C_33
REMARK   11  A    between atoms: C_33  and  N_34
REMARK   12  A    between atoms: C_35  and  C_37
REMARK   13  A    between atoms: C_40  and  C_43
REMARK   14  A    between atoms: C_46  and  C_47
REMARK                            x       y       z     vdW  Elec       q    Type
REMARK                         _______ _______ _______ _____ _____    ______ ____
ROOT
ATOM      1  N   UNL     1       4.898  -4.352  26.523  0.00  0.00    -0.165 NA
ATOM      2  C   UNL     1       4.483  -5.753  26.092  0.00  0.00    +0.165 C 
ATOM      3  C   UNL     1       5.052  -6.708  27.153  0.00  0.00    +0.031 C 
ATOM      4  C   UNL     1       6.081  -5.895  27.905  0.00  0.00    +0.019 C 
ATOM      5  C   UNL     1       5.511  -4.490  27.873  0.00  0.00    +0.110 C 
ENDROOT
BRANCH   2   6
ATOM      6  C   UNL     1       4.833  -6.170  24.660  0.00  0.00    +0.232 C 
ATOM      7  N   UNL     1       5.376  -5.162  23.887  0.00  0.00    -0.314 N 
ATOM      8  H   UNL     1       5.772  -4.349  24.358  0.00  0.00    +0.149 HD
ATOM      9  O   UNL     1       4.514  -7.254  24.180  0.00  0.00    -0.274 OA
BRANCH   7  10
ATOM     10  C   UNL     1       5.480  -5.239  22.441  0.00  0.00    +0.106 C 
BRANCH  10  11
ATOM     11  C   UNL     1       6.583  -4.331  21.873  0.00  0.00    +0.037 C 
BRANCH  11  12
ATOM     12  C   UNL     1       7.733  -4.119  22.856  0.00  0.00    +0.106 C 
BRANCH  12  13
ATOM     13  N   UNL     1       8.219  -2.748  22.854  0.00  0.00    -0.311 N 
ATOM     14  H   UNL     1       7.739  -2.084  22.261  0.00  0.00    +0.149 HD
ATOM     15  C   UNL     1       9.397  -2.373  23.469  0.00  0.00    +0.244 C 
ATOM     16  O   UNL     1      10.157  -3.156  24.025  0.00  0.00    -0.270 OA
BRANCH  15  17
ATOM     17  C   UNL     1       9.739  -0.922  23.394  0.00  0.00    +0.037 A 
ATOM     18  C   UNL     1       9.603  -0.251  22.171  0.00  0.00    +0.014 A 
ATOM     19  C   UNL     1       9.851   1.125  22.089  0.00  0.00    +0.016 A 
ATOM     20  C   UNL     1      10.248   1.836  23.228  0.00  0.00    +0.065 A 
ATOM     21  C   UNL     1      10.454   1.153  24.432  0.00  0.00    +0.016 A 
ATOM     22  C   UNL     1      10.201  -0.221  24.515  0.00  0.00    +0.014 A 
BRANCH  20  23
ATOM     23  C   UNL     1      10.436   3.317  23.162  0.00  0.00    +0.308 C 
ATOM     24  N   UNL     1      11.603   3.878  23.218  0.00  0.00    -0.099 NA
ATOM     25  H   UNL     1      12.346   3.191  23.361  0.00  0.00    +0.363 HD
ATOM     26  N   UNL     1       9.364   4.149  23.052  0.00  0.00    -0.247 N 
ATOM     27  H   UNL     1       9.664   5.094  22.827  0.00  0.00    +0.288 HD
ATOM     28  H   UNL     1       8.605   3.829  22.464  0.00  0.00    +0.288 HD
ENDBRANCH  20  23
ENDBRANCH  15  17
ENDBRANCH  12  13
ENDBRANCH  11  12
ENDBRANCH  10  11
ENDBRANCH   7  10
ENDBRANCH   2   6
BRANCH   1  29
ATOM     29  S   UNL     1       3.611  -3.232  26.388  0.00  0.00    +0.063 S 
ATOM     30  O   UNL     1       3.255  -3.146  24.991  0.00  0.00    -0.153 OA
ATOM     31  O   UNL     1       2.618  -3.668  27.353  0.00  0.00    -0.153 OA
BRANCH  29  35
ATOM     32  C   UNL     1       5.786   0.220  26.952  0.00  0.00    +0.028 A 
ATOM     33  C   UNL     1       5.239  -0.932  26.321  0.00  0.00    +0.075 A 
ATOM     34 CL   UNL     1       5.845  -1.414  24.773  0.00  0.00    -0.081 Cl
ATOM     35  C   UNL     1       4.202  -1.640  26.942  0.00  0.00    +0.124 A 
ATOM     36  C   UNL     1       3.588  -1.106  28.087  0.00  0.00    +0.031 A 
ATOM     37  C   UNL     1       4.024   0.100  28.630  0.00  0.00    +0.022 A 
ATOM     38  C   UNL     1       5.129   0.749  28.082  0.00  0.00    +0.049 A 
ATOM     39 CL   UNL     1       5.668   2.181  28.890  0.00  0.00    -0.083 Cl
BRANCH  32  40
ATOM     40  C   UNL     1       7.145   0.771  26.547  0.00  0.00    +0.267 C 
BRANCH  40  41
ATOM     41  O   UNL     1       7.179   2.184  26.363  0.00  0.00    -0.485 OA
BRANCH  41  51
ATOM     42  C   UNL     1       5.820   6.857  27.188  0.00  0.00    +0.065 C 
ATOM     43  C   UNL     1       5.712   5.971  25.984  0.00  0.00    +0.039 A 
ATOM     44  C   UNL     1       5.158   6.457  24.813  0.00  0.00    +0.027 A 
ATOM     45  C   UNL     1       5.117   5.636  23.682  0.00  0.00    -0.039 A 
ATOM     46  C   UNL     1       4.508   6.235  22.439  0.00  0.00    +0.044 C 
ATOM     47  C   UNL     1       5.664   4.330  23.764  0.00  0.00    +0.007 A 
ATOM     48  C   UNL     1       5.715   3.447  22.662  0.00  0.00    +0.010 A 
ATOM     49  C   UNL     1       6.283   2.184  22.770  0.00  0.00    +0.004 A 
ATOM     50  C   UNL     1       6.787   1.762  23.991  0.00  0.00    +0.048 A 
ATOM     51  C   UNL     1       6.711   2.596  25.118  0.00  0.00    +0.147 A 
ATOM     52  C   UNL     1       6.190   3.901  25.016  0.00  0.00    +0.113 A 
ATOM     53  N   UNL     1       6.199   4.717  26.092  0.00  0.00    -0.248 NA
ENDBRANCH  41  51
ENDBRANCH  40  41
ENDBRANCH  32  40
ENDBRANCH  29  35
ENDBRANCH   1  29
TORSDOF 12
ENDMDL
MODEL 8
REMARK VINA RESULT:      -6.6      1.848      3.182
REMARK  Name = 
REMARK  14 active torsions:
REMARK  status: ('A' for Active; 'I' for Inactive)
REMARK    1  A    between atoms: C_1  and  C_2
REMARK    2  A    between atoms: C_9  and  O_10
REMARK    3  A    between atoms: O_10  and  C_11
REMARK    4  A    between atoms: C_11  and  C_12
REMARK    5  A    between atoms: C_17  and  S_20
REMARK    6  A    between atoms: S_20  and  N_23
REMARK    7  A    between atoms: C_27  and  C_28
REMARK    8  A    between atoms: N_30  and  C_31
REMARK    9  A    between atoms: C_31  and  C_32
REMARK   10  A    between atoms: C_32  and  C_33
REMARK   11  A    between atoms: C_33  and  N_34
REMARK   12  A    between atoms: C_35  and  C_37
REMARK   13  A    between atoms: C_40  and  C_43
REMARK   14  A    between atoms: C_46  and  C_47
REMARK                            x       y       z     vdW  Elec       q    Type
REMARK                         _______ _______ _______ _____ _____    ______ ____
ROOT
ATOM      1  N   UNL     1       6.602   4.101  24.563  0.00  0.00    -0.165 NA
ATOM      2  C   UNL     1       7.306   4.203  23.216  0.00  0.00    +0.165 C 
ATOM      3  C   UNL     1       6.752   5.470  22.544  0.00  0.00    +0.031 C 
ATOM      4  C   UNL     1       5.500   5.813  23.317  0.00  0.00    +0.019 C 
ATOM      5  C   UNL     1       5.823   5.360  24.729  0.00  0.00    +0.110 C 
ENDROOT
BRANCH   2   6
ATOM      6  C   UNL     1       7.252   2.971  22.309  0.00  0.00    +0.232 C 
ATOM      7  N   UNL     1       8.376   2.169  22.366  0.00  0.00    -0.314 N 
ATOM      8  H   UNL     1       8.998   2.260  23.170  0.00  0.00    +0.149 HD
ATOM      9  O   UNL     1       6.367   2.785  21.480  0.00  0.00    -0.274 OA
BRANCH   7  10
ATOM     10  C   UNL     1       8.674   1.148  21.378  0.00  0.00    +0.106 C 
BRANCH  10  11
ATOM     11  C   UNL     1       9.825   0.222  21.805  0.00  0.00    +0.037 C 
BRANCH  11  12
ATOM     12  C   UNL     1      10.137   0.323  23.298  0.00  0.00    +0.106 C 
BRANCH  12  13
ATOM     13  N   UNL     1       9.536  -0.758  24.065  0.00  0.00    -0.311 N 
ATOM     14  H   UNL     1       9.008  -0.507  24.889  0.00  0.00    +0.149 HD
ATOM     15  C   UNL     1       9.815  -2.089  23.822  0.00  0.00    +0.244 C 
ATOM     16  O   UNL     1      10.618  -2.477  22.983  0.00  0.00    -0.270 OA
BRANCH  15  17
ATOM     17  C   UNL     1       9.096  -3.072  24.684  0.00  0.00    +0.037 A 
ATOM     18  C   UNL     1       8.621  -2.663  25.937  0.00  0.00    +0.014 A 
ATOM     19  C   UNL     1       7.883  -3.547  26.736  0.00  0.00    +0.016 A 
ATOM     20  C   UNL     1       7.628  -4.849  26.290  0.00  0.00    +0.065 A 
ATOM     21  C   UNL     1       8.165  -5.281  25.072  0.00  0.00    +0.016 A 
ATOM     22  C   UNL     1       8.897  -4.396  24.271  0.00  0.00    +0.014 A 
BRANCH  20  23
ATOM     23  C   UNL     1       6.775  -5.768  27.104  0.00  0.00    +0.308 C 
ATOM     24  N   UNL     1       7.016  -6.027  28.350  0.00  0.00    -0.099 NA
ATOM     25  H   UNL     1       7.872  -5.571  28.672  0.00  0.00    +0.363 HD
ATOM     26  N   UNL     1       5.700  -6.391  26.548  0.00  0.00    -0.247 N 
ATOM     27  H   UNL     1       5.122  -6.819  27.266  0.00  0.00    +0.288 HD
ATOM     28  H   UNL     1       5.160  -5.850  25.884  0.00  0.00    +0.288 HD
ENDBRANCH  20  23
ENDBRANCH  15  17
ENDBRANCH  12  13
ENDBRANCH  11  12
ENDBRANCH  10  11
ENDBRANCH   7  10
ENDBRANCH   2   6
BRANCH   1  29
ATOM     29  S   UNL     1       7.687   3.712  25.826  0.00  0.00    +0.063 S 
ATOM     30  O   UNL     1       8.827   3.053  25.233  0.00  0.00    -0.153 OA
ATOM     31  O   UNL     1       7.880   4.947  26.564  0.00  0.00    -0.153 OA
BRANCH  29  35
ATOM     32  C   UNL     1       5.504   0.608  27.429  0.00  0.00    +0.028 A 
ATOM     33  C   UNL     1       6.325   1.347  26.532  0.00  0.00    +0.075 A 
ATOM     34 CL   UNL     1       6.673   0.688  24.970  0.00  0.00    -0.081 Cl
ATOM     35  C   UNL     1       6.865   2.576  26.933  0.00  0.00    +0.124 A 
ATOM     36  C   UNL     1       6.743   2.981  28.273  0.00  0.00    +0.031 A 
ATOM     37  C   UNL     1       6.062   2.191  29.196  0.00  0.00    +0.022 A 
ATOM     38  C   UNL     1       5.427   1.024  28.774  0.00  0.00    +0.049 A 
ATOM     39 CL   UNL     1       4.510   0.166  29.966  0.00  0.00    -0.083 Cl
BRANCH  32  40
ATOM     40  C   UNL     1       4.579  -0.492  26.929  0.00  0.00    +0.267 C 
BRANCH  40  41
ATOM     41  O   UNL     1       5.191  -1.775  26.821  0.00  0.00    -0.485 OA
BRANCH  41  51
ATOM     42  C   UNL     1       6.506  -3.013  22.227  0.00  0.00    +0.065 C 
ATOM     43  C   UNL     1       5.390  -3.470  23.116  0.00  0.00    +0.039 A 
ATOM     44  C   UNL     1       4.505  -4.439  22.677  0.00  0.00    +0.027 A 
ATOM     45  C   UNL     1       3.503  -4.895  23.539  0.00  0.00    -0.039 A 
ATOM     46  C   UNL     1       2.583  -5.958  22.995  0.00  0.00    +0.044 C 
ATOM     47  C   UNL     1       3.437  -4.363  24.852  0.00  0.00    +0.007 A 
ATOM     48  C   UNL     1       2.494  -4.798  25.810  0.00  0.00    +0.010 A 
ATOM     49  C   UNL     1       2.474  -4.276  27.097  0.00  0.00    +0.004 A 
ATOM     50  C   UNL     1       3.376  -3.283  27.447  0.00  0.00    +0.048 A 
ATOM     51  C   UNL     1       4.296  -2.794  26.506  0.00  0.00    +0.147 A 
ATOM     52  C   UNL     1       4.371  -3.350  25.214  0.00  0.00    +0.113 A 
ATOM     53  N   UNL     1       5.315  -2.923  24.348  0.00  0.00    -0.248 NA
ENDBRANCH  41  51
ENDBRANCH  40  41
ENDBRANCH  32  40
ENDBRANCH  29  35
ENDBRANCH   1  29
TORSDOF 12
ENDMDL
MODEL 9
REMARK VINA RESULT:      -6.6      1.714      2.735
REMARK  Name = 
REMARK  14 active torsions:
REMARK  status: ('A' for Active; 'I' for Inactive)
REMARK    1  A    between atoms: C_1  and  C_2
REMARK    2  A    between atoms: C_9  and  O_10
REMARK    3  A    between atoms: O_10  and  C_11
REMARK    4  A    between atoms: C_11  and  C_12
REMARK    5  A    between atoms: C_17  and  S_20
REMARK    6  A    between atoms: S_20  and  N_23
REMARK    7  A    between atoms: C_27  and  C_28
REMARK    8  A    between atoms: N_30  and  C_31
REMARK    9  A    between atoms: C_31  and  C_32
REMARK   10  A    between atoms: C_32  and  C_33
REMARK   11  A    between atoms: C_33  and  N_34
REMARK   12  A    between atoms: C_35  and  C_37
REMARK   13  A    between atoms: C_40  and  C_43
REMARK   14  A    between atoms: C_46  and  C_47
REMARK                            x       y       z     vdW  Elec       q    Type
REMARK                         _______ _______ _______ _____ _____    ______ ____
ROOT
ATOM      1  N   UNL     1       7.386   5.403  24.602  0.00  0.00    -0.165 NA
ATOM      2  C   UNL     1       8.454   6.313  24.006  0.00  0.00    +0.165 C 
ATOM      3  C   UNL     1       7.935   6.721  22.619  0.00  0.00    +0.031 C 
ATOM      4  C   UNL     1       6.825   5.745  22.308  0.00  0.00    +0.019 C 
ATOM      5  C   UNL     1       6.226   5.448  23.670  0.00  0.00    +0.110 C 
ENDROOT
BRANCH   2   6
ATOM      6  C   UNL     1       9.887   5.774  23.977  0.00  0.00    +0.232 C 
ATOM      7  N   UNL     1      10.044   4.605  23.257  0.00  0.00    -0.314 N 
ATOM      8  H   UNL     1       9.324   4.351  22.580  0.00  0.00    +0.149 HD
ATOM      9  O   UNL     1      10.793   6.239  24.662  0.00  0.00    -0.274 OA
BRANCH   7  10
ATOM     10  C   UNL     1      11.221   3.762  23.360  0.00  0.00    +0.106 C 
BRANCH  10  11
ATOM     11  C   UNL     1      10.910   2.273  23.139  0.00  0.00    +0.037 C 
BRANCH  11  12
ATOM     12  C   UNL     1      10.165   1.648  24.318  0.00  0.00    +0.106 C 
BRANCH  12  13
ATOM     13  N   UNL     1       9.542   0.379  23.970  0.00  0.00    -0.311 N 
ATOM     14  H   UNL     1      10.093  -0.459  24.091  0.00  0.00    +0.149 HD
ATOM     15  C   UNL     1       8.326   0.300  23.319  0.00  0.00    +0.244 C 
ATOM     16  O   UNL     1       7.690   1.274  22.936  0.00  0.00    -0.270 OA
BRANCH  15  17
ATOM     17  C   UNL     1       7.816  -1.079  23.059  0.00  0.00    +0.037 A 
ATOM     18  C   UNL     1       6.444  -1.334  23.182  0.00  0.00    +0.014 A 
ATOM     19  C   UNL     1       5.932  -2.602  22.876  0.00  0.00    +0.016 A 
ATOM     20  C   UNL     1       6.791  -3.625  22.457  0.00  0.00    +0.065 A 
ATOM     21  C   UNL     1       8.170  -3.391  22.405  0.00  0.00    +0.016 A 
ATOM     22  C   UNL     1       8.682  -2.123  22.705  0.00  0.00    +0.014 A 
BRANCH  20  23
ATOM     23  C   UNL     1       6.239  -4.954  22.055  0.00  0.00    +0.308 C 
ATOM     24  N   UNL     1       4.998  -5.280  22.235  0.00  0.00    -0.099 NA
ATOM     25  H   UNL     1       4.481  -4.545  22.723  0.00  0.00    +0.363 HD
ATOM     26  N   UNL     1       7.040  -5.895  21.485  0.00  0.00    -0.247 N 
ATOM     27  H   UNL     1       6.485  -6.654  21.100  0.00  0.00    +0.288 HD
ATOM     28  H   UNL     1       7.742  -5.557  20.839  0.00  0.00    +0.288 HD
ENDBRANCH  20  23
ENDBRANCH  15  17
ENDBRANCH  12  13
ENDBRANCH  11  12
ENDBRANCH  10  11
ENDBRANCH   7  10
ENDBRANCH   2   6
BRANCH   1  29
ATOM     29  S   UNL     1       7.058   5.783  26.237  0.00  0.00    +0.063 S 
ATOM     30  O   UNL     1       8.308   5.716  26.958  0.00  0.00    -0.153 OA
ATOM     31  O   UNL     1       6.319   7.033  26.202  0.00  0.00    -0.153 OA
BRANCH  29  35
ATOM     32  C   UNL     1       5.055   2.274  27.039  0.00  0.00    +0.028 A 
ATOM     33  C   UNL     1       6.100   3.168  26.674  0.00  0.00    +0.075 A 
ATOM     34 CL   UNL     1       7.568   2.528  26.016  0.00  0.00    -0.081 Cl
ATOM     35  C   UNL     1       5.943   4.545  26.881  0.00  0.00    +0.124 A 
ATOM     36  C   UNL     1       4.837   5.014  27.609  0.00  0.00    +0.031 A 
ATOM     37  C   UNL     1       3.879   4.128  28.097  0.00  0.00    +0.022 A 
ATOM     38  C   UNL     1       3.974   2.770  27.795  0.00  0.00    +0.049 A 
ATOM     39 CL   UNL     1       2.680   1.761  28.347  0.00  0.00    -0.083 Cl
BRANCH  32  40
ATOM     40  C   UNL     1       4.994   0.862  26.477  0.00  0.00    +0.267 C 
BRANCH  40  41
ATOM     41  O   UNL     1       5.301  -0.163  27.420  0.00  0.00    -0.485 OA
BRANCH  41  51
ATOM     42  C   UNL     1       3.289  -4.434  25.978  0.00  0.00    +0.065 C 
ATOM     43  C   UNL     1       4.711  -3.990  26.139  0.00  0.00    +0.039 A 
ATOM     44  C   UNL     1       5.747  -4.857  25.835  0.00  0.00    +0.027 A 
ATOM     45  C   UNL     1       7.068  -4.409  25.936  0.00  0.00    -0.039 A 
ATOM     46  C   UNL     1       8.142  -5.405  25.580  0.00  0.00    +0.044 C 
ATOM     47  C   UNL     1       7.307  -3.068  26.330  0.00  0.00    +0.007 A 
ATOM     48  C   UNL     1       8.603  -2.510  26.411  0.00  0.00    +0.010 A 
ATOM     49  C   UNL     1       8.801  -1.185  26.773  0.00  0.00    +0.004 A 
ATOM     50  C   UNL     1       7.709  -0.392  27.094  0.00  0.00    +0.048 A 
ATOM     51  C   UNL     1       6.411  -0.927  27.070  0.00  0.00    +0.147 A 
ATOM     52  C   UNL     1       6.184  -2.252  26.650  0.00  0.00    +0.113 A 
ATOM     53  N   UNL     1       4.923  -2.724  26.556  0.00  0.00    -0.248 NA
ENDBRANCH  41  51
ENDBRANCH  40  41
ENDBRANCH  32  40
ENDBRANCH  29  35
ENDBRANCH   1  29
TORSDOF 12
ENDMDL
