MODEL 1
REMARK VINA RESULT:      -3.5      0.000      0.000
REMARK  Name = 
REMARK  6 active torsions:
REMARK  status: ('A' for Active; 'I' for Inactive)
REMARK    1  A    between atoms: N_1  and  C_2
REMARK    2  A    between atoms: C_2  and  C_3
REMARK    3  A    between atoms: C_3  and  C_5
REMARK    4  A    between atoms: C_3  and  C_7
REMARK    5  A    between atoms: C_5  and  S_6
REMARK    6  A    between atoms: C_7  and  O_8
REMARK                            x       y       z     vdW  Elec       q    Type
REMARK                         _______ _______ _______ _____ _____    ______ ____
ROOT
ATOM      1  C   UNL     1       8.807  -3.854  25.791  0.00  0.00    +0.121 C 
ENDROOT
BRANCH   1   2
ATOM      2  C   UNL     1       9.339  -5.048  25.017  0.00  0.00    +0.310 C 
ATOM      3  O   UNL     1       8.757  -5.556  24.066  0.00  0.00    -0.251 OA
BRANCH   2   4
ATOM      4  O   UNL     1      10.516  -5.532  25.470  0.00  0.00    -0.480 OA
ATOM      5  H   UNL     1      11.223  -4.869  25.599  0.00  0.00    +0.295 HD
ENDBRANCH   2   4
ENDBRANCH   1   2
BRANCH   1   6
ATOM      6  C   UNL     1       7.746  -4.339  26.789  0.00  0.00    +0.093 C 
BRANCH   6   7
ATOM      7  N   UNL     1       7.926  -5.717  27.237  0.00  0.00    -0.329 NA
ATOM      8  H   UNL     1       7.104  -6.276  26.974  0.00  0.00    +0.118 HD
ATOM      9  H   UNL     1       8.708  -6.141  26.735  0.00  0.00    +0.118 HD
ENDBRANCH   6   7
ENDBRANCH   1   6
BRANCH   1  10
ATOM     10  C   UNL     1       8.350  -2.803  24.777  0.00  0.00    +0.081 C 
BRANCH  10  11
ATOM     11  S   UNL     1       9.722  -2.099  23.809  0.00  0.00    -0.177 S 
ATOM     12  H   UNL     1       9.379  -2.672  22.642  0.00  0.00    +0.102 HD
ENDBRANCH  10  11
ENDBRANCH   1  10
TORSDOF 6
ENDMDL
MODEL 2
REMARK VINA RESULT:      -3.3      5.376      6.005
REMARK  Name = 
REMARK  6 active torsions:
REMARK  status: ('A' for Active; 'I' for Inactive)
REMARK    1  A    between atoms: N_1  and  C_2
REMARK    2  A    between atoms: C_2  and  C_3
REMARK    3  A    between atoms: C_3  and  C_5
REMARK    4  A    between atoms: C_3  and  C_7
REMARK    5  A    between atoms: C_5  and  S_6
REMARK    6  A    between atoms: C_7  and  O_8
REMARK                            x       y       z     vdW  Elec       q    Type
REMARK                         _______ _______ _______ _____ _____    ______ ____
ROOT
ATOM      1  C   UNL     1       9.695   0.244  23.038  0.00  0.00    +0.121 C 
ENDROOT
BRANCH   1   2
ATOM      2  C   UNL     1      10.008  -0.947  22.148  0.00  0.00    +0.310 C 
ATOM      3  O   UNL     1      10.682  -1.905  22.507  0.00  0.00    -0.251 OA
BRANCH   2   4
ATOM      4  O   UNL     1       9.494  -0.867  20.901  0.00  0.00    -0.480 OA
ATOM      5  H   UNL     1       8.688  -0.322  20.812  0.00  0.00    +0.295 HD
ENDBRANCH   2   4
ENDBRANCH   1   2
BRANCH   1   6
ATOM      6  C   UNL     1      10.145   1.529  22.328  0.00  0.00    +0.093 C 
BRANCH   6   7
ATOM      7  N   UNL     1       9.159   2.080  21.402  0.00  0.00    -0.329 NA
ATOM      8  H   UNL     1       9.269   1.640  20.479  0.00  0.00    +0.118 HD
ATOM      9  H   UNL     1       8.220   1.825  21.709  0.00  0.00    +0.118 HD
ENDBRANCH   6   7
ENDBRANCH   1   6
BRANCH   1  10
ATOM     10  C   UNL     1      10.314  -0.020  24.412  0.00  0.00    +0.081 C 
BRANCH  10  11
ATOM     11  S   UNL     1       9.085  -0.491  25.671  0.00  0.00    -0.177 S 
ATOM     12  H   UNL     1       8.112  -0.818  24.803  0.00  0.00    +0.102 HD
ENDBRANCH  10  11
ENDBRANCH   1  10
TORSDOF 6
ENDMDL
MODEL 3
REMARK VINA RESULT:      -3.3      1.261      1.261
REMARK  Name = 
REMARK  6 active torsions:
REMARK  status: ('A' for Active; 'I' for Inactive)
REMARK    1  A    between atoms: N_1  and  C_2
REMARK    2  A    between atoms: C_2  and  C_3
REMARK    3  A    between atoms: C_3  and  C_5
REMARK    4  A    between atoms: C_3  and  C_7
REMARK    5  A    between atoms: C_5  and  S_6
REMARK    6  A    between atoms: C_7  and  O_8
REMARK                            x       y       z     vdW  Elec       q    Type
REMARK                         _______ _______ _______ _____ _____    ______ ____
ROOT
ATOM      1  C   UNL     1       8.661  -3.865  25.877  0.00  0.00    +0.121 C 
ENDROOT
BRANCH   1   2
ATOM      2  C   UNL     1       9.332  -5.038  25.185  0.00  0.00    +0.310 C 
ATOM      3  O   UNL     1       8.908  -5.555  24.158  0.00  0.00    -0.251 OA
BRANCH   2   4
ATOM      4  O   UNL     1      10.446  -5.493  25.801  0.00  0.00    -0.480 OA
ATOM      5  H   UNL     1      11.197  -4.868  25.827  0.00  0.00    +0.295 HD
ENDBRANCH   2   4
ENDBRANCH   1   2
BRANCH   1   6
ATOM      6  C   UNL     1       7.584  -4.399  26.832  0.00  0.00    +0.093 C 
BRANCH   6   7
ATOM      7  N   UNL     1       7.827  -5.756  27.316  0.00  0.00    -0.329 NA
ATOM      8  H   UNL     1       7.032  -6.358  27.068  0.00  0.00    +0.118 HD
ATOM      9  H   UNL     1       8.627  -6.156  26.824  0.00  0.00    +0.118 HD
ENDBRANCH   6   7
ENDBRANCH   1   6
BRANCH   1  10
ATOM     10  C   UNL     1       8.183  -2.892  24.798  0.00  0.00    +0.081 C 
BRANCH  10  11
ATOM     11  S   UNL     1       6.374  -2.885  24.591  0.00  0.00    -0.177 S 
ATOM     12  H   UNL     1       6.294  -4.095  24.010  0.00  0.00    +0.102 HD
ENDBRANCH  10  11
ENDBRANCH   1  10
TORSDOF 6
ENDMDL
MODEL 4
REMARK VINA RESULT:      -3.3      1.896      1.962
REMARK  Name = 
REMARK  6 active torsions:
REMARK  status: ('A' for Active; 'I' for Inactive)
REMARK    1  A    between atoms: N_1  and  C_2
REMARK    2  A    between atoms: C_2  and  C_3
REMARK    3  A    between atoms: C_3  and  C_5
REMARK    4  A    between atoms: C_3  and  C_7
REMARK    5  A    between atoms: C_5  and  S_6
REMARK    6  A    between atoms: C_7  and  O_8
REMARK                            x       y       z     vdW  Elec       q    Type
REMARK                         _______ _______ _______ _____ _____    ______ ____
ROOT
ATOM      1  C   UNL     1       8.066  -4.121  25.194  0.00  0.00    +0.121 C 
ENDROOT
BRANCH   1   2
ATOM      2  C   UNL     1       9.509  -4.198  24.727  0.00  0.00    +0.310 C 
ATOM      3  O   UNL     1      10.074  -3.301  24.113  0.00  0.00    -0.251 OA
BRANCH   2   4
ATOM      4  O   UNL     1      10.136  -5.356  25.029  0.00  0.00    -0.480 OA
ATOM      5  H   UNL     1      10.055  -6.065  24.360  0.00  0.00    +0.295 HD
ENDBRANCH   2   4
ENDBRANCH   1   2
BRANCH   1   6
ATOM      6  C   UNL     1       8.025  -4.286  26.719  0.00  0.00    +0.093 C 
BRANCH   6   7
ATOM      7  N   UNL     1       8.033  -5.674  27.174  0.00  0.00    -0.329 NA
ATOM      8  H   UNL     1       7.100  -6.085  27.045  0.00  0.00    +0.118 HD
ATOM      9  H   UNL     1       8.652  -6.226  26.578  0.00  0.00    +0.118 HD
ENDBRANCH   6   7
ENDBRANCH   1   6
BRANCH   1  10
ATOM     10  C   UNL     1       7.255  -5.133  24.383  0.00  0.00    +0.081 C 
BRANCH  10  11
ATOM     11  S   UNL     1       7.128  -4.699  22.618  0.00  0.00    -0.177 S 
ATOM     12  H   UNL     1       6.875  -3.393  22.812  0.00  0.00    +0.102 HD
ENDBRANCH  10  11
ENDBRANCH   1  10
TORSDOF 6
ENDMDL
MODEL 5
REMARK VINA RESULT:      -3.3      5.616      6.259
REMARK  Name = 
REMARK  6 active torsions:
REMARK  status: ('A' for Active; 'I' for Inactive)
REMARK    1  A    between atoms: N_1  and  C_2
REMARK    2  A    between atoms: C_2  and  C_3
REMARK    3  A    between atoms: C_3  and  C_5
REMARK    4  A    between atoms: C_3  and  C_7
REMARK    5  A    between atoms: C_5  and  S_6
REMARK    6  A    between atoms: C_7  and  O_8
REMARK                            x       y       z     vdW  Elec       q    Type
REMARK                         _______ _______ _______ _____ _____    ______ ____
ROOT
ATOM      1  C   UNL     1      10.392   0.423  23.103  0.00  0.00    +0.121 C 
ENDROOT
BRANCH   1   2
ATOM      2  C   UNL     1       9.622   1.239  22.081  0.00  0.00    +0.310 C 
ATOM      3  O   UNL     1       8.486   0.967  21.709  0.00  0.00    -0.251 OA
BRANCH   2   4
ATOM      4  O   UNL     1      10.295   2.301  21.586  0.00  0.00    -0.480 OA
ATOM      5  H   UNL     1       9.968   2.647  20.732  0.00  0.00    +0.295 HD
ENDBRANCH   2   4
ENDBRANCH   1   2
BRANCH   1   6
ATOM      6  C   UNL     1      10.089  -1.066  22.885  0.00  0.00    +0.093 C 
BRANCH   6   7
ATOM      7  N   UNL     1      10.102  -1.483  21.485  0.00  0.00    -0.329 NA
ATOM      8  H   UNL     1       9.677  -2.415  21.399  0.00  0.00    +0.118 HD
ATOM      9  H   UNL     1       9.501  -0.865  20.938  0.00  0.00    +0.118 HD
ENDBRANCH   6   7
ENDBRANCH   1   6
BRANCH   1  10
ATOM     10  C   UNL     1      10.068   0.981  24.491  0.00  0.00    +0.081 C 
BRANCH  10  11
ATOM     11  S   UNL     1       8.745   0.061  25.340  0.00  0.00    -0.177 S 
ATOM     12  H   UNL     1       8.215  -0.481  24.230  0.00  0.00    +0.102 HD
ENDBRANCH  10  11
ENDBRANCH   1  10
TORSDOF 6
ENDMDL
MODEL 6
REMARK VINA RESULT:      -3.2      2.779      3.149
REMARK  Name = 
REMARK  6 active torsions:
REMARK  status: ('A' for Active; 'I' for Inactive)
REMARK    1  A    between atoms: N_1  and  C_2
REMARK    2  A    between atoms: C_2  and  C_3
REMARK    3  A    between atoms: C_3  and  C_5
REMARK    4  A    between atoms: C_3  and  C_7
REMARK    5  A    between atoms: C_5  and  S_6
REMARK    6  A    between atoms: C_7  and  O_8
REMARK                            x       y       z     vdW  Elec       q    Type
REMARK                         _______ _______ _______ _____ _____    ______ ____
ROOT
ATOM      1  C   UNL     1       8.320  -4.883  24.606  0.00  0.00    +0.121 C 
ENDROOT
BRANCH   1   2
ATOM      2  C   UNL     1       9.309  -4.948  25.756  0.00  0.00    +0.310 C 
ATOM      3  O   UNL     1       9.096  -4.468  26.864  0.00  0.00    -0.251 OA
BRANCH   2   4
ATOM      4  O   UNL     1      10.471  -5.571  25.464  0.00  0.00    -0.480 OA
ATOM      5  H   UNL     1      10.632  -5.739  24.514  0.00  0.00    +0.295 HD
ENDBRANCH   2   4
ENDBRANCH   1   2
BRANCH   1   6
ATOM      6  C   UNL     1       8.540  -3.576  23.831  0.00  0.00    +0.093 C 
BRANCH   6   7
ATOM      7  N   UNL     1       9.881  -3.014  23.968  0.00  0.00    -0.329 NA
ATOM      8  H   UNL     1      10.564  -3.774  24.075  0.00  0.00    +0.118 HD
ATOM      9  H   UNL     1      10.143  -2.540  23.103  0.00  0.00    +0.118 HD
ENDBRANCH   6   7
ENDBRANCH   1   6
BRANCH   1  10
ATOM     10  C   UNL     1       6.917  -5.100  25.179  0.00  0.00    +0.081 C 
BRANCH  10  11
ATOM     11  S   UNL     1       5.669  -5.451  23.899  0.00  0.00    -0.177 S 
ATOM     12  H   UNL     1       4.609  -5.430  24.726  0.00  0.00    +0.102 HD
ENDBRANCH  10  11
ENDBRANCH   1  10
TORSDOF 6
ENDMDL
MODEL 7
REMARK VINA RESULT:      -3.1      2.453      2.797
REMARK  Name = 
REMARK  6 active torsions:
REMARK  status: ('A' for Active; 'I' for Inactive)
REMARK    1  A    between atoms: N_1  and  C_2
REMARK    2  A    between atoms: C_2  and  C_3
REMARK    3  A    between atoms: C_3  and  C_5
REMARK    4  A    between atoms: C_3  and  C_7
REMARK    5  A    between atoms: C_5  and  S_6
REMARK    6  A    between atoms: C_7  and  O_8
REMARK                            x       y       z     vdW  Elec       q    Type
REMARK                         _______ _______ _______ _____ _____    ______ ____
ROOT
ATOM      1  C   UNL     1       7.332  -5.036  25.359  0.00  0.00    +0.121 C 
ENDROOT
BRANCH   1   2
ATOM      2  C   UNL     1       8.028  -4.886  26.700  0.00  0.00    +0.310 C 
ATOM      3  O   UNL     1       8.686  -3.903  27.019  0.00  0.00    -0.251 OA
BRANCH   2   4
ATOM      4  O   UNL     1       7.883  -5.943  27.530  0.00  0.00    -0.480 OA
ATOM      5  H   UNL     1       6.975  -6.298  27.605  0.00  0.00    +0.295 HD
ENDBRANCH   2   4
ENDBRANCH   1   2
BRANCH   1   6
ATOM      6  C   UNL     1       8.392  -5.214  24.263  0.00  0.00    +0.093 C 
BRANCH   6   7
ATOM      7  N   UNL     1       9.696  -5.652  24.753  0.00  0.00    -0.329 NA
ATOM      8  H   UNL     1      10.243  -4.836  25.055  0.00  0.00    +0.118 HD
ATOM      9  H   UNL     1       9.573  -6.217  25.594  0.00  0.00    +0.118 HD
ENDBRANCH   6   7
ENDBRANCH   1   6
BRANCH   1  10
ATOM     10  C   UNL     1       6.379  -3.850  25.190  0.00  0.00    +0.081 C 
BRANCH  10  11
ATOM     11  S   UNL     1       6.743  -2.845  23.716  0.00  0.00    -0.177 S 
ATOM     12  H   UNL     1       7.769  -2.167  24.257  0.00  0.00    +0.102 HD
ENDBRANCH  10  11
ENDBRANCH   1  10
TORSDOF 6
ENDMDL
MODEL 8
REMARK VINA RESULT:      -3.1      7.237      7.659
REMARK  Name = 
REMARK  6 active torsions:
REMARK  status: ('A' for Active; 'I' for Inactive)
REMARK    1  A    between atoms: N_1  and  C_2
REMARK    2  A    between atoms: C_2  and  C_3
REMARK    3  A    between atoms: C_3  and  C_5
REMARK    4  A    between atoms: C_3  and  C_7
REMARK    5  A    between atoms: C_5  and  S_6
REMARK    6  A    between atoms: C_7  and  O_8
REMARK                            x       y       z     vdW  Elec       q    Type
REMARK                         _______ _______ _______ _____ _____    ______ ____
ROOT
ATOM      1  C   UNL     1       9.179   2.310  23.732  0.00  0.00    +0.121 C 
ENDROOT
BRANCH   1   2
ATOM      2  C   UNL     1       9.054   2.125  22.230  0.00  0.00    +0.310 C 
ATOM      3  O   UNL     1       7.995   1.893  21.659  0.00  0.00    -0.251 OA
BRANCH   2   4
ATOM      4  O   UNL     1      10.220   2.221  21.553  0.00  0.00    -0.480 OA
ATOM      5  H   UNL     1      10.293   2.983  20.946  0.00  0.00    +0.295 HD
ENDBRANCH   2   4
ENDBRANCH   1   2
BRANCH   1   6
ATOM      6  C   UNL     1       9.168   3.812  24.053  0.00  0.00    +0.093 C 
BRANCH   6   7
ATOM      7  N   UNL     1       8.767   4.663  22.935  0.00  0.00    -0.329 NA
ATOM      8  H   UNL     1       7.935   4.265  22.480  0.00  0.00    +0.118 HD
ATOM      9  H   UNL     1       8.468   5.572  23.288  0.00  0.00    +0.118 HD
ENDBRANCH   6   7
ENDBRANCH   1   6
BRANCH   1  10
ATOM     10  C   UNL     1      10.408   1.529  24.202  0.00  0.00    +0.081 C 
BRANCH  10  11
ATOM     11  S   UNL     1      10.077  -0.245  24.444  0.00  0.00    -0.177 S 
ATOM     12  H   UNL     1       8.977  -0.291  23.673  0.00  0.00    +0.102 HD
ENDBRANCH  10  11
ENDBRANCH   1  10
TORSDOF 6
ENDMDL
MODEL 9
REMARK VINA RESULT:      -3.1      3.825      4.270
REMARK  Name = 
REMARK  6 active torsions:
REMARK  status: ('A' for Active; 'I' for Inactive)
REMARK    1  A    between atoms: N_1  and  C_2
REMARK    2  A    between atoms: C_2  and  C_3
REMARK    3  A    between atoms: C_3  and  C_5
REMARK    4  A    between atoms: C_3  and  C_7
REMARK    5  A    between atoms: C_5  and  S_6
REMARK    6  A    between atoms: C_7  and  O_8
REMARK                            x       y       z     vdW  Elec       q    Type
REMARK                         _______ _______ _______ _____ _____    ______ ____
ROOT
ATOM      1  C   UNL     1       8.864  -0.983  23.576  0.00  0.00    +0.121 C 
ENDROOT
BRANCH   1   2
ATOM      2  C   UNL     1       9.909  -1.985  23.119  0.00  0.00    +0.310 C 
ATOM      3  O   UNL     1      10.263  -2.951  23.786  0.00  0.00    -0.251 OA
BRANCH   2   4
ATOM      4  O   UNL     1      10.445  -1.725  21.906  0.00  0.00    -0.480 OA
ATOM      5  H   UNL     1      10.087  -0.940  21.447  0.00  0.00    +0.295 HD
ENDBRANCH   2   4
ENDBRANCH   1   2
BRANCH   1   6
ATOM      6  C   UNL     1       7.517  -1.336  22.930  0.00  0.00    +0.093 C 
BRANCH   6   7
ATOM      7  N   UNL     1       7.505  -2.616  22.227  0.00  0.00    -0.329 NA
ATOM      8  H   UNL     1       8.025  -2.530  21.344  0.00  0.00    +0.118 HD
ATOM      9  H   UNL     1       8.017  -3.311  22.772  0.00  0.00    +0.118 HD
ENDBRANCH   6   7
ENDBRANCH   1   6
BRANCH   1  10
ATOM     10  C   UNL     1       9.402   0.421  23.291  0.00  0.00    +0.081 C 
BRANCH  10  11
ATOM     11  S   UNL     1      10.755   0.909  24.408  0.00  0.00    -0.177 S 
ATOM     12  H   UNL     1      10.179   2.043  24.841  0.00  0.00    +0.102 HD
ENDBRANCH  10  11
ENDBRANCH   1  10
TORSDOF 6
ENDMDL
