MODEL 1
REMARK VINA RESULT:      -6.5      0.000      0.000
REMARK  Name = 
REMARK  21 active torsions:
REMARK  status: ('A' for Active; 'I' for Inactive)
REMARK    1  A    between atoms: C_1  and  C_2
REMARK    2  A    between atoms: C_2  and  C_3
REMARK    3  A    between atoms: C_3  and  C_4
REMARK    4  A    between atoms: C_4  and  C_5
REMARK    5  A    between atoms: C_5  and  C_6
REMARK    6  A    between atoms: C_6  and  C_7
REMARK    7  A    between atoms: C_7  and  C_8
REMARK    8  A    between atoms: C_8  and  O_10
REMARK    9  A    between atoms: C_8  and  C_11
REMARK   10  A    between atoms: C_11  and  C_12
REMARK   11  A    between atoms: C_15  and  C_16
REMARK   12  A    between atoms: C_15  and  O_18
REMARK   13  A    between atoms: C_16  and  O_17
REMARK   14  A    between atoms: O_18  and  C_19
REMARK   15  A    between atoms: C_22  and  C_24
REMARK   16  A    between atoms: C_24  and  O_25
REMARK   17  A    between atoms: C_26  and  O_28
REMARK   18  A    between atoms: C_29  and  O_31
REMARK   19  A    between atoms: C_32  and  O_34
REMARK   20  A    between atoms: C_35  and  O_37
REMARK   21  A    between atoms: C_38  and  O_40
REMARK                            x       y       z     vdW  Elec       q    Type
REMARK                         _______ _______ _______ _____ _____    ______ ____
ROOT
ATOM      1  C   UNL     1       9.968   0.653  24.787  0.00  0.00    +0.155 C 
ATOM      2  C   UNL     1       8.514   1.116  24.788  0.00  0.00    +0.177 C 
ATOM      3  C   UNL     1       7.724   0.009  24.088  0.00  0.00    +0.207 C 
ATOM      4  C   UNL     1       8.781  -1.054  23.676  0.00  0.00    +0.225 C 
ATOM      5  O   UNL     1       9.939  -0.751  24.478  0.00  0.00    -0.338 OA
ENDROOT
BRANCH   3   6
ATOM      6  O   UNL     1       6.966   0.571  23.011  0.00  0.00    -0.384 OA
ATOM      7  H   UNL     1       6.046   0.270  23.130  0.00  0.00    +0.210 HD
ENDBRANCH   3   6
BRANCH   2   8
ATOM      8  O   UNL     1       8.068   1.248  26.150  0.00  0.00    -0.386 OA
ATOM      9  H   UNL     1       7.556   0.453  26.388  0.00  0.00    +0.210 HD
ENDBRANCH   2   8
BRANCH   4  10
ATOM     10  C   UNL     1       9.150  -0.973  22.168  0.00  0.00    +0.223 C 
BRANCH  10  11
ATOM     11  O   UNL     1      10.354  -1.663  21.841  0.00  0.00    -0.390 OA
ATOM     12  H   UNL     1      10.847  -1.735  22.682  0.00  0.00    +0.210 HD
ENDBRANCH  10  11
ENDBRANCH   4  10
BRANCH   1  13
ATOM     13  C   UNL     1      10.907   1.339  23.792  0.00  0.00    +0.065 C 
BRANCH  13  14
ATOM     14  C   UNL     1      10.395   2.616  23.134  0.00  0.00    +0.117 C 
BRANCH  14  15
ATOM     15  O   UNL     1      10.277   2.319  21.739  0.00  0.00    -0.392 OA
ATOM     16  H   UNL     1      10.904   2.887  21.260  0.00  0.00    +0.210 HD
ENDBRANCH  14  15
BRANCH  14  17
ATOM     17  C   UNL     1      11.365   3.771  23.337  0.00  0.00    +0.031 C 
BRANCH  17  18
ATOM     18  C   UNL     1      10.647   5.047  23.758  0.00  0.00    +0.002 C 
BRANCH  18  19
ATOM     19  C   UNL     1       9.146   4.810  23.753  0.00  0.00    +0.000 C 
BRANCH  19  20
ATOM     20  C   UNL     1       8.411   6.035  23.234  0.00  0.00    -0.000 C 
BRANCH  20  21
ATOM     21  C   UNL     1       7.367   5.609  22.204  0.00  0.00    -0.000 C 
BRANCH  21  23
ATOM     22  C   UNL     1       5.675   3.807  22.548  0.00  0.00    +0.004 C 
ATOM     23  C   UNL     1       7.137   4.107  22.261  0.00  0.00    -0.003 C 
ENDBRANCH  21  23
ENDBRANCH  20  21
ENDBRANCH  19  20
ENDBRANCH  18  19
ENDBRANCH  17  18
ENDBRANCH  14  17
ENDBRANCH  13  14
ENDBRANCH   1  13
BRANCH   4  24
ATOM     24  O   UNL     1       8.245  -2.348  24.050  0.00  0.00    -0.313 OA
BRANCH  24  25
ATOM     25  C   UNL     1       9.034  -3.085  24.994  0.00  0.00    +0.285 C 
ATOM     26  C   UNL     1       9.090  -4.583  24.589  0.00  0.00    +0.201 C 
ATOM     27  C   UNL     1       7.765  -5.298  24.903  0.00  0.00    +0.179 C 
ATOM     28  C   UNL     1       7.323  -5.020  26.348  0.00  0.00    +0.177 C 
ATOM     29  C   UNL     1       7.332  -3.516  26.682  0.00  0.00    +0.178 C 
ATOM     30  O   UNL     1       8.581  -2.905  26.339  0.00  0.00    -0.340 OA
BRANCH  28  31
ATOM     31  O   UNL     1       8.247  -5.695  27.227  0.00  0.00    -0.386 OA
ATOM     32  H   UNL     1       7.925  -6.607  27.344  0.00  0.00    +0.210 HD
ENDBRANCH  28  31
BRANCH  27  33
ATOM     33  O   UNL     1       6.733  -4.954  23.970  0.00  0.00    -0.386 OA
ATOM     34  H   UNL     1       5.925  -4.747  24.466  0.00  0.00    +0.210 HD
ENDBRANCH  27  33
BRANCH  26  35
ATOM     35  O   UNL     1      10.189  -5.245  25.241  0.00  0.00    -0.384 OA
ATOM     36  H   UNL     1      10.812  -4.551  25.547  0.00  0.00    +0.210 HD
ENDBRANCH  26  35
BRANCH  29  37
ATOM     37  C   UNL     1       6.109  -2.739  26.167  0.00  0.00    +0.190 C 
BRANCH  37  38
ATOM     38  O   UNL     1       4.976  -3.584  26.002  0.00  0.00    -0.392 OA
ATOM     39  H   UNL     1       4.418  -3.493  26.794  0.00  0.00    +0.210 HD
ENDBRANCH  37  38
ENDBRANCH  29  37
ENDBRANCH  24  25
ENDBRANCH   4  24
TORSDOF 20
ENDMDL
MODEL 2
REMARK VINA RESULT:      -6.5      1.929      3.858
REMARK  Name = 
REMARK  21 active torsions:
REMARK  status: ('A' for Active; 'I' for Inactive)
REMARK    1  A    between atoms: C_1  and  C_2
REMARK    2  A    between atoms: C_2  and  C_3
REMARK    3  A    between atoms: C_3  and  C_4
REMARK    4  A    between atoms: C_4  and  C_5
REMARK    5  A    between atoms: C_5  and  C_6
REMARK    6  A    between atoms: C_6  and  C_7
REMARK    7  A    between atoms: C_7  and  C_8
REMARK    8  A    between atoms: C_8  and  O_10
REMARK    9  A    between atoms: C_8  and  C_11
REMARK   10  A    between atoms: C_11  and  C_12
REMARK   11  A    between atoms: C_15  and  C_16
REMARK   12  A    between atoms: C_15  and  O_18
REMARK   13  A    between atoms: C_16  and  O_17
REMARK   14  A    between atoms: O_18  and  C_19
REMARK   15  A    between atoms: C_22  and  C_24
REMARK   16  A    between atoms: C_24  and  O_25
REMARK   17  A    between atoms: C_26  and  O_28
REMARK   18  A    between atoms: C_29  and  O_31
REMARK   19  A    between atoms: C_32  and  O_34
REMARK   20  A    between atoms: C_35  and  O_37
REMARK   21  A    between atoms: C_38  and  O_40
REMARK                            x       y       z     vdW  Elec       q    Type
REMARK                         _______ _______ _______ _____ _____    ______ ____
ROOT
ATOM      1  C   UNL     1       9.248   0.156  23.132  0.00  0.00    +0.155 C 
ATOM      2  C   UNL     1       9.957  -1.082  22.589  0.00  0.00    +0.177 C 
ATOM      3  C   UNL     1       9.313  -2.275  23.297  0.00  0.00    +0.207 C 
ATOM      4  C   UNL     1       8.260  -1.661  24.263  0.00  0.00    +0.225 C 
ATOM      5  O   UNL     1       8.055  -0.320  23.779  0.00  0.00    -0.338 OA
ENDROOT
BRANCH   3   6
ATOM      6  O   UNL     1      10.331  -3.066  23.921  0.00  0.00    -0.384 OA
ATOM      7  H   UNL     1      11.072  -3.115  23.290  0.00  0.00    +0.210 HD
ENDBRANCH   3   6
BRANCH   2   8
ATOM      8  O   UNL     1       9.720  -1.170  21.171  0.00  0.00    -0.386 OA
ATOM      9  H   UNL     1       8.873  -1.630  21.026  0.00  0.00    +0.210 HD
ENDBRANCH   2   8
BRANCH   4  10
ATOM     10  C   UNL     1       8.756  -1.620  25.736  0.00  0.00    +0.223 C 
BRANCH  10  11
ATOM     11  O   UNL     1       8.714  -2.889  26.384  0.00  0.00    -0.390 OA
ATOM     12  H   UNL     1       8.810  -2.695  27.338  0.00  0.00    +0.210 HD
ENDBRANCH  10  11
ENDBRANCH   4  10
BRANCH   1  13
ATOM     13  C   UNL     1      10.026   1.008  24.137  0.00  0.00    +0.065 C 
BRANCH  13  14
ATOM     14  C   UNL     1       9.408   2.348  24.523  0.00  0.00    +0.117 C 
BRANCH  14  15
ATOM     15  O   UNL     1       8.387   2.049  25.480  0.00  0.00    -0.392 OA
ATOM     16  H   UNL     1       8.239   1.088  25.466  0.00  0.00    +0.210 HD
ENDBRANCH  14  15
BRANCH  14  17
ATOM     17  C   UNL     1       8.797   3.045  23.315  0.00  0.00    +0.031 C 
BRANCH  17  18
ATOM     18  C   UNL     1       8.381   4.474  23.636  0.00  0.00    +0.002 C 
BRANCH  18  19
ATOM     19  C   UNL     1       9.453   5.137  24.484  0.00  0.00    +0.000 C 
BRANCH  19  20
ATOM     20  C   UNL     1      10.286   6.093  23.645  0.00  0.00    -0.000 C 
BRANCH  20  21
ATOM     21  C   UNL     1      11.758   5.966  24.032  0.00  0.00    -0.000 C 
BRANCH  21  23
ATOM     22  C   UNL     1      13.243   5.558  22.069  0.00  0.00    +0.004 C 
ATOM     23  C   UNL     1      12.446   4.906  23.188  0.00  0.00    -0.003 C 
ENDBRANCH  21  23
ENDBRANCH  20  21
ENDBRANCH  19  20
ENDBRANCH  18  19
ENDBRANCH  17  18
ENDBRANCH  14  17
ENDBRANCH  13  14
ENDBRANCH   1  13
BRANCH   4  24
ATOM     24  O   UNL     1       7.044  -2.435  24.106  0.00  0.00    -0.313 OA
BRANCH  24  25
ATOM     25  C   UNL     1       7.016  -3.299  22.961  0.00  0.00    +0.285 C 
ATOM     26  C   UNL     1       5.612  -3.262  22.299  0.00  0.00    +0.201 C 
ATOM     27  C   UNL     1       4.584  -4.059  23.121  0.00  0.00    +0.179 C 
ATOM     28  C   UNL     1       5.119  -5.459  23.457  0.00  0.00    +0.177 C 
ATOM     29  C   UNL     1       6.531  -5.412  24.073  0.00  0.00    +0.178 C 
ATOM     30  O   UNL     1       7.430  -4.632  23.277  0.00  0.00    -0.340 OA
BRANCH  28  31
ATOM     31  O   UNL     1       5.176  -6.214  22.228  0.00  0.00    -0.386 OA
ATOM     32  H   UNL     1       6.108  -6.457  22.078  0.00  0.00    +0.210 HD
ENDBRANCH  28  31
BRANCH  27  33
ATOM     33  O   UNL     1       4.182  -3.359  24.304  0.00  0.00    -0.386 OA
ATOM     34  H   UNL     1       3.634  -3.953  24.843  0.00  0.00    +0.210 HD
ENDBRANCH  27  33
BRANCH  26  35
ATOM     35  O   UNL     1       5.675  -3.758  20.949  0.00  0.00    -0.384 OA
ATOM     36  H   UNL     1       4.971  -3.306  20.436  0.00  0.00    +0.210 HD
ENDBRANCH  26  35
BRANCH  29  37
ATOM     37  C   UNL     1       6.564  -5.049  25.567  0.00  0.00    +0.190 C 
BRANCH  37  38
ATOM     38  O   UNL     1       7.617  -5.716  26.252  0.00  0.00    -0.392 OA
ATOM     39  H   UNL     1       8.407  -5.149  26.210  0.00  0.00    +0.210 HD
ENDBRANCH  37  38
ENDBRANCH  29  37
ENDBRANCH  24  25
ENDBRANCH   4  24
TORSDOF 20
ENDMDL
MODEL 3
REMARK VINA RESULT:      -6.3      1.389      2.484
REMARK  Name = 
REMARK  21 active torsions:
REMARK  status: ('A' for Active; 'I' for Inactive)
REMARK    1  A    between atoms: C_1  and  C_2
REMARK    2  A    between atoms: C_2  and  C_3
REMARK    3  A    between atoms: C_3  and  C_4
REMARK    4  A    between atoms: C_4  and  C_5
REMARK    5  A    between atoms: C_5  and  C_6
REMARK    6  A    between atoms: C_6  and  C_7
REMARK    7  A    between atoms: C_7  and  C_8
REMARK    8  A    between atoms: C_8  and  O_10
REMARK    9  A    between atoms: C_8  and  C_11
REMARK   10  A    between atoms: C_11  and  C_12
REMARK   11  A    between atoms: C_15  and  C_16
REMARK   12  A    between atoms: C_15  and  O_18
REMARK   13  A    between atoms: C_16  and  O_17
REMARK   14  A    between atoms: O_18  and  C_19
REMARK   15  A    between atoms: C_22  and  C_24
REMARK   16  A    between atoms: C_24  and  O_25
REMARK   17  A    between atoms: C_26  and  O_28
REMARK   18  A    between atoms: C_29  and  O_31
REMARK   19  A    between atoms: C_32  and  O_34
REMARK   20  A    between atoms: C_35  and  O_37
REMARK   21  A    between atoms: C_38  and  O_40
REMARK                            x       y       z     vdW  Elec       q    Type
REMARK                         _______ _______ _______ _____ _____    ______ ____
ROOT
ATOM      1  C   UNL     1       9.522   0.703  24.660  0.00  0.00    +0.155 C 
ATOM      2  C   UNL     1       8.098   1.210  24.451  0.00  0.00    +0.177 C 
ATOM      3  C   UNL     1       7.376   0.112  23.668  0.00  0.00    +0.207 C 
ATOM      4  C   UNL     1       8.444  -0.992  23.426  0.00  0.00    +0.225 C 
ATOM      5  O   UNL     1       9.489  -0.706  24.376  0.00  0.00    -0.338 OA
ENDROOT
BRANCH   3   6
ATOM      6  O   UNL     1       6.794   0.673  22.486  0.00  0.00    -0.384 OA
ATOM      7  H   UNL     1       7.517   0.779  21.842  0.00  0.00    +0.210 HD
ENDBRANCH   3   6
BRANCH   2   8
ATOM      8  O   UNL     1       7.473   1.386  25.736  0.00  0.00    -0.386 OA
ATOM      9  H   UNL     1       7.631   2.300  26.036  0.00  0.00    +0.210 HD
ENDBRANCH   2   8
BRANCH   4  10
ATOM     10  C   UNL     1       9.021  -0.955  21.982  0.00  0.00    +0.223 C 
BRANCH  10  11
ATOM     11  O   UNL     1      10.283  -1.607  21.860  0.00  0.00    -0.390 OA
ATOM     12  H   UNL     1      10.702  -1.210  21.070  0.00  0.00    +0.210 HD
ENDBRANCH  10  11
ENDBRANCH   4  10
BRANCH   1  13
ATOM     13  C   UNL     1      10.613   1.337  23.794  0.00  0.00    +0.065 C 
BRANCH  13  14
ATOM     14  C   UNL     1      10.256   2.642  23.090  0.00  0.00    +0.117 C 
BRANCH  14  15
ATOM     15  O   UNL     1      10.208   2.334  21.693  0.00  0.00    -0.392 OA
ATOM     16  H   UNL     1       9.808   3.093  21.235  0.00  0.00    +0.210 HD
ENDBRANCH  14  15
BRANCH  14  17
ATOM     17  C   UNL     1      11.304   3.716  23.347  0.00  0.00    +0.031 C 
BRANCH  17  18
ATOM     18  C   UNL     1      10.670   5.047  23.729  0.00  0.00    +0.002 C 
BRANCH  18  19
ATOM     19  C   UNL     1       9.159   4.896  23.772  0.00  0.00    +0.000 C 
BRANCH  19  20
ATOM     20  C   UNL     1       8.478   6.138  23.220  0.00  0.00    -0.000 C 
BRANCH  20  21
ATOM     21  C   UNL     1       7.453   5.734  22.162  0.00  0.00    -0.000 C 
BRANCH  21  23
ATOM     22  C   UNL     1       5.689   4.059  22.716  0.00  0.00    +0.004 C 
ATOM     23  C   UNL     1       7.128   4.253  22.266  0.00  0.00    -0.003 C 
ENDBRANCH  21  23
ENDBRANCH  20  21
ENDBRANCH  19  20
ENDBRANCH  18  19
ENDBRANCH  17  18
ENDBRANCH  14  17
ENDBRANCH  13  14
ENDBRANCH   1  13
BRANCH   4  24
ATOM     24  O   UNL     1       7.819  -2.259  23.745  0.00  0.00    -0.313 OA
BRANCH  24  25
ATOM     25  C   UNL     1       7.320  -2.992  22.618  0.00  0.00    +0.285 C 
ATOM     26  C   UNL     1       5.778  -3.146  22.720  0.00  0.00    +0.201 C 
ATOM     27  C   UNL     1       5.389  -4.197  23.773  0.00  0.00    +0.179 C 
ATOM     28  C   UNL     1       6.169  -5.502  23.558  0.00  0.00    +0.177 C 
ATOM     29  C   UNL     1       7.686  -5.261  23.427  0.00  0.00    +0.178 C 
ATOM     30  O   UNL     1       7.979  -4.252  22.454  0.00  0.00    -0.340 OA
BRANCH  28  31
ATOM     31  O   UNL     1       5.690  -6.104  22.338  0.00  0.00    -0.386 OA
ATOM     32  H   UNL     1       4.720  -6.165  22.403  0.00  0.00    +0.210 HD
ENDBRANCH  28  31
BRANCH  27  33
ATOM     33  O   UNL     1       5.555  -3.707  25.110  0.00  0.00    -0.386 OA
ATOM     34  H   UNL     1       6.377  -3.193  25.150  0.00  0.00    +0.210 HD
ENDBRANCH  27  33
BRANCH  26  35
ATOM     35  O   UNL     1       5.214  -3.481  21.438  0.00  0.00    -0.384 OA
ATOM     36  H   UNL     1       5.145  -4.458  21.393  0.00  0.00    +0.210 HD
ENDBRANCH  26  35
BRANCH  29  37
ATOM     37  C   UNL     1       8.417  -5.052  24.763  0.00  0.00    +0.190 C 
BRANCH  37  38
ATOM     38  O   UNL     1       9.703  -4.472  24.580  0.00  0.00    -0.392 OA
ATOM     39  H   UNL     1      10.117  -4.901  23.812  0.00  0.00    +0.210 HD
ENDBRANCH  37  38
ENDBRANCH  29  37
ENDBRANCH  24  25
ENDBRANCH   4  24
TORSDOF 20
ENDMDL
MODEL 4
REMARK VINA RESULT:      -6.3      2.041      3.980
REMARK  Name = 
REMARK  21 active torsions:
REMARK  status: ('A' for Active; 'I' for Inactive)
REMARK    1  A    between atoms: C_1  and  C_2
REMARK    2  A    between atoms: C_2  and  C_3
REMARK    3  A    between atoms: C_3  and  C_4
REMARK    4  A    between atoms: C_4  and  C_5
REMARK    5  A    between atoms: C_5  and  C_6
REMARK    6  A    between atoms: C_6  and  C_7
REMARK    7  A    between atoms: C_7  and  C_8
REMARK    8  A    between atoms: C_8  and  O_10
REMARK    9  A    between atoms: C_8  and  C_11
REMARK   10  A    between atoms: C_11  and  C_12
REMARK   11  A    between atoms: C_15  and  C_16
REMARK   12  A    between atoms: C_15  and  O_18
REMARK   13  A    between atoms: C_16  and  O_17
REMARK   14  A    between atoms: O_18  and  C_19
REMARK   15  A    between atoms: C_22  and  C_24
REMARK   16  A    between atoms: C_24  and  O_25
REMARK   17  A    between atoms: C_26  and  O_28
REMARK   18  A    between atoms: C_29  and  O_31
REMARK   19  A    between atoms: C_32  and  O_34
REMARK   20  A    between atoms: C_35  and  O_37
REMARK   21  A    between atoms: C_38  and  O_40
REMARK                            x       y       z     vdW  Elec       q    Type
REMARK                         _______ _______ _______ _____ _____    ______ ____
ROOT
ATOM      1  C   UNL     1       8.530   0.812  23.035  0.00  0.00    +0.155 C 
ATOM      2  C   UNL     1       9.383   0.426  21.829  0.00  0.00    +0.177 C 
ATOM      3  C   UNL     1       9.391  -1.103  21.796  0.00  0.00    +0.207 C 
ATOM      4  C   UNL     1       8.552  -1.546  23.028  0.00  0.00    +0.225 C 
ATOM      5  O   UNL     1       7.804  -0.374  23.404  0.00  0.00    -0.338 OA
ENDROOT
BRANCH   3   6
ATOM      6  O   UNL     1      10.743  -1.573  21.773  0.00  0.00    -0.384 OA
ATOM      7  H   UNL     1      11.273  -0.923  22.271  0.00  0.00    +0.210 HD
ENDBRANCH   3   6
BRANCH   2   8
ATOM      8  O   UNL     1       8.759   0.937  20.636  0.00  0.00    -0.386 OA
ATOM      9  H   UNL     1       7.932   0.445  20.483  0.00  0.00    +0.210 HD
ENDBRANCH   2   8
BRANCH   4  10
ATOM     10  C   UNL     1       9.440  -2.008  24.218  0.00  0.00    +0.223 C 
BRANCH  10  11
ATOM     11  O   UNL     1       9.873  -3.362  24.109  0.00  0.00    -0.390 OA
ATOM     12  H   UNL     1       9.242  -3.878  24.650  0.00  0.00    +0.210 HD
ENDBRANCH  10  11
ENDBRANCH   4  10
BRANCH   1  13
ATOM     13  C   UNL     1       9.277   1.315  24.272  0.00  0.00    +0.065 C 
BRANCH  13  14
ATOM     14  C   UNL     1       9.009   2.756  24.695  0.00  0.00    +0.117 C 
BRANCH  14  15
ATOM     15  O   UNL     1       7.752   2.738  25.379  0.00  0.00    -0.392 OA
ATOM     16  H   UNL     1       7.459   3.658  25.487  0.00  0.00    +0.210 HD
ENDBRANCH  14  15
BRANCH  14  17
ATOM     17  C   UNL     1       8.928   3.681  23.489  0.00  0.00    +0.031 C 
BRANCH  17  18
ATOM     18  C   UNL     1       8.622   5.117  23.896  0.00  0.00    +0.002 C 
BRANCH  18  19
ATOM     19  C   UNL     1       9.783   6.015  23.505  0.00  0.00    +0.000 C 
BRANCH  19  20
ATOM     20  C   UNL     1      10.641   6.342  24.717  0.00  0.00    -0.000 C 
BRANCH  20  21
ATOM     21  C   UNL     1      12.118   6.250  24.340  0.00  0.00    -0.000 C 
BRANCH  21  23
ATOM     22  C   UNL     1      13.283   5.568  22.241  0.00  0.00    +0.004 C 
ATOM     23  C   UNL     1      12.352   5.116  23.354  0.00  0.00    -0.003 C 
ENDBRANCH  21  23
ENDBRANCH  20  21
ENDBRANCH  19  20
ENDBRANCH  18  19
ENDBRANCH  17  18
ENDBRANCH  14  17
ENDBRANCH  13  14
ENDBRANCH   1  13
BRANCH   4  24
ATOM     24  O   UNL     1       7.649  -2.584  22.571  0.00  0.00    -0.313 OA
BRANCH  24  25
ATOM     25  C   UNL     1       6.265  -2.366  22.877  0.00  0.00    +0.285 C 
ATOM     26  C   UNL     1       5.983  -2.727  24.360  0.00  0.00    +0.201 C 
ATOM     27  C   UNL     1       5.950  -4.251  24.569  0.00  0.00    +0.179 C 
ATOM     28  C   UNL     1       5.030  -4.924  23.539  0.00  0.00    +0.177 C 
ATOM     29  C   UNL     1       5.349  -4.484  22.097  0.00  0.00    +0.178 C 
ATOM     30  O   UNL     1       5.394  -3.057  21.977  0.00  0.00    -0.340 OA
BRANCH  28  31
ATOM     31  O   UNL     1       3.673  -4.546  23.849  0.00  0.00    -0.386 OA
ATOM     32  H   UNL     1       3.316  -5.215  24.461  0.00  0.00    +0.210 HD
ENDBRANCH  28  31
BRANCH  27  33
ATOM     33  O   UNL     1       7.262  -4.826  24.548  0.00  0.00    -0.386 OA
ATOM     34  H   UNL     1       7.181  -5.785  24.670  0.00  0.00    +0.210 HD
ENDBRANCH  27  33
BRANCH  26  35
ATOM     35  O   UNL     1       4.751  -2.128  24.803  0.00  0.00    -0.384 OA
ATOM     36  H   UNL     1       4.282  -2.792  25.353  0.00  0.00    +0.210 HD
ENDBRANCH  26  35
BRANCH  29  37
ATOM     37  C   UNL     1       6.560  -5.190  21.466  0.00  0.00    +0.190 C 
BRANCH  37  38
ATOM     38  O   UNL     1       6.758  -6.489  22.009  0.00  0.00    -0.392 OA
ATOM     39  H   UNL     1       6.328  -7.129  21.416  0.00  0.00    +0.210 HD
ENDBRANCH  37  38
ENDBRANCH  29  37
ENDBRANCH  24  25
ENDBRANCH   4  24
TORSDOF 20
ENDMDL
MODEL 5
REMARK VINA RESULT:      -6.3      1.838      3.272
REMARK  Name = 
REMARK  21 active torsions:
REMARK  status: ('A' for Active; 'I' for Inactive)
REMARK    1  A    between atoms: C_1  and  C_2
REMARK    2  A    between atoms: C_2  and  C_3
REMARK    3  A    between atoms: C_3  and  C_4
REMARK    4  A    between atoms: C_4  and  C_5
REMARK    5  A    between atoms: C_5  and  C_6
REMARK    6  A    between atoms: C_6  and  C_7
REMARK    7  A    between atoms: C_7  and  C_8
REMARK    8  A    between atoms: C_8  and  O_10
REMARK    9  A    between atoms: C_8  and  C_11
REMARK   10  A    between atoms: C_11  and  C_12
REMARK   11  A    between atoms: C_15  and  C_16
REMARK   12  A    between atoms: C_15  and  O_18
REMARK   13  A    between atoms: C_16  and  O_17
REMARK   14  A    between atoms: O_18  and  C_19
REMARK   15  A    between atoms: C_22  and  C_24
REMARK   16  A    between atoms: C_24  and  O_25
REMARK   17  A    between atoms: C_26  and  O_28
REMARK   18  A    between atoms: C_29  and  O_31
REMARK   19  A    between atoms: C_32  and  O_34
REMARK   20  A    between atoms: C_35  and  O_37
REMARK   21  A    between atoms: C_38  and  O_40
REMARK                            x       y       z     vdW  Elec       q    Type
REMARK                         _______ _______ _______ _____ _____    ______ ____
ROOT
ATOM      1  C   UNL     1       8.824   0.212  22.773  0.00  0.00    +0.155 C 
ATOM      2  C   UNL     1       9.701  -0.944  22.300  0.00  0.00    +0.177 C 
ATOM      3  C   UNL     1       9.292  -2.150  23.147  0.00  0.00    +0.207 C 
ATOM      4  C   UNL     1       8.196  -1.622  24.114  0.00  0.00    +0.225 C 
ATOM      5  O   UNL     1       7.754  -0.382  23.528  0.00  0.00    -0.338 OA
ENDROOT
BRANCH   3   6
ATOM      6  O   UNL     1      10.452  -2.706  23.777  0.00  0.00    -0.384 OA
ATOM      7  H   UNL     1      10.195  -3.587  24.106  0.00  0.00    +0.210 HD
ENDBRANCH   3   6
BRANCH   2   8
ATOM      8  O   UNL     1       9.420  -1.204  20.912  0.00  0.00    -0.386 OA
ATOM      9  H   UNL     1       8.509  -1.541  20.838  0.00  0.00    +0.210 HD
ENDBRANCH   2   8
BRANCH   4  10
ATOM     10  C   UNL     1       8.742  -1.360  25.546  0.00  0.00    +0.223 C 
BRANCH  10  11
ATOM     11  O   UNL     1       8.727  -2.518  26.378  0.00  0.00    -0.390 OA
ATOM     12  H   UNL     1       8.330  -2.224  27.223  0.00  0.00    +0.210 HD
ENDBRANCH  10  11
ENDBRANCH   4  10
BRANCH   1  13
ATOM     13  C   UNL     1       9.495   1.270  23.652  0.00  0.00    +0.065 C 
BRANCH  13  14
ATOM     14  C   UNL     1       9.798   2.614  22.998  0.00  0.00    +0.117 C 
BRANCH  14  15
ATOM     15  O   UNL     1       9.864   2.359  21.591  0.00  0.00    -0.392 OA
ATOM     16  H   UNL     1      10.683   1.866  21.416  0.00  0.00    +0.210 HD
ENDBRANCH  14  15
BRANCH  14  17
ATOM     17  C   UNL     1      11.124   3.181  23.484  0.00  0.00    +0.031 C 
BRANCH  17  18
ATOM     18  C   UNL     1      11.098   4.702  23.553  0.00  0.00    +0.002 C 
BRANCH  18  19
ATOM     19  C   UNL     1       9.772   5.162  24.135  0.00  0.00    +0.000 C 
BRANCH  19  20
ATOM     20  C   UNL     1       9.280   6.414  23.427  0.00  0.00    -0.000 C 
BRANCH  20  21
ATOM     21  C   UNL     1       7.765   6.338  23.244  0.00  0.00    -0.000 C 
BRANCH  21  23
ATOM     22  C   UNL     1       6.500   4.290  22.587  0.00  0.00    +0.004 C 
ATOM     23  C   UNL     1       7.408   5.406  22.097  0.00  0.00    -0.003 C 
ENDBRANCH  21  23
ENDBRANCH  20  21
ENDBRANCH  19  20
ENDBRANCH  18  19
ENDBRANCH  17  18
ENDBRANCH  14  17
ENDBRANCH  13  14
ENDBRANCH   1  13
BRANCH   4  24
ATOM     24  O   UNL     1       7.118  -2.590  24.097  0.00  0.00    -0.313 OA
BRANCH  24  25
ATOM     25  C   UNL     1       7.012  -3.362  22.894  0.00  0.00    +0.285 C 
ATOM     26  C   UNL     1       5.600  -3.191  22.271  0.00  0.00    +0.201 C 
ATOM     27  C   UNL     1       4.541  -3.984  23.058  0.00  0.00    +0.179 C 
ATOM     28  C   UNL     1       4.995  -5.435  23.277  0.00  0.00    +0.177 C 
ATOM     29  C   UNL     1       6.420  -5.520  23.859  0.00  0.00    +0.178 C 
ATOM     30  O   UNL     1       7.349  -4.738  23.100  0.00  0.00    -0.340 OA
BRANCH  28  31
ATOM     31  O   UNL     1       4.980  -6.098  21.995  0.00  0.00    -0.386 OA
ATOM     32  H   UNL     1       4.625  -6.994  22.135  0.00  0.00    +0.210 HD
ENDBRANCH  28  31
BRANCH  27  33
ATOM     33  O   UNL     1       4.208  -3.352  24.300  0.00  0.00    -0.386 OA
ATOM     34  H   UNL     1       4.869  -3.607  24.964  0.00  0.00    +0.210 HD
ENDBRANCH  27  33
BRANCH  26  35
ATOM     35  O   UNL     1       5.603  -3.587  20.888  0.00  0.00    -0.384 OA
ATOM     36  H   UNL     1       5.773  -4.553  20.857  0.00  0.00    +0.210 HD
ENDBRANCH  26  35
BRANCH  29  37
ATOM     37  C   UNL     1       6.507  -5.272  25.374  0.00  0.00    +0.190 C 
BRANCH  37  38
ATOM     38  O   UNL     1       7.851  -5.112  25.809  0.00  0.00    -0.392 OA
ATOM     39  H   UNL     1       8.300  -4.520  25.181  0.00  0.00    +0.210 HD
ENDBRANCH  37  38
ENDBRANCH  29  37
ENDBRANCH  24  25
ENDBRANCH   4  24
TORSDOF 20
ENDMDL
MODEL 6
REMARK VINA RESULT:      -6.1      2.593      5.500
REMARK  Name = 
REMARK  21 active torsions:
REMARK  status: ('A' for Active; 'I' for Inactive)
REMARK    1  A    between atoms: C_1  and  C_2
REMARK    2  A    between atoms: C_2  and  C_3
REMARK    3  A    between atoms: C_3  and  C_4
REMARK    4  A    between atoms: C_4  and  C_5
REMARK    5  A    between atoms: C_5  and  C_6
REMARK    6  A    between atoms: C_6  and  C_7
REMARK    7  A    between atoms: C_7  and  C_8
REMARK    8  A    between atoms: C_8  and  O_10
REMARK    9  A    between atoms: C_8  and  C_11
REMARK   10  A    between atoms: C_11  and  C_12
REMARK   11  A    between atoms: C_15  and  C_16
REMARK   12  A    between atoms: C_15  and  O_18
REMARK   13  A    between atoms: C_16  and  O_17
REMARK   14  A    between atoms: O_18  and  C_19
REMARK   15  A    between atoms: C_22  and  C_24
REMARK   16  A    between atoms: C_24  and  O_25
REMARK   17  A    between atoms: C_26  and  O_28
REMARK   18  A    between atoms: C_29  and  O_31
REMARK   19  A    between atoms: C_32  and  O_34
REMARK   20  A    between atoms: C_35  and  O_37
REMARK   21  A    between atoms: C_38  and  O_40
REMARK                            x       y       z     vdW  Elec       q    Type
REMARK                         _______ _______ _______ _____ _____    ______ ____
ROOT
ATOM      1  C   UNL     1       8.771  -3.830  25.014  0.00  0.00    +0.155 C 
ATOM      2  C   UNL     1       9.169  -5.019  25.885  0.00  0.00    +0.177 C 
ATOM      3  C   UNL     1       7.859  -5.597  26.424  0.00  0.00    +0.207 C 
ATOM      4  C   UNL     1       6.739  -4.680  25.856  0.00  0.00    +0.225 C 
ATOM      5  O   UNL     1       7.361  -3.972  24.767  0.00  0.00    -0.338 OA
ENDROOT
BRANCH   3   6
ATOM      6  O   UNL     1       7.925  -5.675  27.852  0.00  0.00    -0.384 OA
ATOM      7  H   UNL     1       8.655  -5.093  28.130  0.00  0.00    +0.210 HD
ENDBRANCH   3   6
BRANCH   2   8
ATOM      8  O   UNL     1       9.832  -5.997  25.062  0.00  0.00    -0.386 OA
ATOM      9  H   UNL     1       9.714  -6.875  25.467  0.00  0.00    +0.210 HD
ENDBRANCH   2   8
BRANCH   4  10
ATOM     10  C   UNL     1       6.211  -3.666  26.910  0.00  0.00    +0.223 C 
BRANCH  10  11
ATOM     11  O   UNL     1       5.663  -2.483  26.332  0.00  0.00    -0.390 OA
ATOM     12  H   UNL     1       5.914  -1.759  26.940  0.00  0.00    +0.210 HD
ENDBRANCH  10  11
ENDBRANCH   4  10
BRANCH   1  13
ATOM     13  C   UNL     1       9.012  -2.437  25.600  0.00  0.00    +0.065 C 
BRANCH  13  14
ATOM     14  C   UNL     1       8.959  -1.265  24.626  0.00  0.00    +0.117 C 
BRANCH  14  15
ATOM     15  O   UNL     1       7.571  -1.033  24.366  0.00  0.00    -0.392 OA
ATOM     16  H   UNL     1       7.099  -1.873  24.495  0.00  0.00    +0.210 HD
ENDBRANCH  14  15
BRANCH  14  17
ATOM     17  C   UNL     1       9.680  -1.592  23.326  0.00  0.00    +0.031 C 
BRANCH  17  18
ATOM     18  C   UNL     1       8.810  -1.308  22.108  0.00  0.00    +0.002 C 
BRANCH  18  19
ATOM     19  C   UNL     1       9.422  -0.178  21.299  0.00  0.00    +0.000 C 
BRANCH  19  20
ATOM     20  C   UNL     1       8.978   1.172  21.840  0.00  0.00    -0.000 C 
BRANCH  20  21
ATOM     21  C   UNL     1      10.204   2.010  22.196  0.00  0.00    -0.000 C 
BRANCH  21  23
ATOM     22  C   UNL     1       9.108   2.440  24.396  0.00  0.00    +0.004 C 
ATOM     23  C   UNL     1      10.405   2.058  23.702  0.00  0.00    -0.003 C 
ENDBRANCH  21  23
ENDBRANCH  20  21
ENDBRANCH  19  20
ENDBRANCH  18  19
ENDBRANCH  17  18
ENDBRANCH  14  17
ENDBRANCH  13  14
ENDBRANCH   1  13
BRANCH   4  24
ATOM     24  O   UNL     1       5.698  -5.552  25.351  0.00  0.00    -0.313 OA
BRANCH  24  25
ATOM     25  C   UNL     1       4.514  -5.618  26.157  0.00  0.00    +0.285 C 
ATOM     26  C   UNL     1       3.958  -7.067  26.173  0.00  0.00    +0.201 C 
ATOM     27  C   UNL     1       3.261  -7.413  24.845  0.00  0.00    +0.179 C 
ATOM     28  C   UNL     1       2.251  -6.323  24.457  0.00  0.00    +0.177 C 
ATOM     29  C   UNL     1       2.869  -4.912  24.504  0.00  0.00    +0.178 C 
ATOM     30  O   UNL     1       3.527  -4.664  25.752  0.00  0.00    -0.340 OA
BRANCH  28  31
ATOM     31  O   UNL     1       1.158  -6.381  25.397  0.00  0.00    -0.386 OA
ATOM     32  H   UNL     1       0.760  -7.267  25.328  0.00  0.00    +0.210 HD
ENDBRANCH  28  31
BRANCH  27  33
ATOM     33  O   UNL     1       4.200  -7.651  23.790  0.00  0.00    -0.386 OA
ATOM     34  H   UNL     1       4.872  -8.275  24.110  0.00  0.00    +0.210 HD
ENDBRANCH  27  33
BRANCH  26  35
ATOM     35  O   UNL     1       3.058  -7.254  27.281  0.00  0.00    -0.384 OA
ATOM     36  H   UNL     1       2.681  -6.377  27.506  0.00  0.00    +0.210 HD
ENDBRANCH  26  35
BRANCH  29  37
ATOM     37  C   UNL     1       3.724  -4.547  23.279  0.00  0.00    +0.190 C 
BRANCH  37  38
ATOM     38  O   UNL     1       4.597  -3.457  23.547  0.00  0.00    -0.392 OA
ATOM     39  H   UNL     1       4.050  -2.683  23.765  0.00  0.00    +0.210 HD
ENDBRANCH  37  38
ENDBRANCH  29  37
ENDBRANCH  24  25
ENDBRANCH   4  24
TORSDOF 20
ENDMDL
MODEL 7
REMARK VINA RESULT:      -6.1      1.856      3.795
REMARK  Name = 
REMARK  21 active torsions:
REMARK  status: ('A' for Active; 'I' for Inactive)
REMARK    1  A    between atoms: C_1  and  C_2
REMARK    2  A    between atoms: C_2  and  C_3
REMARK    3  A    between atoms: C_3  and  C_4
REMARK    4  A    between atoms: C_4  and  C_5
REMARK    5  A    between atoms: C_5  and  C_6
REMARK    6  A    between atoms: C_6  and  C_7
REMARK    7  A    between atoms: C_7  and  C_8
REMARK    8  A    between atoms: C_8  and  O_10
REMARK    9  A    between atoms: C_8  and  C_11
REMARK   10  A    between atoms: C_11  and  C_12
REMARK   11  A    between atoms: C_15  and  C_16
REMARK   12  A    between atoms: C_15  and  O_18
REMARK   13  A    between atoms: C_16  and  O_17
REMARK   14  A    between atoms: O_18  and  C_19
REMARK   15  A    between atoms: C_22  and  C_24
REMARK   16  A    between atoms: C_24  and  O_25
REMARK   17  A    between atoms: C_26  and  O_28
REMARK   18  A    between atoms: C_29  and  O_31
REMARK   19  A    between atoms: C_32  and  O_34
REMARK   20  A    between atoms: C_35  and  O_37
REMARK   21  A    between atoms: C_38  and  O_40
REMARK                            x       y       z     vdW  Elec       q    Type
REMARK                         _______ _______ _______ _____ _____    ______ ____
ROOT
ATOM      1  C   UNL     1       9.094  -0.550  23.459  0.00  0.00    +0.155 C 
ATOM      2  C   UNL     1       9.903  -1.767  23.020  0.00  0.00    +0.177 C 
ATOM      3  C   UNL     1       9.195  -2.979  23.626  0.00  0.00    +0.207 C 
ATOM      4  C   UNL     1       8.000  -2.397  24.432  0.00  0.00    +0.225 C 
ATOM      5  O   UNL     1       7.833  -1.058  23.928  0.00  0.00    -0.338 OA
ENDROOT
BRANCH   3   6
ATOM      6  O   UNL     1      10.133  -3.749  24.386  0.00  0.00    -0.384 OA
ATOM      7  H   UNL     1      10.877  -3.155  24.595  0.00  0.00    +0.210 HD
ENDBRANCH   3   6
BRANCH   2   8
ATOM      8  O   UNL     1       9.873  -1.852  21.582  0.00  0.00    -0.386 OA
ATOM      9  H   UNL     1      10.255  -1.034  21.215  0.00  0.00    +0.210 HD
ENDBRANCH   2   8
BRANCH   4  10
ATOM     10  C   UNL     1       8.280  -2.352  25.961  0.00  0.00    +0.223 C 
BRANCH  10  11
ATOM     11  O   UNL     1       8.363  -3.644  26.560  0.00  0.00    -0.390 OA
ATOM     12  H   UNL     1       7.952  -4.254  25.915  0.00  0.00    +0.210 HD
ENDBRANCH  10  11
ENDBRANCH   4  10
BRANCH   1  13
ATOM     13  C   UNL     1       9.698   0.315  24.567  0.00  0.00    +0.065 C 
BRANCH  13  14
ATOM     14  C   UNL     1       9.024   1.657  24.834  0.00  0.00    +0.117 C 
BRANCH  14  15
ATOM     15  O   UNL     1       8.122   1.433  25.923  0.00  0.00    -0.392 OA
ATOM     16  H   UNL     1       7.221   1.393  25.559  0.00  0.00    +0.210 HD
ENDBRANCH  14  15
BRANCH  14  17
ATOM     17  C   UNL     1       8.253   2.142  23.615  0.00  0.00    +0.031 C 
BRANCH  17  18
ATOM     18  C   UNL     1       8.529   3.611  23.318  0.00  0.00    +0.002 C 
BRANCH  18  19
ATOM     19  C   UNL     1       9.942   3.960  23.752  0.00  0.00    +0.000 C 
BRANCH  19  20
ATOM     20  C   UNL     1      10.012   5.394  24.250  0.00  0.00    -0.000 C 
BRANCH  20  21
ATOM     21  C   UNL     1      11.366   5.999  23.886  0.00  0.00    -0.000 C 
BRANCH  21  23
ATOM     22  C   UNL     1      13.244   5.534  22.309  0.00  0.00    +0.004 C 
ATOM     23  C   UNL     1      12.302   4.933  23.341  0.00  0.00    -0.003 C 
ENDBRANCH  21  23
ENDBRANCH  20  21
ENDBRANCH  19  20
ENDBRANCH  18  19
ENDBRANCH  17  18
ENDBRANCH  14  17
ENDBRANCH  13  14
ENDBRANCH   1  13
BRANCH   4  24
ATOM     24  O   UNL     1       6.839  -3.200  24.102  0.00  0.00    -0.313 OA
BRANCH  24  25
ATOM     25  C   UNL     1       7.113  -4.580  23.822  0.00  0.00    +0.285 C 
ATOM     26  C   UNL     1       6.374  -5.019  22.529  0.00  0.00    +0.201 C 
ATOM     27  C   UNL     1       4.868  -5.207  22.781  0.00  0.00    +0.179 C 
ATOM     28  C   UNL     1       4.626  -6.092  24.012  0.00  0.00    +0.177 C 
ATOM     29  C   UNL     1       5.424  -5.614  25.241  0.00  0.00    +0.178 C 
ATOM     30  O   UNL     1       6.811  -5.430  24.932  0.00  0.00    -0.340 OA
BRANCH  28  31
ATOM     31  O   UNL     1       5.048  -7.431  23.680  0.00  0.00    -0.386 OA
ATOM     32  H   UNL     1       5.146  -7.475  22.712  0.00  0.00    +0.210 HD
ENDBRANCH  28  31
BRANCH  27  33
ATOM     33  O   UNL     1       4.181  -3.955  22.899  0.00  0.00    -0.386 OA
ATOM     34  H   UNL     1       4.004  -3.787  23.838  0.00  0.00    +0.210 HD
ENDBRANCH  27  33
BRANCH  26  35
ATOM     35  O   UNL     1       6.953  -6.225  21.997  0.00  0.00    -0.384 OA
ATOM     36  H   UNL     1       6.228  -6.744  21.587  0.00  0.00    +0.210 HD
ENDBRANCH  26  35
BRANCH  29  37
ATOM     37  C   UNL     1       4.800  -4.422  25.984  0.00  0.00    +0.190 C 
BRANCH  37  38
ATOM     38  O   UNL     1       3.389  -4.368  25.809  0.00  0.00    -0.392 OA
ATOM     39  H   UNL     1       3.003  -3.982  26.614  0.00  0.00    +0.210 HD
ENDBRANCH  37  38
ENDBRANCH  29  37
ENDBRANCH  24  25
ENDBRANCH   4  24
TORSDOF 20
ENDMDL
MODEL 8
REMARK VINA RESULT:      -6.1      1.438      2.803
REMARK  Name = 
REMARK  21 active torsions:
REMARK  status: ('A' for Active; 'I' for Inactive)
REMARK    1  A    between atoms: C_1  and  C_2
REMARK    2  A    between atoms: C_2  and  C_3
REMARK    3  A    between atoms: C_3  and  C_4
REMARK    4  A    between atoms: C_4  and  C_5
REMARK    5  A    between atoms: C_5  and  C_6
REMARK    6  A    between atoms: C_6  and  C_7
REMARK    7  A    between atoms: C_7  and  C_8
REMARK    8  A    between atoms: C_8  and  O_10
REMARK    9  A    between atoms: C_8  and  C_11
REMARK   10  A    between atoms: C_11  and  C_12
REMARK   11  A    between atoms: C_15  and  C_16
REMARK   12  A    between atoms: C_15  and  O_18
REMARK   13  A    between atoms: C_16  and  O_17
REMARK   14  A    between atoms: O_18  and  C_19
REMARK   15  A    between atoms: C_22  and  C_24
REMARK   16  A    between atoms: C_24  and  O_25
REMARK   17  A    between atoms: C_26  and  O_28
REMARK   18  A    between atoms: C_29  and  O_31
REMARK   19  A    between atoms: C_32  and  O_34
REMARK   20  A    between atoms: C_35  and  O_37
REMARK   21  A    between atoms: C_38  and  O_40
REMARK                            x       y       z     vdW  Elec       q    Type
REMARK                         _______ _______ _______ _____ _____    ______ ____
ROOT
ATOM      1  C   UNL     1       9.542   0.952  24.762  0.00  0.00    +0.155 C 
ATOM      2  C   UNL     1       8.058   0.935  25.118  0.00  0.00    +0.177 C 
ATOM      3  C   UNL     1       7.500  -0.356  24.516  0.00  0.00    +0.207 C 
ATOM      4  C   UNL     1       8.703  -1.028  23.796  0.00  0.00    +0.225 C 
ATOM      5  O   UNL     1       9.868  -0.387  24.350  0.00  0.00    -0.338 OA
ENDROOT
BRANCH   3   6
ATOM      6  O   UNL     1       6.379  -0.047  23.681  0.00  0.00    -0.384 OA
ATOM      7  H   UNL     1       5.764  -0.800  23.748  0.00  0.00    +0.210 HD
ENDBRANCH   3   6
BRANCH   2   8
ATOM      8  O   UNL     1       7.924   0.903  26.551  0.00  0.00    -0.386 OA
ATOM      9  H   UNL     1       8.802   1.045  26.949  0.00  0.00    +0.210 HD
ENDBRANCH   2   8
BRANCH   4  10
ATOM     10  C   UNL     1       8.668  -0.817  22.256  0.00  0.00    +0.223 C 
BRANCH  10  11
ATOM     11  O   UNL     1       9.962  -0.806  21.656  0.00  0.00    -0.390 OA
ATOM     12  H   UNL     1      10.570  -1.136  22.348  0.00  0.00    +0.210 HD
ENDBRANCH  10  11
ENDBRANCH   4  10
BRANCH   1  13
ATOM     13  C   UNL     1       9.972   1.909  23.649  0.00  0.00    +0.065 C 
BRANCH  13  14
ATOM     14  C   UNL     1       8.857   2.609  22.879  0.00  0.00    +0.117 C 
BRANCH  14  15
ATOM     15  O   UNL     1       9.121   2.361  21.494  0.00  0.00    -0.392 OA
ATOM     16  H   UNL     1       8.432   1.759  21.163  0.00  0.00    +0.210 HD
ENDBRANCH  14  15
BRANCH  14  17
ATOM     17  C   UNL     1       8.855   4.108  23.145  0.00  0.00    +0.031 C 
BRANCH  17  18
ATOM     18  C   UNL     1       8.941   4.419  24.633  0.00  0.00    +0.002 C 
BRANCH  18  19
ATOM     19  C   UNL     1       9.583   5.781  24.832  0.00  0.00    +0.000 C 
BRANCH  19  20
ATOM     20  C   UNL     1      10.488   6.124  23.659  0.00  0.00    -0.000 C 
BRANCH  20  21
ATOM     21  C   UNL     1      11.950   5.999  24.085  0.00  0.00    -0.000 C 
BRANCH  21  23
ATOM     22  C   UNL     1      13.296   5.607  22.021  0.00  0.00    +0.004 C 
ATOM     23  C   UNL     1      12.668   4.957  23.243  0.00  0.00    -0.003 C 
ENDBRANCH  21  23
ENDBRANCH  20  21
ENDBRANCH  19  20
ENDBRANCH  18  19
ENDBRANCH  17  18
ENDBRANCH  14  17
ENDBRANCH  13  14
ENDBRANCH   1  13
BRANCH   4  24
ATOM     24  O   UNL     1       8.685  -2.429  24.167  0.00  0.00    -0.313 OA
BRANCH  24  25
ATOM     25  C   UNL     1       7.688  -2.791  25.132  0.00  0.00    +0.285 C 
ATOM     26  C   UNL     1       8.215  -3.934  26.041  0.00  0.00    +0.201 C 
ATOM     27  C   UNL     1       8.212  -5.283  25.302  0.00  0.00    +0.179 C 
ATOM     28  C   UNL     1       6.851  -5.542  24.639  0.00  0.00    +0.177 C 
ATOM     29  C   UNL     1       6.381  -4.346  23.787  0.00  0.00    +0.178 C 
ATOM     30  O   UNL     1       6.436  -3.118  24.523  0.00  0.00    -0.340 OA
BRANCH  28  31
ATOM     31  O   UNL     1       5.887  -5.768  25.688  0.00  0.00    -0.386 OA
ATOM     32  H   UNL     1       5.572  -4.897  25.989  0.00  0.00    +0.210 HD
ENDBRANCH  28  31
BRANCH  27  33
ATOM     33  O   UNL     1       9.280  -5.378  24.351  0.00  0.00    -0.386 OA
ATOM     34  H   UNL     1       8.910  -5.661  23.499  0.00  0.00    +0.210 HD
ENDBRANCH  27  33
BRANCH  26  35
ATOM     35  O   UNL     1       7.440  -4.018  27.252  0.00  0.00    -0.384 OA
ATOM     36  H   UNL     1       8.064  -4.182  27.991  0.00  0.00    +0.210 HD
ENDBRANCH  26  35
BRANCH  29  37
ATOM     37  C   UNL     1       7.033  -4.257  22.398  0.00  0.00    +0.190 C 
BRANCH  37  38
ATOM     38  O   UNL     1       7.389  -5.539  21.895  0.00  0.00    -0.392 OA
ATOM     39  H   UNL     1       8.355  -5.557  21.782  0.00  0.00    +0.210 HD
ENDBRANCH  37  38
ENDBRANCH  29  37
ENDBRANCH  24  25
ENDBRANCH   4  24
TORSDOF 20
ENDMDL
MODEL 9
REMARK VINA RESULT:      -6.0      2.160      7.862
REMARK  Name = 
REMARK  21 active torsions:
REMARK  status: ('A' for Active; 'I' for Inactive)
REMARK    1  A    between atoms: C_1  and  C_2
REMARK    2  A    between atoms: C_2  and  C_3
REMARK    3  A    between atoms: C_3  and  C_4
REMARK    4  A    between atoms: C_4  and  C_5
REMARK    5  A    between atoms: C_5  and  C_6
REMARK    6  A    between atoms: C_6  and  C_7
REMARK    7  A    between atoms: C_7  and  C_8
REMARK    8  A    between atoms: C_8  and  O_10
REMARK    9  A    between atoms: C_8  and  C_11
REMARK   10  A    between atoms: C_11  and  C_12
REMARK   11  A    between atoms: C_15  and  C_16
REMARK   12  A    between atoms: C_15  and  O_18
REMARK   13  A    between atoms: C_16  and  O_17
REMARK   14  A    between atoms: O_18  and  C_19
REMARK   15  A    between atoms: C_22  and  C_24
REMARK   16  A    between atoms: C_24  and  O_25
REMARK   17  A    between atoms: C_26  and  O_28
REMARK   18  A    between atoms: C_29  and  O_31
REMARK   19  A    between atoms: C_32  and  O_34
REMARK   20  A    between atoms: C_35  and  O_37
REMARK   21  A    between atoms: C_38  and  O_40
REMARK                            x       y       z     vdW  Elec       q    Type
REMARK                         _______ _______ _______ _____ _____    ______ ____
ROOT
ATOM      1  C   UNL     1       6.876  -2.763  22.767  0.00  0.00    +0.155 C 
ATOM      2  C   UNL     1       6.433  -2.447  24.193  0.00  0.00    +0.177 C 
ATOM      3  C   UNL     1       7.480  -1.481  24.750  0.00  0.00    +0.207 C 
ATOM      4  C   UNL     1       8.521  -1.300  23.610  0.00  0.00    +0.225 C 
ATOM      5  O   UNL     1       7.851  -1.762  22.422  0.00  0.00    -0.338 OA
ENDROOT
BRANCH   3   6
ATOM      6  O   UNL     1       7.999  -1.997  25.980  0.00  0.00    -0.384 OA
ATOM      7  H   UNL     1       8.687  -2.645  25.743  0.00  0.00    +0.210 HD
ENDBRANCH   3   6
BRANCH   2   8
ATOM      8  O   UNL     1       5.147  -1.801  24.149  0.00  0.00    -0.386 OA
ATOM      9  H   UNL     1       4.744  -1.971  23.278  0.00  0.00    +0.210 HD
ENDBRANCH   2   8
BRANCH   4  10
ATOM     10  C   UNL     1       9.812  -2.135  23.845  0.00  0.00    +0.223 C 
BRANCH  10  11
ATOM     11  O   UNL     1      10.612  -2.284  22.674  0.00  0.00    -0.390 OA
ATOM     12  H   UNL     1      11.099  -3.123  22.799  0.00  0.00    +0.210 HD
ENDBRANCH  10  11
ENDBRANCH   4  10
BRANCH   1  13
ATOM     13  C   UNL     1       7.503  -4.138  22.530  0.00  0.00    +0.065 C 
BRANCH  13  14
ATOM     14  C   UNL     1       6.646  -5.165  21.796  0.00  0.00    +0.117 C 
BRANCH  14  15
ATOM     15  O   UNL     1       5.718  -4.411  21.009  0.00  0.00    -0.392 OA
ATOM     16  H   UNL     1       4.832  -4.782  21.159  0.00  0.00    +0.210 HD
ENDBRANCH  14  15
BRANCH  14  17
ATOM     17  C   UNL     1       5.892  -6.056  22.772  0.00  0.00    +0.031 C 
BRANCH  17  18
ATOM     18  C   UNL     1       4.505  -5.509  23.084  0.00  0.00    +0.002 C 
BRANCH  18  19
ATOM     19  C   UNL     1       4.266  -5.554  24.584  0.00  0.00    +0.000 C 
BRANCH  19  20
ATOM     20  C   UNL     1       5.522  -6.002  25.314  0.00  0.00    -0.000 C 
BRANCH  20  21
ATOM     21  C   UNL     1       5.757  -5.104  26.528  0.00  0.00    -0.000 C 
BRANCH  21  23
ATOM     22  C   UNL     1       8.167  -5.387  25.945  0.00  0.00    +0.004 C 
ATOM     23  C   UNL     1       7.159  -5.304  27.080  0.00  0.00    -0.003 C 
ENDBRANCH  21  23
ENDBRANCH  20  21
ENDBRANCH  19  20
ENDBRANCH  18  19
ENDBRANCH  17  18
ENDBRANCH  14  17
ENDBRANCH  13  14
ENDBRANCH   1  13
BRANCH   4  24
ATOM     24  O   UNL     1       8.789   0.121  23.506  0.00  0.00    -0.313 OA
BRANCH  24  25
ATOM     25  C   UNL     1       7.713   0.975  23.919  0.00  0.00    +0.285 C 
ATOM     26  C   UNL     1       6.933   1.489  22.679  0.00  0.00    +0.201 C 
ATOM     27  C   UNL     1       7.721   2.582  21.936  0.00  0.00    +0.179 C 
ATOM     28  C   UNL     1       8.203   3.667  22.909  0.00  0.00    +0.177 C 
ATOM     29  C   UNL     1       8.932   3.073  24.131  0.00  0.00    +0.178 C 
ATOM     30  O   UNL     1       8.159   2.044  24.759  0.00  0.00    -0.340 OA
BRANCH  28  31
ATOM     31  O   UNL     1       7.043   4.391  23.370  0.00  0.00    -0.386 OA
ATOM     32  H   UNL     1       6.317   4.202  22.749  0.00  0.00    +0.210 HD
ENDBRANCH  28  31
BRANCH  27  33
ATOM     33  O   UNL     1       8.812   2.039  21.181  0.00  0.00    -0.386 OA
ATOM     34  H   UNL     1       9.363   2.773  20.865  0.00  0.00    +0.210 HD
ENDBRANCH  27  33
BRANCH  26  35
ATOM     35  O   UNL     1       5.633   1.975  23.062  0.00  0.00    -0.384 OA
ATOM     36  H   UNL     1       5.599   1.987  24.043  0.00  0.00    +0.210 HD
ENDBRANCH  26  35
BRANCH  29  37
ATOM     37  C   UNL     1      10.392   2.669  23.870  0.00  0.00    +0.190 C 
BRANCH  37  38
ATOM     38  O   UNL     1      10.967   3.418  22.806  0.00  0.00    -0.392 OA
ATOM     39  H   UNL     1      10.244   3.727  22.233  0.00  0.00    +0.210 HD
ENDBRANCH  37  38
ENDBRANCH  29  37
ENDBRANCH  24  25
ENDBRANCH   4  24
TORSDOF 20
ENDMDL
