MODEL 1
REMARK VINA RESULT:      -8.2      0.000      0.000
REMARK  Name = 
REMARK  4 active torsions:
REMARK  status: ('A' for Active; 'I' for Inactive)
REMARK    1  A    between atoms: C_2  and  C_4
REMARK    2  A    between atoms: C_9  and  C_11
REMARK    3  A    between atoms: C_15  and  C_16
REMARK    4  A    between atoms: C_22  and  O_23
REMARK                            x       y       z     vdW  Elec       q    Type
REMARK                         _______ _______ _______ _____ _____    ______ ____
ROOT
ATOM      1  C   UNL     1       8.419  -4.114  24.807  0.00  0.00    +0.067 A 
ATOM      2  C   UNL     1       7.873  -4.320  23.532  0.00  0.00    +0.018 A 
ATOM      3  C   UNL     1       7.495  -3.246  22.723  0.00  0.00    +0.028 A 
ATOM      4  C   UNL     1       7.715  -1.973  23.246  0.00  0.00    +0.067 A 
ATOM      5  N   UNL     1       7.499  -0.727  22.734  0.00  0.00    -0.338 N 
ATOM      6  H   UNL     1       7.114  -0.501  21.825  0.00  0.00    +0.167 HD
ATOM      7  C   UNL     1       7.955   0.218  23.620  0.00  0.00    +0.143 A 
ATOM      8  N   UNL     1       8.393  -0.376  24.721  0.00  0.00    -0.228 NA
ATOM      9  C   UNL     1       8.268  -1.729  24.497  0.00  0.00    +0.090 A 
ATOM     10  C   UNL     1       8.619  -2.817  25.310  0.00  0.00    +0.045 A 
ENDROOT
BRANCH   1  14
ATOM     11  N   UNL     1       8.094  -5.642  26.731  0.00  0.00    -0.247 N 
ATOM     12  H   UNL     1       7.126  -5.338  26.736  0.00  0.00    +0.288 HD
ATOM     13  H   UNL     1       8.185  -6.605  27.028  0.00  0.00    +0.288 HD
ATOM     14  C   UNL     1       8.809  -5.300  25.617  0.00  0.00    +0.308 C 
ATOM     15  N   UNL     1       9.818  -6.017  25.248  0.00  0.00    -0.099 NA
ATOM     16  H   UNL     1       9.980  -6.763  25.927  0.00  0.00    +0.363 HD
ENDBRANCH   1  14
BRANCH   7  17
ATOM     17  C   UNL     1       7.929   1.661  23.330  0.00  0.00    +0.059 A 
ATOM     18  C   UNL     1       8.892   2.567  23.842  0.00  0.00    +0.135 A 
ATOM     19  C   UNL     1       8.896   3.943  23.501  0.00  0.00    +0.024 A 
ATOM     20  C   UNL     1       7.826   4.397  22.705  0.00  0.00    +0.012 A 
ATOM     21  C   UNL     1       6.837   3.530  22.235  0.00  0.00    +0.002 A 
ATOM     22  C   UNL     1       6.903   2.170  22.527  0.00  0.00    +0.015 A 
BRANCH  19  23
ATOM     23  C   UNL     1       9.980   4.891  23.888  0.00  0.00    -0.014 A 
ATOM     24  C   UNL     1       9.768   5.902  24.847  0.00  0.00    +0.008 A 
ATOM     25  C   UNL     1      10.791   6.775  25.235  0.00  0.00    +0.001 A 
ATOM     26  C   UNL     1      12.068   6.627  24.708  0.00  0.00    +0.000 A 
ATOM     27  C   UNL     1      12.316   5.624  23.778  0.00  0.00    +0.001 A 
ATOM     28  C   UNL     1      11.279   4.780  23.360  0.00  0.00    +0.008 A 
ENDBRANCH  19  23
BRANCH  18  29
ATOM     29  O   UNL     1       9.828   2.070  24.731  0.00  0.00    -0.505 OA
ATOM     30  H   UNL     1      10.657   2.562  24.579  0.00  0.00    +0.292 HD
ENDBRANCH  18  29
ENDBRANCH   7  17
TORSDOF 4
ENDMDL
MODEL 2
REMARK VINA RESULT:      -7.8      2.884      8.539
REMARK  Name = 
REMARK  4 active torsions:
REMARK  status: ('A' for Active; 'I' for Inactive)
REMARK    1  A    between atoms: C_2  and  C_4
REMARK    2  A    between atoms: C_9  and  C_11
REMARK    3  A    between atoms: C_15  and  C_16
REMARK    4  A    between atoms: C_22  and  O_23
REMARK                            x       y       z     vdW  Elec       q    Type
REMARK                         _______ _______ _______ _____ _____    ______ ____
ROOT
ATOM      1  C   UNL     1      10.997   4.709  23.571  0.00  0.00    +0.067 A 
ATOM      2  C   UNL     1       9.929   5.481  24.051  0.00  0.00    +0.018 A 
ATOM      3  C   UNL     1       8.691   4.904  24.342  0.00  0.00    +0.028 A 
ATOM      4  C   UNL     1       8.593   3.527  24.152  0.00  0.00    +0.067 A 
ATOM      5  N   UNL     1       7.570   2.648  24.359  0.00  0.00    -0.338 N 
ATOM      6  H   UNL     1       6.643   2.865  24.706  0.00  0.00    +0.167 HD
ATOM      7  C   UNL     1       7.998   1.373  24.088  0.00  0.00    +0.143 A 
ATOM      8  N   UNL     1       9.247   1.406  23.643  0.00  0.00    -0.228 NA
ATOM      9  C   UNL     1       9.633   2.727  23.695  0.00  0.00    +0.090 A 
ATOM     10  C   UNL     1      10.863   3.323  23.381  0.00  0.00    +0.045 A 
ENDROOT
BRANCH   1  14
ATOM     11  N   UNL     1      12.818   5.370  22.025  0.00  0.00    -0.247 N 
ATOM     12  H   UNL     1      12.141   5.265  21.276  0.00  0.00    +0.288 HD
ATOM     13  H   UNL     1      13.488   6.101  21.824  0.00  0.00    +0.288 HD
ATOM     14  C   UNL     1      12.295   5.382  23.287  0.00  0.00    +0.308 C 
ATOM     15  N   UNL     1      12.913   5.997  24.240  0.00  0.00    -0.099 NA
ATOM     16  H   UNL     1      13.800   6.366  23.896  0.00  0.00    +0.363 HD
ENDBRANCH   1  14
BRANCH   7  17
ATOM     17  C   UNL     1       7.147   0.187  24.281  0.00  0.00    +0.059 A 
ATOM     18  C   UNL     1       7.261  -0.981  23.486  0.00  0.00    +0.135 A 
ATOM     19  C   UNL     1       6.482  -2.140  23.725  0.00  0.00    +0.024 A 
ATOM     20  C   UNL     1       5.504  -2.043  24.734  0.00  0.00    +0.012 A 
ATOM     21  C   UNL     1       5.338  -0.882  25.492  0.00  0.00    +0.002 A 
ATOM     22  C   UNL     1       6.170   0.214  25.281  0.00  0.00    +0.015 A 
BRANCH  19  23
ATOM     23  C   UNL     1       6.684  -3.437  23.018  0.00  0.00    -0.014 A 
ATOM     24  C   UNL     1       7.495  -4.455  23.560  0.00  0.00    +0.008 A 
ATOM     25  C   UNL     1       7.664  -5.684  22.914  0.00  0.00    +0.001 A 
ATOM     26  C   UNL     1       6.986  -5.947  21.730  0.00  0.00    +0.000 A 
ATOM     27  C   UNL     1       6.160  -4.973  21.181  0.00  0.00    +0.001 A 
ATOM     28  C   UNL     1       6.027  -3.728  21.808  0.00  0.00    +0.008 A 
ENDBRANCH  19  23
BRANCH  18  29
ATOM     29  O   UNL     1       8.147  -0.948  22.424  0.00  0.00    -0.505 OA
ATOM     30  H   UNL     1       8.261  -1.866  22.116  0.00  0.00    +0.292 HD
ENDBRANCH  18  29
ENDBRANCH   7  17
TORSDOF 4
ENDMDL
MODEL 3
REMARK VINA RESULT:      -7.7      2.730      3.948
REMARK  Name = 
REMARK  4 active torsions:
REMARK  status: ('A' for Active; 'I' for Inactive)
REMARK    1  A    between atoms: C_2  and  C_4
REMARK    2  A    between atoms: C_9  and  C_11
REMARK    3  A    between atoms: C_15  and  C_16
REMARK    4  A    between atoms: C_22  and  O_23
REMARK                            x       y       z     vdW  Elec       q    Type
REMARK                         _______ _______ _______ _____ _____    ______ ____
ROOT
ATOM      1  C   UNL     1       5.013  -6.108  24.819  0.00  0.00    +0.067 A 
ATOM      2  C   UNL     1       4.904  -6.452  23.464  0.00  0.00    +0.018 A 
ATOM      3  C   UNL     1       5.373  -5.603  22.460  0.00  0.00    +0.028 A 
ATOM      4  C   UNL     1       5.972  -4.418  22.885  0.00  0.00    +0.067 A 
ATOM      5  N   UNL     1       6.554  -3.393  22.197  0.00  0.00    -0.338 N 
ATOM      6  H   UNL     1       6.654  -3.314  21.192  0.00  0.00    +0.167 HD
ATOM      7  C   UNL     1       7.068  -2.480  23.084  0.00  0.00    +0.143 A 
ATOM      8  N   UNL     1       6.774  -2.846  24.323  0.00  0.00    -0.228 NA
ATOM      9  C   UNL     1       6.113  -4.050  24.217  0.00  0.00    +0.090 A 
ATOM     10  C   UNL     1       5.614  -4.899  25.215  0.00  0.00    +0.045 A 
ENDROOT
BRANCH   1  14
ATOM     11  N   UNL     1       5.033  -7.071  27.102  0.00  0.00    -0.247 N 
ATOM     12  H   UNL     1       5.451  -6.198  27.405  0.00  0.00    +0.288 HD
ATOM     13  H   UNL     1       4.443  -7.472  27.820  0.00  0.00    +0.288 HD
ATOM     14  C   UNL     1       4.501  -7.060  25.843  0.00  0.00    +0.308 C 
ATOM     15  N   UNL     1       3.536  -7.861  25.538  0.00  0.00    -0.099 NA
ATOM     16  H   UNL     1       3.331  -8.474  26.329  0.00  0.00    +0.363 HD
ENDBRANCH   1  14
BRANCH   7  17
ATOM     17  C   UNL     1       7.822  -1.290  22.656  0.00  0.00    +0.059 A 
ATOM     18  C   UNL     1       7.397   0.033  22.937  0.00  0.00    +0.135 A 
ATOM     19  C   UNL     1       8.166   1.169  22.578  0.00  0.00    +0.024 A 
ATOM     20  C   UNL     1       9.335   0.926  21.829  0.00  0.00    +0.012 A 
ATOM     21  C   UNL     1       9.741  -0.367  21.495  0.00  0.00    +0.002 A 
ATOM     22  C   UNL     1       9.002  -1.466  21.926  0.00  0.00    +0.015 A 
BRANCH  19  23
ATOM     23  C   UNL     1       7.835   2.561  22.995  0.00  0.00    -0.014 A 
ATOM     24  C   UNL     1       8.240   3.073  24.244  0.00  0.00    +0.008 A 
ATOM     25  C   UNL     1       7.957   4.389  24.628  0.00  0.00    +0.001 A 
ATOM     26  C   UNL     1       7.301   5.243  23.749  0.00  0.00    +0.000 A 
ATOM     27  C   UNL     1       6.909   4.776  22.500  0.00  0.00    +0.001 A 
ATOM     28  C   UNL     1       7.156   3.446  22.137  0.00  0.00    +0.008 A 
ENDBRANCH  19  23
BRANCH  18  29
ATOM     29  O   UNL     1       6.169   0.194  23.552  0.00  0.00    -0.505 OA
ATOM     30  H   UNL     1       5.937   1.139  23.487  0.00  0.00    +0.292 HD
ENDBRANCH  18  29
ENDBRANCH   7  17
TORSDOF 4
ENDMDL
MODEL 4
REMARK VINA RESULT:      -7.4      2.292      3.945
REMARK  Name = 
REMARK  4 active torsions:
REMARK  status: ('A' for Active; 'I' for Inactive)
REMARK    1  A    between atoms: C_2  and  C_4
REMARK    2  A    between atoms: C_9  and  C_11
REMARK    3  A    between atoms: C_15  and  C_16
REMARK    4  A    between atoms: C_22  and  O_23
REMARK                            x       y       z     vdW  Elec       q    Type
REMARK                         _______ _______ _______ _____ _____    ______ ____
ROOT
ATOM      1  C   UNL     1       6.071  -5.808  26.550  0.00  0.00    +0.067 A 
ATOM      2  C   UNL     1       7.297  -5.695  27.223  0.00  0.00    +0.018 A 
ATOM      3  C   UNL     1       8.280  -4.800  26.794  0.00  0.00    +0.028 A 
ATOM      4  C   UNL     1       7.959  -4.017  25.686  0.00  0.00    +0.067 A 
ATOM      5  N   UNL     1       8.650  -3.041  25.029  0.00  0.00    -0.338 N 
ATOM      6  H   UNL     1       9.578  -2.698  25.250  0.00  0.00    +0.167 HD
ATOM      7  C   UNL     1       7.866  -2.516  24.032  0.00  0.00    +0.143 A 
ATOM      8  N   UNL     1       6.715  -3.171  23.978  0.00  0.00    -0.228 NA
ATOM      9  C   UNL     1       6.751  -4.088  25.004  0.00  0.00    +0.090 A 
ATOM     10  C   UNL     1       5.783  -5.010  25.428  0.00  0.00    +0.045 A 
ENDROOT
BRANCH   1  14
ATOM     11  N   UNL     1       5.229  -7.369  28.281  0.00  0.00    -0.247 N 
ATOM     12  H   UNL     1       5.794  -6.847  28.943  0.00  0.00    +0.288 HD
ATOM     13  H   UNL     1       4.386  -7.728  28.710  0.00  0.00    +0.288 HD
ATOM     14  C   UNL     1       5.062  -6.775  27.061  0.00  0.00    +0.308 C 
ATOM     15  N   UNL     1       4.014  -7.033  26.351  0.00  0.00    -0.099 NA
ATOM     16  H   UNL     1       3.446  -7.742  26.818  0.00  0.00    +0.363 HD
ENDBRANCH   1  14
BRANCH   7  17
ATOM     17  C   UNL     1       8.299  -1.393  23.184  0.00  0.00    +0.059 A 
ATOM     18  C   UNL     1       7.892  -0.054  23.411  0.00  0.00    +0.135 A 
ATOM     19  C   UNL     1       8.369   1.027  22.628  0.00  0.00    +0.024 A 
ATOM     20  C   UNL     1       9.195   0.696  21.536  0.00  0.00    +0.012 A 
ATOM     21  C   UNL     1       9.563  -0.623  21.262  0.00  0.00    +0.002 A 
ATOM     22  C   UNL     1       9.136  -1.655  22.095  0.00  0.00    +0.015 A 
BRANCH  19  23
ATOM     23  C   UNL     1       8.093   2.459  22.935  0.00  0.00    -0.014 A 
ATOM     24  C   UNL     1       7.193   3.219  22.162  0.00  0.00    +0.008 A 
ATOM     25  C   UNL     1       6.907   4.555  22.464  0.00  0.00    +0.001 A 
ATOM     26  C   UNL     1       7.481   5.153  23.580  0.00  0.00    +0.000 A 
ATOM     27  C   UNL     1       8.355   4.423  24.378  0.00  0.00    +0.001 A 
ATOM     28  C   UNL     1       8.671   3.100  24.047  0.00  0.00    +0.008 A 
ENDBRANCH  19  23
BRANCH  18  29
ATOM     29  O   UNL     1       6.970   0.172  24.417  0.00  0.00    -0.505 OA
ATOM     30  H   UNL     1       6.728  -0.698  24.786  0.00  0.00    +0.292 HD
ENDBRANCH  18  29
ENDBRANCH   7  17
TORSDOF 4
ENDMDL
MODEL 5
REMARK VINA RESULT:      -7.3      1.639      2.071
REMARK  Name = 
REMARK  4 active torsions:
REMARK  status: ('A' for Active; 'I' for Inactive)
REMARK    1  A    between atoms: C_2  and  C_4
REMARK    2  A    between atoms: C_9  and  C_11
REMARK    3  A    between atoms: C_15  and  C_16
REMARK    4  A    between atoms: C_22  and  O_23
REMARK                            x       y       z     vdW  Elec       q    Type
REMARK                         _______ _______ _______ _____ _____    ______ ____
ROOT
ATOM      1  C   UNL     1       6.518  -4.030  26.037  0.00  0.00    +0.067 A 
ATOM      2  C   UNL     1       5.171  -3.642  26.085  0.00  0.00    +0.018 A 
ATOM      3  C   UNL     1       4.769  -2.367  25.681  0.00  0.00    +0.028 A 
ATOM      4  C   UNL     1       5.774  -1.525  25.208  0.00  0.00    +0.067 A 
ATOM      5  N   UNL     1       5.741  -0.253  24.716  0.00  0.00    -0.338 N 
ATOM      6  H   UNL     1       4.924   0.336  24.604  0.00  0.00    +0.167 HD
ATOM      7  C   UNL     1       7.000   0.115  24.310  0.00  0.00    +0.143 A 
ATOM      8  N   UNL     1       7.860  -0.854  24.592  0.00  0.00    -0.228 NA
ATOM      9  C   UNL     1       7.115  -1.879  25.130  0.00  0.00    +0.090 A 
ATOM     10  C   UNL     1       7.510  -3.153  25.564  0.00  0.00    +0.045 A 
ENDROOT
BRANCH   1  14
ATOM     11  N   UNL     1       8.120  -5.662  26.991  0.00  0.00    -0.247 N 
ATOM     12  H   UNL     1       8.583  -4.868  27.422  0.00  0.00    +0.288 HD
ATOM     13  H   UNL     1       8.190  -6.492  27.566  0.00  0.00    +0.288 HD
ATOM     14  C   UNL     1       6.881  -5.406  26.474  0.00  0.00    +0.308 C 
ATOM     15  N   UNL     1       6.009  -6.353  26.380  0.00  0.00    -0.099 NA
ATOM     16  H   UNL     1       6.424  -7.237  26.679  0.00  0.00    +0.363 HD
ENDBRANCH   1  14
BRANCH   7  17
ATOM     17  C   UNL     1       7.285   1.408  23.667  0.00  0.00    +0.059 A 
ATOM     18  C   UNL     1       8.378   2.230  24.041  0.00  0.00    +0.135 A 
ATOM     19  C   UNL     1       8.681   3.441  23.369  0.00  0.00    +0.024 A 
ATOM     20  C   UNL     1       7.776   3.849  22.369  0.00  0.00    +0.012 A 
ATOM     21  C   UNL     1       6.663   3.079  22.023  0.00  0.00    +0.002 A 
ATOM     22  C   UNL     1       6.435   1.859  22.652  0.00  0.00    +0.015 A 
BRANCH  19  23
ATOM     23  C   UNL     1       9.908   4.248  23.626  0.00  0.00    -0.014 A 
ATOM     24  C   UNL     1      11.177   3.821  23.186  0.00  0.00    +0.008 A 
ATOM     25  C   UNL     1      12.327   4.588  23.398  0.00  0.00    +0.001 A 
ATOM     26  C   UNL     1      12.230   5.830  24.015  0.00  0.00    +0.000 A 
ATOM     27  C   UNL     1      10.989   6.291  24.440  0.00  0.00    +0.001 A 
ATOM     28  C   UNL     1       9.847   5.500  24.264  0.00  0.00    +0.008 A 
ENDBRANCH  19  23
BRANCH  18  29
ATOM     29  O   UNL     1       9.137   1.830  25.125  0.00  0.00    -0.505 OA
ATOM     30  H   UNL     1      10.008   1.555  24.781  0.00  0.00    +0.292 HD
ENDBRANCH  18  29
ENDBRANCH   7  17
TORSDOF 4
ENDMDL
MODEL 6
REMARK VINA RESULT:      -7.2      3.330      9.035
REMARK  Name = 
REMARK  4 active torsions:
REMARK  status: ('A' for Active; 'I' for Inactive)
REMARK    1  A    between atoms: C_2  and  C_4
REMARK    2  A    between atoms: C_9  and  C_11
REMARK    3  A    between atoms: C_15  and  C_16
REMARK    4  A    between atoms: C_22  and  O_23
REMARK                            x       y       z     vdW  Elec       q    Type
REMARK                         _______ _______ _______ _____ _____    ______ ____
ROOT
ATOM      1  C   UNL     1      10.162   2.369  23.320  0.00  0.00    +0.067 A 
ATOM      2  C   UNL     1      10.186   1.773  22.050  0.00  0.00    +0.018 A 
ATOM      3  C   UNL     1       9.818   0.438  21.869  0.00  0.00    +0.028 A 
ATOM      4  C   UNL     1       9.405  -0.248  23.010  0.00  0.00    +0.067 A 
ATOM      5  N   UNL     1       8.959  -1.524  23.195  0.00  0.00    -0.338 N 
ATOM      6  H   UNL     1       8.846  -2.238  22.485  0.00  0.00    +0.167 HD
ATOM      7  C   UNL     1       8.603  -1.699  24.509  0.00  0.00    +0.143 A 
ATOM      8  N   UNL     1       8.873  -0.598  25.195  0.00  0.00    -0.228 NA
ATOM      9  C   UNL     1       9.352   0.312  24.280  0.00  0.00    +0.090 A 
ATOM     10  C   UNL     1       9.750   1.646  24.453  0.00  0.00    +0.045 A 
ENDROOT
BRANCH   1  14
ATOM     11  N   UNL     1       9.729   4.693  24.064  0.00  0.00    -0.247 N 
ATOM     12  H   UNL     1       9.092   4.294  24.746  0.00  0.00    +0.288 HD
ATOM     13  H   UNL     1      10.176   5.530  24.415  0.00  0.00    +0.288 HD
ATOM     14  C   UNL     1      10.558   3.798  23.446  0.00  0.00    +0.308 C 
ATOM     15  N   UNL     1      11.701   4.183  22.985  0.00  0.00    -0.099 NA
ATOM     16  H   UNL     1      11.803   5.192  23.111  0.00  0.00    +0.363 HD
ENDBRANCH   1  14
BRANCH   7  17
ATOM     17  C   UNL     1       8.016  -2.950  25.016  0.00  0.00    +0.059 A 
ATOM     18  C   UNL     1       6.695  -3.362  24.709  0.00  0.00    +0.135 A 
ATOM     19  C   UNL     1       6.164  -4.600  25.149  0.00  0.00    +0.024 A 
ATOM     20  C   UNL     1       6.982  -5.367  26.002  0.00  0.00    +0.012 A 
ATOM     21  C   UNL     1       8.266  -4.954  26.361  0.00  0.00    +0.002 A 
ATOM     22  C   UNL     1       8.786  -3.766  25.852  0.00  0.00    +0.015 A 
BRANCH  19  23
ATOM     23  C   UNL     1       4.843  -5.138  24.715  0.00  0.00    -0.014 A 
ATOM     24  C   UNL     1       3.720  -5.110  25.565  0.00  0.00    +0.008 A 
ATOM     25  C   UNL     1       2.471  -5.587  25.152  0.00  0.00    +0.001 A 
ATOM     26  C   UNL     1       2.301  -6.060  23.857  0.00  0.00    +0.000 A 
ATOM     27  C   UNL     1       3.384  -6.079  22.985  0.00  0.00    +0.001 A 
ATOM     28  C   UNL     1       4.642  -5.642  23.416  0.00  0.00    +0.008 A 
ENDBRANCH  19  23
BRANCH  18  29
ATOM     29  O   UNL     1       5.906  -2.488  23.982  0.00  0.00    -0.505 OA
ATOM     30  H   UNL     1       6.507  -1.937  23.447  0.00  0.00    +0.292 HD
ENDBRANCH  18  29
ENDBRANCH   7  17
TORSDOF 4
ENDMDL
MODEL 7
REMARK VINA RESULT:      -7.2      3.464      9.304
REMARK  Name = 
REMARK  4 active torsions:
REMARK  status: ('A' for Active; 'I' for Inactive)
REMARK    1  A    between atoms: C_2  and  C_4
REMARK    2  A    between atoms: C_9  and  C_11
REMARK    3  A    between atoms: C_15  and  C_16
REMARK    4  A    between atoms: C_22  and  O_23
REMARK                            x       y       z     vdW  Elec       q    Type
REMARK                         _______ _______ _______ _____ _____    ______ ____
ROOT
ATOM      1  C   UNL     1       8.394   2.244  22.439  0.00  0.00    +0.067 A 
ATOM      2  C   UNL     1       9.534   1.686  21.844  0.00  0.00    +0.018 A 
ATOM      3  C   UNL     1       9.699   0.302  21.748  0.00  0.00    +0.028 A 
ATOM      4  C   UNL     1       8.660  -0.478  22.251  0.00  0.00    +0.067 A 
ATOM      5  N   UNL     1       8.474  -1.829  22.296  0.00  0.00    -0.338 N 
ATOM      6  H   UNL     1       9.105  -2.543  21.950  0.00  0.00    +0.167 HD
ATOM      7  C   UNL     1       7.241  -2.105  22.833  0.00  0.00    +0.143 A 
ATOM      8  N   UNL     1       6.652  -0.976  23.202  0.00  0.00    -0.228 NA
ATOM      9  C   UNL     1       7.508   0.037  22.832  0.00  0.00    +0.090 A 
ATOM     10  C   UNL     1       7.368   1.428  22.947  0.00  0.00    +0.045 A 
ENDROOT
BRANCH   1  14
ATOM     11  N   UNL     1       7.273   4.368  21.829  0.00  0.00    -0.247 N 
ATOM     12  H   UNL     1       6.443   3.812  21.652  0.00  0.00    +0.288 HD
ATOM     13  H   UNL     1       7.039   5.291  22.172  0.00  0.00    +0.288 HD
ATOM     14  C   UNL     1       8.274   3.726  22.504  0.00  0.00    +0.308 C 
ATOM     15  N   UNL     1       9.110   4.400  23.221  0.00  0.00    -0.099 NA
ATOM     16  H   UNL     1       8.920   5.399  23.127  0.00  0.00    +0.363 HD
ENDBRANCH   1  14
BRANCH   7  17
ATOM     17  C   UNL     1       6.711  -3.473  22.953  0.00  0.00    +0.059 A 
ATOM     18  C   UNL     1       6.091  -3.958  24.132  0.00  0.00    +0.135 A 
ATOM     19  C   UNL     1       5.525  -5.255  24.214  0.00  0.00    +0.024 A 
ATOM     20  C   UNL     1       5.700  -6.089  23.091  0.00  0.00    +0.012 A 
ATOM     21  C   UNL     1       6.355  -5.648  21.940  0.00  0.00    +0.002 A 
ATOM     22  C   UNL     1       6.836  -4.343  21.865  0.00  0.00    +0.015 A 
BRANCH  19  23
ATOM     23  C   UNL     1       4.727  -5.741  25.375  0.00  0.00    -0.014 A 
ATOM     24  C   UNL     1       3.319  -5.687  25.377  0.00  0.00    +0.008 A 
ATOM     25  C   UNL     1       2.565  -6.169  26.453  0.00  0.00    +0.001 A 
ATOM     26  C   UNL     1       3.200  -6.764  27.536  0.00  0.00    +0.000 A 
ATOM     27  C   UNL     1       4.587  -6.855  27.554  0.00  0.00    +0.001 A 
ATOM     28  C   UNL     1       5.340  -6.332  26.496  0.00  0.00    +0.008 A 
ENDBRANCH  19  23
BRANCH  18  29
ATOM     29  O   UNL     1       6.083  -3.127  25.238  0.00  0.00    -0.505 OA
ATOM     30  H   UNL     1       7.007  -3.048  25.544  0.00  0.00    +0.292 HD
ENDBRANCH  18  29
ENDBRANCH   7  17
TORSDOF 4
ENDMDL
MODEL 8
REMARK VINA RESULT:      -7.1      3.385      8.859
REMARK  Name = 
REMARK  4 active torsions:
REMARK  status: ('A' for Active; 'I' for Inactive)
REMARK    1  A    between atoms: C_2  and  C_4
REMARK    2  A    between atoms: C_9  and  C_11
REMARK    3  A    between atoms: C_15  and  C_16
REMARK    4  A    between atoms: C_22  and  O_23
REMARK                            x       y       z     vdW  Elec       q    Type
REMARK                         _______ _______ _______ _____ _____    ______ ____
ROOT
ATOM      1  C   UNL     1      10.235   2.396  23.230  0.00  0.00    +0.067 A 
ATOM      2  C   UNL     1      10.066   1.811  21.967  0.00  0.00    +0.018 A 
ATOM      3  C   UNL     1       9.727   0.463  21.831  0.00  0.00    +0.028 A 
ATOM      4  C   UNL     1       9.545  -0.249  23.016  0.00  0.00    +0.067 A 
ATOM      5  N   UNL     1       9.189  -1.544  23.256  0.00  0.00    -0.338 N 
ATOM      6  H   UNL     1       8.986  -2.257  22.565  0.00  0.00    +0.167 HD
ATOM      7  C   UNL     1       9.071  -1.744  24.609  0.00  0.00    +0.143 A 
ATOM      8  N   UNL     1       9.410  -0.637  25.255  0.00  0.00    -0.228 NA
ATOM      9  C   UNL     1       9.687   0.300  24.285  0.00  0.00    +0.090 A 
ATOM     10  C   UNL     1      10.054   1.648  24.407  0.00  0.00    +0.045 A 
ENDROOT
BRANCH   1  14
ATOM     11  N   UNL     1       9.617   4.778  23.523  0.00  0.00    -0.247 N 
ATOM     12  H   UNL     1       8.792   4.444  24.009  0.00  0.00    +0.288 HD
ATOM     13  H   UNL     1       9.940   5.661  23.897  0.00  0.00    +0.288 HD
ATOM     14  C   UNL     1      10.588   3.840  23.308  0.00  0.00    +0.308 C 
ATOM     15  N   UNL     1      11.823   4.199  23.192  0.00  0.00    -0.099 NA
ATOM     16  H   UNL     1      11.893   5.217  23.225  0.00  0.00    +0.363 HD
ENDBRANCH   1  14
BRANCH   7  17
ATOM     17  C   UNL     1       8.632  -3.023  25.191  0.00  0.00    +0.059 A 
ATOM     18  C   UNL     1       7.455  -3.150  25.970  0.00  0.00    +0.135 A 
ATOM     19  C   UNL     1       7.007  -4.399  26.469  0.00  0.00    +0.024 A 
ATOM     20  C   UNL     1       7.848  -5.506  26.241  0.00  0.00    +0.012 A 
ATOM     21  C   UNL     1       9.040  -5.390  25.523  0.00  0.00    +0.002 A 
ATOM     22  C   UNL     1       9.415  -4.163  24.983  0.00  0.00    +0.015 A 
BRANCH  19  23
ATOM     23  C   UNL     1       5.696  -4.599  27.152  0.00  0.00    -0.014 A 
ATOM     24  C   UNL     1       4.496  -4.721  26.424  0.00  0.00    +0.008 A 
ATOM     25  C   UNL     1       3.268  -4.938  27.058  0.00  0.00    +0.001 A 
ATOM     26  C   UNL     1       3.216  -5.087  28.439  0.00  0.00    +0.000 A 
ATOM     27  C   UNL     1       4.386  -4.995  29.185  0.00  0.00    +0.001 A 
ATOM     28  C   UNL     1       5.606  -4.735  28.550  0.00  0.00    +0.008 A 
ENDBRANCH  19  23
BRANCH  18  29
ATOM     29  O   UNL     1       6.757  -1.994  26.268  0.00  0.00    -0.505 OA
ATOM     30  H   UNL     1       7.068  -1.688  27.141  0.00  0.00    +0.292 HD
ENDBRANCH  18  29
ENDBRANCH   7  17
TORSDOF 4
ENDMDL
MODEL 9
REMARK VINA RESULT:      -7.1      2.956      9.160
REMARK  Name = 
REMARK  4 active torsions:
REMARK  status: ('A' for Active; 'I' for Inactive)
REMARK    1  A    between atoms: C_2  and  C_4
REMARK    2  A    between atoms: C_9  and  C_11
REMARK    3  A    between atoms: C_15  and  C_16
REMARK    4  A    between atoms: C_22  and  O_23
REMARK                            x       y       z     vdW  Elec       q    Type
REMARK                         _______ _______ _______ _____ _____    ______ ____
ROOT
ATOM      1  C   UNL     1       8.469   3.428  23.417  0.00  0.00    +0.067 A 
ATOM      2  C   UNL     1       7.534   3.101  22.425  0.00  0.00    +0.018 A 
ATOM      3  C   UNL     1       7.182   1.773  22.168  0.00  0.00    +0.028 A 
ATOM      4  C   UNL     1       7.793   0.809  22.968  0.00  0.00    +0.067 A 
ATOM      5  N   UNL     1       7.667  -0.549  23.015  0.00  0.00    -0.338 N 
ATOM      6  H   UNL     1       7.069  -1.125  22.435  0.00  0.00    +0.167 HD
ATOM      7  C   UNL     1       8.436  -1.046  24.038  0.00  0.00    +0.143 A 
ATOM      8  N   UNL     1       9.111  -0.058  24.609  0.00  0.00    -0.228 NA
ATOM      9  C   UNL     1       8.711   1.094  23.971  0.00  0.00    +0.090 A 
ATOM     10  C   UNL     1       9.075   2.429  24.200  0.00  0.00    +0.045 A 
ENDROOT
BRANCH   1  14
ATOM     11  N   UNL     1       8.674   5.769  22.633  0.00  0.00    -0.247 N 
ATOM     12  H   UNL     1       8.006   5.525  21.910  0.00  0.00    +0.288 HD
ATOM     13  H   UNL     1       8.576   6.734  22.922  0.00  0.00    +0.288 HD
ATOM     14  C   UNL     1       8.796   4.861  23.648  0.00  0.00    +0.308 C 
ATOM     15  N   UNL     1       9.175   5.245  24.821  0.00  0.00    -0.099 NA
ATOM     16  H   UNL     1       9.400   6.242  24.803  0.00  0.00    +0.363 HD
ENDBRANCH   1  14
BRANCH   7  17
ATOM     17  C   UNL     1       8.463  -2.474  24.395  0.00  0.00    +0.059 A 
ATOM     18  C   UNL     1       7.292  -3.218  24.685  0.00  0.00    +0.135 A 
ATOM     19  C   UNL     1       7.326  -4.607  24.962  0.00  0.00    +0.024 A 
ATOM     20  C   UNL     1       8.600  -5.203  25.039  0.00  0.00    +0.012 A 
ATOM     21  C   UNL     1       9.769  -4.475  24.811  0.00  0.00    +0.002 A 
ATOM     22  C   UNL     1       9.698  -3.127  24.469  0.00  0.00    +0.015 A 
BRANCH  19  23
ATOM     23  C   UNL     1       6.107  -5.453  25.113  0.00  0.00    -0.014 A 
ATOM     24  C   UNL     1       5.357  -5.873  23.995  0.00  0.00    +0.008 A 
ATOM     25  C   UNL     1       4.230  -6.691  24.129  0.00  0.00    +0.001 A 
ATOM     26  C   UNL     1       3.852  -7.152  25.384  0.00  0.00    +0.000 A 
ATOM     27  C   UNL     1       4.584  -6.776  26.504  0.00  0.00    +0.001 A 
ATOM     28  C   UNL     1       5.685  -5.922  26.371  0.00  0.00    +0.008 A 
ENDBRANCH  19  23
BRANCH  18  29
ATOM     29  O   UNL     1       6.092  -2.531  24.727  0.00  0.00    -0.505 OA
ATOM     30  H   UNL     1       5.862  -2.299  23.808  0.00  0.00    +0.292 HD
ENDBRANCH  18  29
ENDBRANCH   7  17
TORSDOF 4
ENDMDL
