MODEL 1
REMARK VINA RESULT:      -7.1      0.000      0.000
REMARK  Name = 
REMARK  4 active torsions:
REMARK  status: ('A' for Active; 'I' for Inactive)
REMARK    1  A    between atoms: C_2  and  C_3
REMARK    2  A    between atoms: C_3  and  N_4
REMARK    3  A    between atoms: N_6  and  C_10
REMARK    4  A    between atoms: C_11  and  C_19
REMARK                            x       y       z     vdW  Elec       q    Type
REMARK                         _______ _______ _______ _____ _____    ______ ____
ROOT
ATOM      1  C   UNL     1       8.208  -2.239  25.528  0.00  0.00    +0.051 A 
ATOM      2  C   UNL     1       8.068  -3.538  26.110  0.00  0.00    +0.060 A 
ATOM      3  C   UNL     1       7.286  -4.158  27.125  0.00  0.00    +0.146 A 
ATOM      4  N   UNL     1       7.504  -5.474  27.249  0.00  0.00    -0.180 NA
ATOM      5  N   UNL     1       8.463  -5.699  26.335  0.00  0.00    -0.260 N 
ATOM      6  H   UNL     1       8.816  -6.638  26.209  0.00  0.00    +0.191 HD
ATOM      7  C   UNL     1       8.856  -4.586  25.656  0.00  0.00    +0.157 A 
ATOM      8  N   UNL     1       9.804  -4.551  24.716  0.00  0.00    -0.235 NA
ATOM      9  C   UNL     1       9.962  -3.308  24.203  0.00  0.00    +0.123 A 
ATOM     10  C   UNL     1       9.253  -2.134  24.534  0.00  0.00    +0.022 A 
ENDROOT
BRANCH   1  15
ATOM     11  C   UNL     1       5.659   0.370  24.940  0.00  0.00    +0.149 C 
ATOM     12  O   UNL     1       5.718   1.150  26.154  0.00  0.00    -0.372 OA
ATOM     13  C   UNL     1       6.901   0.950  26.949  0.00  0.00    +0.179 C 
ATOM     14  C   UNL     1       7.312  -0.533  27.150  0.00  0.00    +0.133 C 
ATOM     15  N   UNL     1       7.330  -1.198  25.836  0.00  0.00    -0.324 N 
ATOM     16  C   UNL     1       6.002  -1.105  25.201  0.00  0.00    +0.138 C 
BRANCH  11  17
ATOM     17  C   UNL     1       6.475   0.952  23.757  0.00  0.00    +0.111 C 
BRANCH  17  18
ATOM     18  N   UNL     1       5.682   1.838  22.888  0.00  0.00    -0.328 NA
ATOM     19  H   UNL     1       6.284   2.236  22.164  0.00  0.00    +0.118 HD
ATOM     20  H   UNL     1       5.358   2.641  23.428  0.00  0.00    +0.118 HD
ENDBRANCH  17  18
ENDBRANCH  11  17
ENDBRANCH   1  15
BRANCH  10  21
ATOM     21  C   UNL     1       9.625  -0.893  23.783  0.00  0.00    -0.015 A 
ATOM     22  C   UNL     1       9.466  -0.787  22.397  0.00  0.00    +0.008 A 
ATOM     23  C   UNL     1       9.655   0.417  21.710  0.00  0.00    +0.001 A 
ATOM     24  C   UNL     1      10.132   1.531  22.385  0.00  0.00    +0.000 A 
ATOM     25  C   UNL     1      10.430   1.429  23.739  0.00  0.00    +0.001 A 
ATOM     26  C   UNL     1      10.163   0.238  24.431  0.00  0.00    +0.008 A 
ENDBRANCH  10  21
TORSDOF 4
ENDMDL
MODEL 2
REMARK VINA RESULT:      -6.8      3.052      5.505
REMARK  Name = 
REMARK  4 active torsions:
REMARK  status: ('A' for Active; 'I' for Inactive)
REMARK    1  A    between atoms: C_2  and  C_3
REMARK    2  A    between atoms: C_3  and  N_4
REMARK    3  A    between atoms: N_6  and  C_10
REMARK    4  A    between atoms: C_11  and  C_19
REMARK                            x       y       z     vdW  Elec       q    Type
REMARK                         _______ _______ _______ _____ _____    ______ ____
ROOT
ATOM      1  C   UNL     1       8.188  -2.117  24.430  0.00  0.00    +0.051 A 
ATOM      2  C   UNL     1       9.171  -1.078  24.433  0.00  0.00    +0.060 A 
ATOM      3  C   UNL     1       9.794  -0.221  25.384  0.00  0.00    +0.146 A 
ATOM      4  N   UNL     1      10.736   0.574  24.861  0.00  0.00    -0.180 NA
ATOM      5  N   UNL     1      10.696   0.257  23.556  0.00  0.00    -0.260 N 
ATOM      6  H   UNL     1      11.329   0.715  22.914  0.00  0.00    +0.191 HD
ATOM      7  C   UNL     1       9.768  -0.689  23.242  0.00  0.00    +0.157 A 
ATOM      8  N   UNL     1       9.524  -1.154  22.014  0.00  0.00    -0.235 NA
ATOM      9  C   UNL     1       8.561  -2.104  22.014  0.00  0.00    +0.123 A 
ATOM     10  C   UNL     1       7.854  -2.626  23.118  0.00  0.00    +0.022 A 
ENDROOT
BRANCH   1  15
ATOM     11  C   UNL     1       7.451  -4.686  26.981  0.00  0.00    +0.149 C 
ATOM     12  O   UNL     1       6.455  -4.039  27.803  0.00  0.00    -0.372 OA
ATOM     13  C   UNL     1       5.824  -2.892  27.206  0.00  0.00    +0.179 C 
ATOM     14  C   UNL     1       6.793  -1.896  26.515  0.00  0.00    +0.133 C 
ATOM     15  N   UNL     1       7.682  -2.652  25.616  0.00  0.00    -0.324 N 
ATOM     16  C   UNL     1       8.432  -3.668  26.379  0.00  0.00    +0.138 C 
BRANCH  11  17
ATOM     17  C   UNL     1       6.877  -5.643  25.904  0.00  0.00    +0.111 C 
BRANCH  17  18
ATOM     18  N   UNL     1       5.722  -6.423  26.381  0.00  0.00    -0.328 NA
ATOM     19  H   UNL     1       5.573  -6.240  27.375  0.00  0.00    +0.118 HD
ATOM     20  H   UNL     1       5.940  -7.418  26.328  0.00  0.00    +0.118 HD
ENDBRANCH  17  18
ENDBRANCH  11  17
ENDBRANCH   1  15
BRANCH  10  21
ATOM     21  C   UNL     1       6.851  -3.698  22.825  0.00  0.00    -0.015 A 
ATOM     22  C   UNL     1       7.211  -4.909  22.224  0.00  0.00    +0.008 A 
ATOM     23  C   UNL     1       6.317  -5.977  22.094  0.00  0.00    +0.001 A 
ATOM     24  C   UNL     1       4.989  -5.816  22.460  0.00  0.00    +0.000 A 
ATOM     25  C   UNL     1       4.561  -4.583  22.937  0.00  0.00    +0.001 A 
ATOM     26  C   UNL     1       5.483  -3.545  23.133  0.00  0.00    +0.008 A 
ENDBRANCH  10  21
TORSDOF 4
ENDMDL
MODEL 3
REMARK VINA RESULT:      -6.2      4.048      6.484
REMARK  Name = 
REMARK  4 active torsions:
REMARK  status: ('A' for Active; 'I' for Inactive)
REMARK    1  A    between atoms: C_2  and  C_3
REMARK    2  A    between atoms: C_3  and  N_4
REMARK    3  A    between atoms: N_6  and  C_10
REMARK    4  A    between atoms: C_11  and  C_19
REMARK                            x       y       z     vdW  Elec       q    Type
REMARK                         _______ _______ _______ _____ _____    ______ ____
ROOT
ATOM      1  C   UNL     1       8.686   3.454  23.580  0.00  0.00    +0.051 A 
ATOM      2  C   UNL     1       8.923   4.838  23.852  0.00  0.00    +0.060 A 
ATOM      3  C   UNL     1       8.154   5.997  24.157  0.00  0.00    +0.146 A 
ATOM      4  N   UNL     1       8.891   7.090  24.392  0.00  0.00    -0.180 NA
ATOM      5  N   UNL     1      10.144   6.644  24.200  0.00  0.00    -0.260 N 
ATOM      6  H   UNL     1      10.921   7.280  24.325  0.00  0.00    +0.191 HD
ATOM      7  C   UNL     1      10.220   5.331  23.848  0.00  0.00    +0.157 A 
ATOM      8  N   UNL     1      11.348   4.666  23.584  0.00  0.00    -0.235 NA
ATOM      9  C   UNL     1      11.111   3.369  23.283  0.00  0.00    +0.123 A 
ATOM     10  C   UNL     1       9.872   2.696  23.244  0.00  0.00    +0.022 A 
ENDROOT
BRANCH   1  15
ATOM     11  C   UNL     1       5.057   2.991  23.064  0.00  0.00    +0.149 C 
ATOM     12  O   UNL     1       4.697   2.096  24.139  0.00  0.00    -0.372 OA
ATOM     13  C   UNL     1       5.661   2.003  25.203  0.00  0.00    +0.179 C 
ATOM     14  C   UNL     1       7.134   1.846  24.741  0.00  0.00    +0.133 C 
ATOM     15  N   UNL     1       7.423   2.881  23.733  0.00  0.00    -0.324 N 
ATOM     16  C   UNL     1       6.499   2.749  22.590  0.00  0.00    +0.138 C 
BRANCH  11  17
ATOM     17  C   UNL     1       4.788   4.490  23.354  0.00  0.00    +0.111 C 
BRANCH  17  18
ATOM     18  N   UNL     1       5.065   5.360  22.198  0.00  0.00    -0.328 NA
ATOM     19  H   UNL     1       4.341   5.229  21.490  0.00  0.00    +0.118 HD
ATOM     20  H   UNL     1       5.929   5.060  21.747  0.00  0.00    +0.118 HD
ENDBRANCH  17  18
ENDBRANCH  11  17
ENDBRANCH   1  15
BRANCH  10  21
ATOM     21  C   UNL     1       9.910   1.239  22.900  0.00  0.00    -0.015 A 
ATOM     22  C   UNL     1      10.364   0.273  23.805  0.00  0.00    +0.008 A 
ATOM     23  C   UNL     1      10.252  -1.099  23.556  0.00  0.00    +0.001 A 
ATOM     24  C   UNL     1       9.787  -1.544  22.328  0.00  0.00    +0.000 A 
ATOM     25  C   UNL     1       9.452  -0.613  21.351  0.00  0.00    +0.001 A 
ATOM     26  C   UNL     1       9.497   0.759  21.640  0.00  0.00    +0.008 A 
ENDBRANCH  10  21
TORSDOF 4
ENDMDL
MODEL 4
REMARK VINA RESULT:      -6.2      2.408      4.958
REMARK  Name = 
REMARK  4 active torsions:
REMARK  status: ('A' for Active; 'I' for Inactive)
REMARK    1  A    between atoms: C_2  and  C_3
REMARK    2  A    between atoms: C_3  and  N_4
REMARK    3  A    between atoms: N_6  and  C_10
REMARK    4  A    between atoms: C_11  and  C_19
REMARK                            x       y       z     vdW  Elec       q    Type
REMARK                         _______ _______ _______ _____ _____    ______ ____
ROOT
ATOM      1  C   UNL     1       8.017  -0.374  23.812  0.00  0.00    +0.051 A 
ATOM      2  C   UNL     1       8.228   0.807  23.032  0.00  0.00    +0.060 A 
ATOM      3  C   UNL     1       7.824   2.171  23.058  0.00  0.00    +0.146 A 
ATOM      4  N   UNL     1       8.369   2.917  22.089  0.00  0.00    -0.180 NA
ATOM      5  N   UNL     1       9.102   2.020  21.407  0.00  0.00    -0.260 N 
ATOM      6  H   UNL     1       9.641   2.325  20.608  0.00  0.00    +0.191 HD
ATOM      7  C   UNL     1       9.030   0.752  21.901  0.00  0.00    +0.157 A 
ATOM      8  N   UNL     1       9.650  -0.312  21.386  0.00  0.00    -0.235 NA
ATOM      9  C   UNL     1       9.408  -1.434  22.103  0.00  0.00    +0.123 A 
ATOM     10  C   UNL     1       8.631  -1.568  23.273  0.00  0.00    +0.022 A 
ENDROOT
BRANCH   1  15
ATOM     11  C   UNL     1       5.278   0.290  26.200  0.00  0.00    +0.149 C 
ATOM     12  O   UNL     1       5.935   0.157  27.479  0.00  0.00    -0.372 OA
ATOM     13  C   UNL     1       7.372   0.215  27.435  0.00  0.00    +0.179 C 
ATOM     14  C   UNL     1       8.028  -0.637  26.316  0.00  0.00    +0.133 C 
ATOM     15  N   UNL     1       7.356  -0.335  25.040  0.00  0.00    -0.324 N 
ATOM     16  C   UNL     1       5.914  -0.627  25.143  0.00  0.00    +0.138 C 
BRANCH  11  17
ATOM     17  C   UNL     1       5.140   1.748  25.693  0.00  0.00    +0.111 C 
BRANCH  17  18
ATOM     18  N   UNL     1       4.538   1.839  24.351  0.00  0.00    -0.328 NA
ATOM     19  H   UNL     1       5.270   2.008  23.659  0.00  0.00    +0.118 HD
ATOM     20  H   UNL     1       3.939   2.662  24.303  0.00  0.00    +0.118 HD
ENDBRANCH  17  18
ENDBRANCH  11  17
ENDBRANCH   1  15
BRANCH  10  21
ATOM     21  C   UNL     1       8.556  -2.938  23.874  0.00  0.00    -0.015 A 
ATOM     22  C   UNL     1       9.634  -3.509  24.558  0.00  0.00    +0.008 A 
ATOM     23  C   UNL     1       9.523  -4.714  25.261  0.00  0.00    +0.001 A 
ATOM     24  C   UNL     1       8.347  -5.447  25.195  0.00  0.00    +0.000 A 
ATOM     25  C   UNL     1       7.297  -4.978  24.415  0.00  0.00    +0.001 A 
ATOM     26  C   UNL     1       7.395  -3.732  23.778  0.00  0.00    +0.008 A 
ENDBRANCH  10  21
TORSDOF 4
ENDMDL
MODEL 5
REMARK VINA RESULT:      -6.1      1.142      2.032
REMARK  Name = 
REMARK  4 active torsions:
REMARK  status: ('A' for Active; 'I' for Inactive)
REMARK    1  A    between atoms: C_2  and  C_3
REMARK    2  A    between atoms: C_3  and  N_4
REMARK    3  A    between atoms: N_6  and  C_10
REMARK    4  A    between atoms: C_11  and  C_19
REMARK                            x       y       z     vdW  Elec       q    Type
REMARK                         _______ _______ _______ _____ _____    ______ ____
ROOT
ATOM      1  C   UNL     1       8.156  -1.903  25.311  0.00  0.00    +0.051 A 
ATOM      2  C   UNL     1       8.072  -3.168  25.974  0.00  0.00    +0.060 A 
ATOM      3  C   UNL     1       7.319  -3.754  27.030  0.00  0.00    +0.146 A 
ATOM      4  N   UNL     1       7.592  -5.048  27.238  0.00  0.00    -0.180 NA
ATOM      5  N   UNL     1       8.558  -5.292  26.335  0.00  0.00    -0.260 N 
ATOM      6  H   UNL     1       8.950  -6.221  26.267  0.00  0.00    +0.191 HD
ATOM      7  C   UNL     1       8.903  -4.209  25.584  0.00  0.00    +0.157 A 
ATOM      8  N   UNL     1       9.846  -4.194  24.639  0.00  0.00    -0.235 NA
ATOM      9  C   UNL     1       9.950  -2.981  24.048  0.00  0.00    +0.123 A 
ATOM     10  C   UNL     1       9.194  -1.819  24.306  0.00  0.00    +0.022 A 
ENDROOT
BRANCH   1  15
ATOM     11  C   UNL     1       6.717   1.084  26.940  0.00  0.00    +0.149 C 
ATOM     12  O   UNL     1       5.355   1.080  26.461  0.00  0.00    -0.372 OA
ATOM     13  C   UNL     1       4.910  -0.168  25.899  0.00  0.00    +0.179 C 
ATOM     14  C   UNL     1       5.909  -0.837  24.917  0.00  0.00    +0.133 C 
ATOM     15  N   UNL     1       7.236  -0.883  25.555  0.00  0.00    -0.324 N 
ATOM     16  C   UNL     1       7.679   0.480  25.905  0.00  0.00    +0.138 C 
BRANCH  11  17
ATOM     17  C   UNL     1       6.910   0.456  28.344  0.00  0.00    +0.111 C 
BRANCH  17  18
ATOM     18  N   UNL     1       7.920   1.157  29.156  0.00  0.00    -0.328 NA
ATOM     19  H   UNL     1       8.819   0.680  29.070  0.00  0.00    +0.118 HD
ATOM     20  H   UNL     1       7.675   1.077  30.144  0.00  0.00    +0.118 HD
ENDBRANCH  17  18
ENDBRANCH  11  17
ENDBRANCH   1  15
BRANCH  10  21
ATOM     21  C   UNL     1       9.512  -0.614  23.476  0.00  0.00    -0.015 A 
ATOM     22  C   UNL     1       8.946  -0.411  22.213  0.00  0.00    +0.008 A 
ATOM     23  C   UNL     1       9.107   0.782  21.502  0.00  0.00    +0.001 A 
ATOM     24  C   UNL     1       9.949   1.771  21.990  0.00  0.00    +0.000 A 
ATOM     25  C   UNL     1      10.635   1.552  23.178  0.00  0.00    +0.001 A 
ATOM     26  C   UNL     1      10.406   0.382  23.919  0.00  0.00    +0.008 A 
ENDBRANCH  10  21
TORSDOF 4
ENDMDL
MODEL 6
REMARK VINA RESULT:      -6.1      3.159      5.981
REMARK  Name = 
REMARK  4 active torsions:
REMARK  status: ('A' for Active; 'I' for Inactive)
REMARK    1  A    between atoms: C_2  and  C_3
REMARK    2  A    between atoms: C_3  and  N_4
REMARK    3  A    between atoms: N_6  and  C_10
REMARK    4  A    between atoms: C_11  and  C_19
REMARK                            x       y       z     vdW  Elec       q    Type
REMARK                         _______ _______ _______ _____ _____    ______ ____
ROOT
ATOM      1  C   UNL     1       7.843  -2.717  23.926  0.00  0.00    +0.051 A 
ATOM      2  C   UNL     1       8.675  -1.805  23.202  0.00  0.00    +0.060 A 
ATOM      3  C   UNL     1       9.010  -1.536  21.845  0.00  0.00    +0.146 A 
ATOM      4  N   UNL     1       9.828  -0.489  21.686  0.00  0.00    -0.180 NA
ATOM      5  N   UNL     1      10.056  -0.101  22.953  0.00  0.00    -0.260 N 
ATOM      6  H   UNL     1      10.651   0.698  23.127  0.00  0.00    +0.191 HD
ATOM      7  C   UNL     1       9.426  -0.862  23.890  0.00  0.00    +0.157 A 
ATOM      8  N   UNL     1       9.513  -0.689  25.211  0.00  0.00    -0.235 NA
ATOM      9  C   UNL     1       8.760  -1.585  25.889  0.00  0.00    +0.123 A 
ATOM     10  C   UNL     1       7.934  -2.602  25.365  0.00  0.00    +0.022 A 
ENDROOT
BRANCH   1  15
ATOM     11  C   UNL     1       4.582  -4.166  22.967  0.00  0.00    +0.149 C 
ATOM     12  O   UNL     1       4.962  -5.404  22.328  0.00  0.00    -0.372 OA
ATOM     13  C   UNL     1       6.306  -5.843  22.600  0.00  0.00    +0.179 C 
ATOM     14  C   UNL     1       7.390  -4.738  22.493  0.00  0.00    +0.133 C 
ATOM     15  N   UNL     1       6.950  -3.571  23.276  0.00  0.00    -0.324 N 
ATOM     16  C   UNL     1       5.653  -3.080  22.772  0.00  0.00    +0.138 C 
BRANCH  11  17
ATOM     17  C   UNL     1       4.168  -4.308  24.454  0.00  0.00    +0.111 C 
BRANCH  17  18
ATOM     18  N   UNL     1       3.273  -3.229  24.910  0.00  0.00    -0.328 NA
ATOM     19  H   UNL     1       3.220  -3.236  25.930  0.00  0.00    +0.118 HD
ATOM     20  H   UNL     1       2.322  -3.424  24.598  0.00  0.00    +0.118 HD
ENDBRANCH  17  18
ENDBRANCH  11  17
ENDBRANCH   1  15
BRANCH  10  21
ATOM     21  C   UNL     1       7.190  -3.439  26.359  0.00  0.00    -0.015 A 
ATOM     22  C   UNL     1       6.117  -2.934  27.101  0.00  0.00    +0.008 A 
ATOM     23  C   UNL     1       5.314  -3.748  27.908  0.00  0.00    +0.001 A 
ATOM     24  C   UNL     1       5.642  -5.083  28.088  0.00  0.00    +0.000 A 
ATOM     25  C   UNL     1       6.780  -5.592  27.472  0.00  0.00    +0.001 A 
ATOM     26  C   UNL     1       7.533  -4.785  26.605  0.00  0.00    +0.008 A 
ENDBRANCH  10  21
TORSDOF 4
ENDMDL
MODEL 7
REMARK VINA RESULT:      -6.0      3.293      6.504
REMARK  Name = 
REMARK  4 active torsions:
REMARK  status: ('A' for Active; 'I' for Inactive)
REMARK    1  A    between atoms: C_2  and  C_3
REMARK    2  A    between atoms: C_3  and  N_4
REMARK    3  A    between atoms: N_6  and  C_10
REMARK    4  A    between atoms: C_11  and  C_19
REMARK                            x       y       z     vdW  Elec       q    Type
REMARK                         _______ _______ _______ _____ _____    ______ ____
ROOT
ATOM      1  C   UNL     1       8.934   3.592  23.719  0.00  0.00    +0.051 A 
ATOM      2  C   UNL     1       9.292   4.923  24.102  0.00  0.00    +0.060 A 
ATOM      3  C   UNL     1       8.634   6.098  24.565  0.00  0.00    +0.146 A 
ATOM      4  N   UNL     1       9.466   7.107  24.851  0.00  0.00    -0.180 NA
ATOM      5  N   UNL     1      10.667   6.595  24.535  0.00  0.00    -0.260 N 
ATOM      6  H   UNL     1      11.497   7.158  24.667  0.00  0.00    +0.191 HD
ATOM      7  C   UNL     1      10.621   5.320  24.057  0.00  0.00    +0.157 A 
ATOM      8  N   UNL     1      11.676   4.606  23.658  0.00  0.00    -0.235 NA
ATOM      9  C   UNL     1      11.323   3.365  23.254  0.00  0.00    +0.123 A 
ATOM     10  C   UNL     1      10.035   2.789  23.235  0.00  0.00    +0.022 A 
ENDROOT
BRANCH   1  15
ATOM     11  C   UNL     1       6.279   1.329  24.936  0.00  0.00    +0.149 C 
ATOM     12  O   UNL     1       5.142   1.715  24.134  0.00  0.00    -0.372 OA
ATOM     13  C   UNL     1       5.459   2.480  22.957  0.00  0.00    +0.179 C 
ATOM     14  C   UNL     1       6.475   3.632  23.178  0.00  0.00    +0.133 C 
ATOM     15  N   UNL     1       7.641   3.098  23.901  0.00  0.00    -0.324 N 
ATOM     16  C   UNL     1       7.218   2.519  25.190  0.00  0.00    +0.138 C 
BRANCH  11  17
ATOM     17  C   UNL     1       7.047   0.088  24.414  0.00  0.00    +0.111 C 
BRANCH  17  18
ATOM     18  N   UNL     1       6.164  -0.931  23.822  0.00  0.00    -0.328 NA
ATOM     19  H   UNL     1       5.757  -0.571  22.957  0.00  0.00    +0.118 HD
ATOM     20  H   UNL     1       5.367  -1.089  24.439  0.00  0.00    +0.118 HD
ENDBRANCH  17  18
ENDBRANCH  11  17
ENDBRANCH   1  15
BRANCH  10  21
ATOM     21  C   UNL     1       9.941   1.374  22.755  0.00  0.00    -0.015 A 
ATOM     22  C   UNL     1      10.526   0.311  23.452  0.00  0.00    +0.008 A 
ATOM     23  C   UNL     1      10.308  -1.026  23.104  0.00  0.00    +0.001 A 
ATOM     24  C   UNL     1       9.585  -1.334  21.961  0.00  0.00    +0.000 A 
ATOM     25  C   UNL     1       9.099  -0.302  21.166  0.00  0.00    +0.001 A 
ATOM     26  C   UNL     1       9.260   1.033  21.568  0.00  0.00    +0.008 A 
ENDBRANCH  10  21
TORSDOF 4
ENDMDL
MODEL 8
REMARK VINA RESULT:      -6.0      2.574      5.391
REMARK  Name = 
REMARK  4 active torsions:
REMARK  status: ('A' for Active; 'I' for Inactive)
REMARK    1  A    between atoms: C_2  and  C_3
REMARK    2  A    between atoms: C_3  and  N_4
REMARK    3  A    between atoms: N_6  and  C_10
REMARK    4  A    between atoms: C_11  and  C_19
REMARK                            x       y       z     vdW  Elec       q    Type
REMARK                         _______ _______ _______ _____ _____    ______ ____
ROOT
ATOM      1  C   UNL     1       7.946  -0.119  23.663  0.00  0.00    +0.051 A 
ATOM      2  C   UNL     1       8.736   1.033  23.353  0.00  0.00    +0.060 A 
ATOM      3  C   UNL     1       8.947   2.338  23.881  0.00  0.00    +0.146 A 
ATOM      4  N   UNL     1       9.877   3.043  23.227  0.00  0.00    -0.180 NA
ATOM      5  N   UNL     1      10.244   2.204  22.244  0.00  0.00    -0.260 N 
ATOM      6  H   UNL     1      10.960   2.489  21.589  0.00  0.00    +0.191 HD
ATOM      7  C   UNL     1       9.579   1.015  22.251  0.00  0.00    +0.157 A 
ATOM      8  N   UNL     1       9.752   0.029  21.367  0.00  0.00    -0.235 NA
ATOM      9  C   UNL     1       8.967  -1.039  21.641  0.00  0.00    +0.123 A 
ATOM     10  C   UNL     1       8.062  -1.202  22.711  0.00  0.00    +0.022 A 
ENDROOT
BRANCH   1  15
ATOM     11  C   UNL     1       6.997  -1.353  27.014  0.00  0.00    +0.149 C 
ATOM     12  O   UNL     1       5.672  -0.805  27.189  0.00  0.00    -0.372 OA
ATOM     13  C   UNL     1       5.035  -0.352  25.980  0.00  0.00    +0.179 C 
ATOM     14  C   UNL     1       5.935   0.501  25.046  0.00  0.00    +0.133 C 
ATOM     15  N   UNL     1       7.210  -0.208  24.846  0.00  0.00    -0.324 N 
ATOM     16  C   UNL     1       7.873  -0.438  26.143  0.00  0.00    +0.138 C 
BRANCH  11  17
ATOM     17  C   UNL     1       7.029  -2.822  26.521  0.00  0.00    +0.111 C 
BRANCH  17  18
ATOM     18  N   UNL     1       8.383  -3.402  26.520  0.00  0.00    -0.328 NA
ATOM     19  H   UNL     1       9.042  -2.731  26.920  0.00  0.00    +0.118 HD
ATOM     20  H   UNL     1       8.695  -3.531  25.558  0.00  0.00    +0.118 HD
ENDBRANCH  17  18
ENDBRANCH  11  17
ENDBRANCH   1  15
BRANCH  10  21
ATOM     21  C   UNL     1       7.337  -2.510  22.782  0.00  0.00    -0.015 A 
ATOM     22  C   UNL     1       8.004  -3.718  23.015  0.00  0.00    +0.008 A 
ATOM     23  C   UNL     1       7.324  -4.918  23.245  0.00  0.00    +0.001 A 
ATOM     24  C   UNL     1       5.943  -4.965  23.127  0.00  0.00    +0.000 A 
ATOM     25  C   UNL     1       5.253  -3.813  22.764  0.00  0.00    +0.001 A 
ATOM     26  C   UNL     1       5.940  -2.599  22.612  0.00  0.00    +0.008 A 
ENDBRANCH  10  21
TORSDOF 4
ENDMDL
MODEL 9
REMARK VINA RESULT:      -5.9      3.311      4.912
REMARK  Name = 
REMARK  4 active torsions:
REMARK  status: ('A' for Active; 'I' for Inactive)
REMARK    1  A    between atoms: C_2  and  C_3
REMARK    2  A    between atoms: C_3  and  N_4
REMARK    3  A    between atoms: N_6  and  C_10
REMARK    4  A    between atoms: C_11  and  C_19
REMARK                            x       y       z     vdW  Elec       q    Type
REMARK                         _______ _______ _______ _____ _____    ______ ____
ROOT
ATOM      1  C   UNL     1       8.294   1.590  23.608  0.00  0.00    +0.051 A 
ATOM      2  C   UNL     1       8.533   0.198  23.380  0.00  0.00    +0.060 A 
ATOM      3  C   UNL     1       7.787  -0.946  22.981  0.00  0.00    +0.146 A 
ATOM      4  N   UNL     1       8.524  -2.057  22.856  0.00  0.00    -0.180 NA
ATOM      5  N   UNL     1       9.749  -1.638  23.216  0.00  0.00    -0.260 N 
ATOM      6  H   UNL     1      10.520  -2.291  23.203  0.00  0.00    +0.191 HD
ATOM      7  C   UNL     1       9.806  -0.323  23.566  0.00  0.00    +0.157 A 
ATOM      8  N   UNL     1      10.902   0.319  23.978  0.00  0.00    -0.235 NA
ATOM      9  C   UNL     1      10.657   1.624  24.235  0.00  0.00    +0.123 A 
ATOM     10  C   UNL     1       9.440   2.324  24.099  0.00  0.00    +0.022 A 
ENDROOT
BRANCH   1  15
ATOM     11  C   UNL     1       5.989   3.994  22.009  0.00  0.00    +0.149 C 
ATOM     12  O   UNL     1       4.758   3.782  22.734  0.00  0.00    -0.372 OA
ATOM     13  C   UNL     1       4.900   3.084  23.985  0.00  0.00    +0.179 C 
ATOM     14  C   UNL     1       5.809   1.827  23.934  0.00  0.00    +0.133 C 
ATOM     15  N   UNL     1       7.077   2.189  23.279  0.00  0.00    -0.324 N 
ATOM     16  C   UNL     1       6.820   2.704  21.921  0.00  0.00    +0.138 C 
BRANCH  11  17
ATOM     17  C   UNL     1       6.835   5.193  22.509  0.00  0.00    +0.111 C 
BRANCH  17  18
ATOM     18  N   UNL     1       7.321   6.053  21.416  0.00  0.00    -0.328 NA
ATOM     19  H   UNL     1       7.556   5.476  20.605  0.00  0.00    +0.118 HD
ATOM     20  H   UNL     1       8.202   6.486  21.691  0.00  0.00    +0.118 HD
ENDBRANCH  17  18
ENDBRANCH  11  17
ENDBRANCH   1  15
BRANCH  10  21
ATOM     21  C   UNL     1       9.465   3.784  24.435  0.00  0.00    -0.015 A 
ATOM     22  C   UNL     1      10.303   4.685  23.771  0.00  0.00    +0.008 A 
ATOM     23  C   UNL     1      10.219   6.068  23.962  0.00  0.00    +0.001 A 
ATOM     24  C   UNL     1       9.363   6.583  24.924  0.00  0.00    +0.000 A 
ATOM     25  C   UNL     1       8.609   5.710  25.700  0.00  0.00    +0.001 A 
ATOM     26  C   UNL     1       8.647   4.330  25.446  0.00  0.00    +0.008 A 
ENDBRANCH  10  21
TORSDOF 4
ENDMDL
