MODEL 1
REMARK VINA RESULT:      -4.4      0.000      0.000
REMARK  Name = 
REMARK  5 active torsions:
REMARK  status: ('A' for Active; 'I' for Inactive)
REMARK    1  A    between atoms: C_1  and  C_2
REMARK    2  A    between atoms: C_2  and  O_4
REMARK    3  A    between atoms: C_2  and  C_5
REMARK    4  A    between atoms: C_5  and  N_7
REMARK    5  A    between atoms: C_5  and  C_8
REMARK                            x       y       z     vdW  Elec       q    Type
REMARK                         _______ _______ _______ _____ _____    ______ ____
ROOT
ATOM      1  C   UNL     1       9.213  -4.684  26.036  0.00  0.00    +0.136 C 
ENDROOT
BRANCH   1   2
ATOM      2  C   UNL     1       9.271  -3.427  25.195  0.00  0.00    +0.097 A 
ATOM      3  S   UNL     1       8.467  -1.996  25.729  0.00  0.00    -0.079 S 
ATOM      4  C   UNL     1       9.003  -1.178  24.323  0.00  0.00    +0.066 A 
ATOM      5  C   UNL     1       9.752  -2.031  23.546  0.00  0.00    +0.119 A 
ATOM      6  N   UNL     1       9.901  -3.308  24.043  0.00  0.00    -0.251 NA
ENDBRANCH   1   2
BRANCH   1   7
ATOM      7  N   UNL     1       9.760  -5.854  25.314  0.00  0.00    -0.320 NA
ATOM      8  H   UNL     1       9.564  -5.751  24.322  0.00  0.00    +0.119 HD
ATOM      9  H   UNL     1      10.774  -5.828  25.429  0.00  0.00    +0.119 HD
ENDBRANCH   1   7
BRANCH   1  11
ATOM     10  C   UNL     1       6.758  -5.379  25.516  0.00  0.00    +0.039 C 
ATOM     11  C   UNL     1       7.776  -4.949  26.571  0.00  0.00    +0.135 C 
BRANCH  11  12
ATOM     12  O   UNL     1       7.845  -5.969  27.587  0.00  0.00    -0.390 OA
ATOM     13  H   UNL     1       8.589  -6.553  27.356  0.00  0.00    +0.210 HD
ENDBRANCH  11  12
ENDBRANCH   1  11
TORSDOF 4
ENDMDL
MODEL 2
REMARK VINA RESULT:      -4.4      1.972      2.283
REMARK  Name = 
REMARK  5 active torsions:
REMARK  status: ('A' for Active; 'I' for Inactive)
REMARK    1  A    between atoms: C_1  and  C_2
REMARK    2  A    between atoms: C_2  and  O_4
REMARK    3  A    between atoms: C_2  and  C_5
REMARK    4  A    between atoms: C_5  and  N_7
REMARK    5  A    between atoms: C_5  and  C_8
REMARK                            x       y       z     vdW  Elec       q    Type
REMARK                         _______ _______ _______ _____ _____    ______ ____
ROOT
ATOM      1  C   UNL     1       9.303  -4.429  25.453  0.00  0.00    +0.136 C 
ENDROOT
BRANCH   1   2
ATOM      2  C   UNL     1       8.467  -4.303  24.198  0.00  0.00    +0.097 A 
ATOM      3  S   UNL     1       8.381  -2.790  23.370  0.00  0.00    -0.079 S 
ATOM      4  C   UNL     1       7.337  -3.494  22.208  0.00  0.00    +0.066 A 
ATOM      5  C   UNL     1       7.124  -4.818  22.516  0.00  0.00    +0.119 A 
ATOM      6  N   UNL     1       7.765  -5.274  23.647  0.00  0.00    -0.251 NA
ENDBRANCH   1   2
BRANCH   1   7
ATOM      7  N   UNL     1      10.328  -5.488  25.327  0.00  0.00    -0.320 NA
ATOM      8  H   UNL     1      10.539  -5.627  24.342  0.00  0.00    +0.119 HD
ATOM      9  H   UNL     1      11.177  -5.137  25.773  0.00  0.00    +0.119 HD
ENDBRANCH   1   7
BRANCH   1  11
ATOM     10  C   UNL     1       7.177  -3.732  26.785  0.00  0.00    +0.039 C 
ATOM     11  C   UNL     1       8.414  -4.626  26.716  0.00  0.00    +0.135 C 
BRANCH  11  12
ATOM     12  O   UNL     1       7.992  -6.002  26.769  0.00  0.00    -0.390 OA
ATOM     13  H   UNL     1       8.037  -6.351  25.862  0.00  0.00    +0.210 HD
ENDBRANCH  11  12
ENDBRANCH   1  11
TORSDOF 4
ENDMDL
MODEL 3
REMARK VINA RESULT:      -4.2      2.394      3.223
REMARK  Name = 
REMARK  5 active torsions:
REMARK  status: ('A' for Active; 'I' for Inactive)
REMARK    1  A    between atoms: C_1  and  C_2
REMARK    2  A    between atoms: C_2  and  O_4
REMARK    3  A    between atoms: C_2  and  C_5
REMARK    4  A    between atoms: C_5  and  N_7
REMARK    5  A    between atoms: C_5  and  C_8
REMARK                            x       y       z     vdW  Elec       q    Type
REMARK                         _______ _______ _______ _____ _____    ______ ____
ROOT
ATOM      1  C   UNL     1       8.760  -3.819  24.751  0.00  0.00    +0.136 C 
ENDROOT
BRANCH   1   2
ATOM      2  C   UNL     1       7.831  -4.475  23.752  0.00  0.00    +0.097 A 
ATOM      3  S   UNL     1       6.285  -3.778  23.427  0.00  0.00    -0.079 S 
ATOM      4  C   UNL     1       5.960  -5.037  22.312  0.00  0.00    +0.066 A 
ATOM      5  C   UNL     1       7.033  -5.897  22.255  0.00  0.00    +0.119 A 
ATOM      6  N   UNL     1       8.093  -5.576  23.075  0.00  0.00    -0.251 NA
ENDBRANCH   1   2
BRANCH   1   7
ATOM      7  N   UNL     1       9.988  -3.306  24.105  0.00  0.00    -0.320 NA
ATOM      8  H   UNL     1      10.791  -3.557  24.676  0.00  0.00    +0.119 HD
ATOM      9  H   UNL     1      10.083  -3.796  23.214  0.00  0.00    +0.119 HD
ENDBRANCH   1   7
BRANCH   1  11
ATOM     10  C   UNL     1       7.867  -5.240  26.742  0.00  0.00    +0.039 C 
ATOM     11  C   UNL     1       9.080  -4.766  25.943  0.00  0.00    +0.135 C 
BRANCH  11  12
ATOM     12  O   UNL     1       9.778  -5.921  25.437  0.00  0.00    -0.390 OA
ATOM     13  H   UNL     1       9.281  -6.706  25.727  0.00  0.00    +0.210 HD
ENDBRANCH  11  12
ENDBRANCH   1  11
TORSDOF 4
ENDMDL
MODEL 4
REMARK VINA RESULT:      -4.2      4.721      6.211
REMARK  Name = 
REMARK  5 active torsions:
REMARK  status: ('A' for Active; 'I' for Inactive)
REMARK    1  A    between atoms: C_1  and  C_2
REMARK    2  A    between atoms: C_2  and  O_4
REMARK    3  A    between atoms: C_2  and  C_5
REMARK    4  A    between atoms: C_5  and  N_7
REMARK    5  A    between atoms: C_5  and  C_8
REMARK                            x       y       z     vdW  Elec       q    Type
REMARK                         _______ _______ _______ _____ _____    ______ ____
ROOT
ATOM      1  C   UNL     1      10.448   0.611  23.553  0.00  0.00    +0.136 C 
ENDROOT
BRANCH   1   2
ATOM      2  C   UNL     1       9.438  -0.479  23.266  0.00  0.00    +0.097 A 
ATOM      3  S   UNL     1       9.838  -2.128  23.585  0.00  0.00    -0.079 S 
ATOM      4  C   UNL     1       8.291  -2.604  23.025  0.00  0.00    +0.066 A 
ATOM      5  C   UNL     1       7.575  -1.495  22.637  0.00  0.00    +0.119 A 
ATOM      6  N   UNL     1       8.229  -0.290  22.774  0.00  0.00    -0.251 NA
ENDBRANCH   1   2
BRANCH   1   7
ATOM      7  N   UNL     1      10.774   0.694  24.993  0.00  0.00    -0.320 NA
ATOM      8  H   UNL     1      11.686   0.272  25.150  0.00  0.00    +0.119 HD
ATOM      9  H   UNL     1      10.853   1.685  25.225  0.00  0.00    +0.119 HD
ENDBRANCH   1   7
BRANCH   1  11
ATOM     10  C   UNL     1      10.804   3.189  23.443  0.00  0.00    +0.039 C 
ATOM     11  C   UNL     1       9.988   1.983  22.980  0.00  0.00    +0.135 C 
BRANCH  11  12
ATOM     12  O   UNL     1      10.037   1.919  21.541  0.00  0.00    -0.390 OA
ATOM     13  H   UNL     1       9.307   1.343  21.255  0.00  0.00    +0.210 HD
ENDBRANCH  11  12
ENDBRANCH   1  11
TORSDOF 4
ENDMDL
MODEL 5
REMARK VINA RESULT:      -4.1      3.095      4.929
REMARK  Name = 
REMARK  5 active torsions:
REMARK  status: ('A' for Active; 'I' for Inactive)
REMARK    1  A    between atoms: C_1  and  C_2
REMARK    2  A    between atoms: C_2  and  O_4
REMARK    3  A    between atoms: C_2  and  C_5
REMARK    4  A    between atoms: C_5  and  N_7
REMARK    5  A    between atoms: C_5  and  C_8
REMARK                            x       y       z     vdW  Elec       q    Type
REMARK                         _______ _______ _______ _____ _____    ______ ____
ROOT
ATOM      1  C   UNL     1      10.069  -0.747  23.776  0.00  0.00    +0.136 C 
ENDROOT
BRANCH   1   2
ATOM      2  C   UNL     1       9.560  -2.015  24.427  0.00  0.00    +0.097 A 
ATOM      3  S   UNL     1       8.479  -1.919  25.770  0.00  0.00    -0.079 S 
ATOM      4  C   UNL     1       8.438  -3.630  25.851  0.00  0.00    +0.066 A 
ATOM      5  C   UNL     1       9.235  -4.161  24.863  0.00  0.00    +0.119 A 
ATOM      6  N   UNL     1       9.872  -3.242  24.057  0.00  0.00    -0.251 NA
ENDBRANCH   1   2
BRANCH   1   7
ATOM      7  N   UNL     1       9.805   0.445  24.611  0.00  0.00    -0.320 NA
ATOM      8  H   UNL     1       9.819   0.171  25.591  0.00  0.00    +0.119 HD
ATOM      9  H   UNL     1      10.581   1.090  24.464  0.00  0.00    +0.119 HD
ENDBRANCH   1   7
BRANCH   1  11
ATOM     10  C   UNL     1       9.682   0.810  21.725  0.00  0.00    +0.039 C 
ATOM     11  C   UNL     1       9.512  -0.582  22.332  0.00  0.00    +0.135 C 
BRANCH  11  12
ATOM     12  O   UNL     1      10.164  -1.541  21.476  0.00  0.00    -0.390 OA
ATOM     13  H   UNL     1      11.030  -1.168  21.237  0.00  0.00    +0.210 HD
ENDBRANCH  11  12
ENDBRANCH   1  11
TORSDOF 4
ENDMDL
MODEL 6
REMARK VINA RESULT:      -4.1      3.630      5.339
REMARK  Name = 
REMARK  5 active torsions:
REMARK  status: ('A' for Active; 'I' for Inactive)
REMARK    1  A    between atoms: C_1  and  C_2
REMARK    2  A    between atoms: C_2  and  O_4
REMARK    3  A    between atoms: C_2  and  C_5
REMARK    4  A    between atoms: C_5  and  N_7
REMARK    5  A    between atoms: C_5  and  C_8
REMARK                            x       y       z     vdW  Elec       q    Type
REMARK                         _______ _______ _______ _____ _____    ______ ____
ROOT
ATOM      1  C   UNL     1       8.155  -0.855  22.917  0.00  0.00    +0.136 C 
ENDROOT
BRANCH   1   2
ATOM      2  C   UNL     1       8.002  -2.353  23.076  0.00  0.00    +0.097 A 
ATOM      3  S   UNL     1       8.655  -3.141  24.467  0.00  0.00    -0.079 S 
ATOM      4  C   UNL     1       8.083  -4.643  23.875  0.00  0.00    +0.066 A 
ATOM      5  C   UNL     1       7.437  -4.455  22.674  0.00  0.00    +0.119 A 
ATOM      6  N   UNL     1       7.394  -3.153  22.223  0.00  0.00    -0.251 NA
ENDBRANCH   1   2
BRANCH   1   7
ATOM      7  N   UNL     1       6.844  -0.172  22.862  0.00  0.00    -0.320 NA
ATOM      8  H   UNL     1       6.309  -0.418  23.691  0.00  0.00    +0.119 HD
ATOM      9  H   UNL     1       7.029   0.831  22.906  0.00  0.00    +0.119 HD
ENDBRANCH   1   7
BRANCH   1  11
ATOM     10  C   UNL     1       9.808   0.824  21.807  0.00  0.00    +0.039 C 
ATOM     11  C   UNL     1       9.050  -0.498  21.695  0.00  0.00    +0.135 C 
BRANCH  11  12
ATOM     12  O   UNL     1      10.004  -1.560  21.498  0.00  0.00    -0.390 OA
ATOM     13  H   UNL     1      10.515  -1.641  22.322  0.00  0.00    +0.210 HD
ENDBRANCH  11  12
ENDBRANCH   1  11
TORSDOF 4
ENDMDL
MODEL 7
REMARK VINA RESULT:      -4.1      6.487      7.458
REMARK  Name = 
REMARK  5 active torsions:
REMARK  status: ('A' for Active; 'I' for Inactive)
REMARK    1  A    between atoms: C_1  and  C_2
REMARK    2  A    between atoms: C_2  and  O_4
REMARK    3  A    between atoms: C_2  and  C_5
REMARK    4  A    between atoms: C_5  and  N_7
REMARK    5  A    between atoms: C_5  and  C_8
REMARK                            x       y       z     vdW  Elec       q    Type
REMARK                         _______ _______ _______ _____ _____    ______ ____
ROOT
ATOM      1  C   UNL     1       9.020   1.575  23.506  0.00  0.00    +0.136 C 
ENDROOT
BRANCH   1   2
ATOM      2  C   UNL     1       8.428   2.940  23.226  0.00  0.00    +0.097 A 
ATOM      3  S   UNL     1       8.858   4.285  24.218  0.00  0.00    -0.079 S 
ATOM      4  C   UNL     1       7.835   5.293  23.284  0.00  0.00    +0.066 A 
ATOM      5  C   UNL     1       7.240   4.554  22.287  0.00  0.00    +0.119 A 
ATOM      6  N   UNL     1       7.577   3.218  22.258  0.00  0.00    -0.251 NA
ENDBRANCH   1   2
BRANCH   1   7
ATOM      7  N   UNL     1       9.654   1.515  24.842  0.00  0.00    -0.320 NA
ATOM      8  H   UNL     1      10.242   2.335  24.965  0.00  0.00    +0.119 HD
ATOM      9  H   UNL     1       8.903   1.572  25.531  0.00  0.00    +0.119 HD
ENDBRANCH   1   7
BRANCH   1  11
ATOM     10  C   UNL     1       9.494  -0.011  21.496  0.00  0.00    +0.039 C 
ATOM     11  C   UNL     1       9.996   1.132  22.378  0.00  0.00    +0.135 C 
BRANCH  11  12
ATOM     12  O   UNL     1      10.276   2.271  21.540  0.00  0.00    -0.390 OA
ATOM     13  H   UNL     1       9.715   2.188  20.748  0.00  0.00    +0.210 HD
ENDBRANCH  11  12
ENDBRANCH   1  11
TORSDOF 4
ENDMDL
MODEL 8
REMARK VINA RESULT:      -4.0      4.475      6.377
REMARK  Name = 
REMARK  5 active torsions:
REMARK  status: ('A' for Active; 'I' for Inactive)
REMARK    1  A    between atoms: C_1  and  C_2
REMARK    2  A    between atoms: C_2  and  O_4
REMARK    3  A    between atoms: C_2  and  C_5
REMARK    4  A    between atoms: C_5  and  N_7
REMARK    5  A    between atoms: C_5  and  C_8
REMARK                            x       y       z     vdW  Elec       q    Type
REMARK                         _______ _______ _______ _____ _____    ______ ____
ROOT
ATOM      1  C   UNL     1       8.582   1.211  21.736  0.00  0.00    +0.136 C 
ENDROOT
BRANCH   1   2
ATOM      2  C   UNL     1       8.909  -0.135  22.346  0.00  0.00    +0.097 A 
ATOM      3  S   UNL     1      10.339  -0.327  23.293  0.00  0.00    -0.079 S 
ATOM      4  C   UNL     1       9.945  -1.975  23.543  0.00  0.00    +0.066 A 
ATOM      5  C   UNL     1       8.764  -2.273  22.902  0.00  0.00    +0.119 A 
ATOM      6  N   UNL     1       8.179  -1.227  22.222  0.00  0.00    -0.251 NA
ENDBRANCH   1   2
BRANCH   1   7
ATOM      7  N   UNL     1       9.787   2.056  21.592  0.00  0.00    -0.320 NA
ATOM      8  H   UNL     1       9.729   2.568  20.716  0.00  0.00    +0.119 HD
ATOM      9  H   UNL     1       9.762   2.743  22.348  0.00  0.00    +0.119 HD
ENDBRANCH   1   7
BRANCH   1  11
ATOM     10  C   UNL     1       7.103   3.336  22.017  0.00  0.00    +0.039 C 
ATOM     11  C   UNL     1       7.451   1.936  22.521  0.00  0.00    +0.135 C 
BRANCH  11  12
ATOM     12  O   UNL     1       6.263   1.121  22.473  0.00  0.00    -0.390 OA
ATOM     13  H   UNL     1       5.981   1.082  21.542  0.00  0.00    +0.210 HD
ENDBRANCH  11  12
ENDBRANCH   1  11
TORSDOF 4
ENDMDL
MODEL 9
REMARK VINA RESULT:      -4.0      2.728      4.691
REMARK  Name = 
REMARK  5 active torsions:
REMARK  status: ('A' for Active; 'I' for Inactive)
REMARK    1  A    between atoms: C_1  and  C_2
REMARK    2  A    between atoms: C_2  and  O_4
REMARK    3  A    between atoms: C_2  and  C_5
REMARK    4  A    between atoms: C_5  and  N_7
REMARK    5  A    between atoms: C_5  and  C_8
REMARK                            x       y       z     vdW  Elec       q    Type
REMARK                         _______ _______ _______ _____ _____    ______ ____
ROOT
ATOM      1  C   UNL     1       9.423  -1.317  22.833  0.00  0.00    +0.136 C 
ENDROOT
BRANCH   1   2
ATOM      2  C   UNL     1       9.045  -2.634  23.477  0.00  0.00    +0.097 A 
ATOM      3  S   UNL     1       7.482  -3.310  23.198  0.00  0.00    -0.079 S 
ATOM      4  C   UNL     1       7.886  -4.639  24.201  0.00  0.00    +0.066 A 
ATOM      5  C   UNL     1       9.169  -4.490  24.676  0.00  0.00    +0.119 A 
ATOM      6  N   UNL     1       9.824  -3.349  24.264  0.00  0.00    -0.251 NA
ENDBRANCH   1   2
BRANCH   1   7
ATOM      7  N   UNL     1      10.117  -1.515  21.541  0.00  0.00    -0.320 NA
ATOM      8  H   UNL     1       9.423  -1.690  20.818  0.00  0.00    +0.119 HD
ATOM      9  H   UNL     1      10.579  -0.635  21.313  0.00  0.00    +0.119 HD
ENDBRANCH   1   7
BRANCH   1  11
ATOM     10  C   UNL     1      10.302   1.061  23.430  0.00  0.00    +0.039 C 
ATOM     11  C   UNL     1      10.245  -0.420  23.804  0.00  0.00    +0.135 C 
BRANCH  11  12
ATOM     12  O   UNL     1       9.683  -0.540  25.125  0.00  0.00    -0.390 OA
ATOM     13  H   UNL     1       8.718  -0.456  25.035  0.00  0.00    +0.210 HD
ENDBRANCH  11  12
ENDBRANCH   1  11
TORSDOF 4
ENDMDL
