MODEL 1
REMARK VINA RESULT:      -6.7      0.000      0.000
REMARK  Name = 
REMARK  6 active torsions:
REMARK  status: ('A' for Active; 'I' for Inactive)
REMARK    1  A    between atoms: O_1  and  C_2
REMARK    2  A    between atoms: C_2  and  C_3
REMARK    3  A    between atoms: C_3  and  N_4
REMARK    4  A    between atoms: N_7  and  C_8
REMARK    5  A    between atoms: C_8  and  C_9
REMARK    6  A    between atoms: C_9  and  C_10
REMARK                            x       y       z     vdW  Elec       q    Type
REMARK                         _______ _______ _______ _____ _____    ______ ____
ROOT
ATOM      1  C   UNL     1       7.474  -5.293  27.050  0.00  0.00    -0.017 C 
ATOM      2  C   UNL     1       6.186  -5.661  26.794  0.00  0.00    -0.012 C 
ATOM      3  C   UNL     1       5.616  -5.748  25.363  0.00  0.00    -0.002 A 
ATOM      4  C   UNL     1       6.307  -5.352  24.192  0.00  0.00    +0.029 A 
ATOM      5  C   UNL     1       5.787  -5.478  22.897  0.00  0.00    +0.042 A 
ATOM      6  C   UNL     1       4.531  -5.996  22.701  0.00  0.00    +0.021 A 
ATOM      7  C   UNL     1       3.804  -6.380  23.819  0.00  0.00    +0.017 A 
ATOM      8 CL   UNL     1       6.735  -4.986  21.541  0.00  0.00    -0.084 Cl
ATOM      9  C   UNL     1       4.329  -6.262  25.132  0.00  0.00    +0.021 A 
ATOM     10  S   UNL     1       3.208  -6.828  26.379  0.00  0.00    -0.088 S 
ATOM     11  C   UNL     1       4.060  -6.549  27.903  0.00  0.00    +0.020 A 
ATOM     12  C   UNL     1       3.312  -6.913  29.046  0.00  0.00    +0.015 A 
ATOM     13  C   UNL     1       3.824  -6.766  30.328  0.00  0.00    +0.001 A 
ATOM     14  C   UNL     1       5.087  -6.233  30.484  0.00  0.00    +0.001 A 
ATOM     15  C   UNL     1       5.828  -5.858  29.357  0.00  0.00    +0.009 A 
ATOM     16  C   UNL     1       5.356  -6.023  28.027  0.00  0.00    -0.004 A 
ENDROOT
BRANCH   1  17
ATOM     17  C   UNL     1       8.533  -4.843  26.103  0.00  0.00    +0.043 C 
BRANCH  17  18
ATOM     18  C   UNL     1       8.983  -3.378  26.129  0.00  0.00    +0.088 C 
BRANCH  18  22
ATOM     19  N   UNL     1       9.909  -0.354  24.133  0.00  0.00    -0.298 NA
ATOM     20  C   UNL     1      10.029  -1.753  23.643  0.00  0.00    +0.100 C 
ATOM     21  C   UNL     1       8.758  -2.632  23.819  0.00  0.00    +0.100 C 
ATOM     22  N   UNL     1       8.169  -2.594  25.174  0.00  0.00    -0.300 NA
ATOM     23  C   UNL     1       8.006  -1.173  25.560  0.00  0.00    +0.100 C 
ATOM     24  C   UNL     1       9.329  -0.381  25.491  0.00  0.00    +0.100 C 
BRANCH  19  25
ATOM     25  C   UNL     1       9.097   0.447  23.192  0.00  0.00    +0.112 C 
BRANCH  25  26
ATOM     26  C   UNL     1       9.693   0.576  21.781  0.00  0.00    +0.171 C 
BRANCH  26  27
ATOM     27  O   UNL     1       9.730   1.948  21.402  0.00  0.00    -0.394 OA
ATOM     28  H   UNL     1      10.091   2.435  22.163  0.00  0.00    +0.209 HD
ENDBRANCH  26  27
ENDBRANCH  25  26
ENDBRANCH  19  25
ENDBRANCH  18  22
ENDBRANCH  17  18
ENDBRANCH   1  17
TORSDOF 6
ENDMDL
MODEL 2
REMARK VINA RESULT:      -6.5      5.285     10.029
REMARK  Name = 
REMARK  6 active torsions:
REMARK  status: ('A' for Active; 'I' for Inactive)
REMARK    1  A    between atoms: O_1  and  C_2
REMARK    2  A    between atoms: C_2  and  C_3
REMARK    3  A    between atoms: C_3  and  N_4
REMARK    4  A    between atoms: N_7  and  C_8
REMARK    5  A    between atoms: C_8  and  C_9
REMARK    6  A    between atoms: C_9  and  C_10
REMARK                            x       y       z     vdW  Elec       q    Type
REMARK                         _______ _______ _______ _____ _____    ______ ____
ROOT
ATOM      1  C   UNL     1       8.850   2.229  22.799  0.00  0.00    -0.017 C 
ATOM      2  C   UNL     1       8.656   3.539  23.126  0.00  0.00    -0.012 C 
ATOM      3  C   UNL     1       7.252   4.166  23.246  0.00  0.00    -0.002 A 
ATOM      4  C   UNL     1       6.041   3.506  22.923  0.00  0.00    +0.029 A 
ATOM      5  C   UNL     1       4.773   4.080  23.077  0.00  0.00    +0.042 A 
ATOM      6  C   UNL     1       4.644   5.361  23.554  0.00  0.00    +0.021 A 
ATOM      7  C   UNL     1       5.802   6.058  23.866  0.00  0.00    +0.017 A 
ATOM      8 CL   UNL     1       3.364   3.167  22.676  0.00  0.00    -0.084 Cl
ATOM      9  C   UNL     1       7.089   5.479  23.718  0.00  0.00    +0.021 A 
ATOM     10  S   UNL     1       8.398   6.572  24.192  0.00  0.00    -0.088 S 
ATOM     11  C   UNL     1       9.877   5.653  23.887  0.00  0.00    +0.020 A 
ATOM     12  C   UNL     1      11.061   6.369  24.178  0.00  0.00    +0.015 A 
ATOM     13  C   UNL     1      12.316   5.804  24.001  0.00  0.00    +0.001 A 
ATOM     14  C   UNL     1      12.405   4.516  23.513  0.00  0.00    +0.001 A 
ATOM     15  C   UNL     1      11.237   3.806  23.210  0.00  0.00    +0.009 A 
ATOM     16  C   UNL     1       9.933   4.334  23.407  0.00  0.00    -0.004 A 
ENDROOT
BRANCH   1  17
ATOM     17  C   UNL     1       7.847   1.192  22.427  0.00  0.00    +0.043 C 
BRANCH  17  18
ATOM     18  C   UNL     1       8.260  -0.284  22.441  0.00  0.00    +0.088 C 
BRANCH  18  22
ATOM     19  N   UNL     1       8.786  -3.758  23.725  0.00  0.00    -0.298 NA
ATOM     20  C   UNL     1       9.569  -2.571  24.163  0.00  0.00    +0.100 C 
ATOM     21  C   UNL     1       8.727  -1.336  24.589  0.00  0.00    +0.100 C 
ATOM     22  N   UNL     1       7.675  -0.949  23.627  0.00  0.00    -0.300 NA
ATOM     23  C   UNL     1       6.888  -2.161  23.300  0.00  0.00    +0.100 C 
ATOM     24  C   UNL     1       7.763  -3.311  22.757  0.00  0.00    +0.100 C 
BRANCH  19  25
ATOM     25  C   UNL     1       8.191  -4.436  24.896  0.00  0.00    +0.112 C 
BRANCH  25  26
ATOM     26  C   UNL     1       9.196  -4.810  25.997  0.00  0.00    +0.171 C 
BRANCH  26  27
ATOM     27  O   UNL     1      10.071  -5.827  25.520  0.00  0.00    -0.394 OA
ATOM     28  H   UNL     1       9.545  -6.645  25.476  0.00  0.00    +0.209 HD
ENDBRANCH  26  27
ENDBRANCH  25  26
ENDBRANCH  19  25
ENDBRANCH  18  22
ENDBRANCH  17  18
ENDBRANCH   1  17
TORSDOF 6
ENDMDL
MODEL 3
REMARK VINA RESULT:      -6.5      5.515      9.858
REMARK  Name = 
REMARK  6 active torsions:
REMARK  status: ('A' for Active; 'I' for Inactive)
REMARK    1  A    between atoms: O_1  and  C_2
REMARK    2  A    between atoms: C_2  and  C_3
REMARK    3  A    between atoms: C_3  and  N_4
REMARK    4  A    between atoms: N_7  and  C_8
REMARK    5  A    between atoms: C_8  and  C_9
REMARK    6  A    between atoms: C_9  and  C_10
REMARK                            x       y       z     vdW  Elec       q    Type
REMARK                         _______ _______ _______ _____ _____    ______ ____
ROOT
ATOM      1  C   UNL     1       7.670   2.421  22.164  0.00  0.00    -0.017 C 
ATOM      2  C   UNL     1       7.434   3.591  22.825  0.00  0.00    -0.012 C 
ATOM      3  C   UNL     1       8.571   4.511  23.316  0.00  0.00    -0.002 A 
ATOM      4  C   UNL     1       9.951   4.199  23.247  0.00  0.00    +0.029 A 
ATOM      5  C   UNL     1      10.970   5.066  23.662  0.00  0.00    +0.042 A 
ATOM      6  C   UNL     1      10.662   6.298  24.186  0.00  0.00    +0.021 A 
ATOM      7  C   UNL     1       9.323   6.643  24.294  0.00  0.00    +0.017 A 
ATOM      8 CL   UNL     1      12.620   4.587  23.503  0.00  0.00    -0.084 Cl
ATOM      9  C   UNL     1       8.287   5.771  23.869  0.00  0.00    +0.021 A 
ATOM     10  S   UNL     1       6.670   6.450  24.106  0.00  0.00    -0.088 S 
ATOM     11  C   UNL     1       5.570   5.185  23.546  0.00  0.00    +0.020 A 
ATOM     12  C   UNL     1       4.203   5.522  23.679  0.00  0.00    +0.015 A 
ATOM     13  C   UNL     1       3.197   4.650  23.288  0.00  0.00    +0.001 A 
ATOM     14  C   UNL     1       3.545   3.418  22.773  0.00  0.00    +0.001 A 
ATOM     15  C   UNL     1       4.897   3.072  22.650  0.00  0.00    +0.009 A 
ATOM     16  C   UNL     1       5.958   3.948  23.007  0.00  0.00    -0.004 A 
ENDROOT
BRANCH   1  17
ATOM     17  C   UNL     1       8.968   1.758  21.855  0.00  0.00    +0.043 C 
BRANCH  17  18
ATOM     18  C   UNL     1       9.062   0.230  21.930  0.00  0.00    +0.088 C 
BRANCH  18  22
ATOM     19  N   UNL     1       9.177  -3.203  23.410  0.00  0.00    -0.298 NA
ATOM     20  C   UNL     1      10.287  -2.216  23.487  0.00  0.00    +0.100 C 
ATOM     21  C   UNL     1       9.886  -0.798  23.981  0.00  0.00    +0.100 C 
ATOM     22  N   UNL     1       8.711  -0.220  23.295  0.00  0.00    -0.300 NA
ATOM     23  C   UNL     1       7.624  -1.225  23.327  0.00  0.00    +0.100 C 
ATOM     24  C   UNL     1       8.041  -2.574  22.705  0.00  0.00    +0.100 C 
BRANCH  19  25
ATOM     25  C   UNL     1       8.810  -3.664  24.765  0.00  0.00    +0.112 C 
BRANCH  25  26
ATOM     26  C   UNL     1       8.968  -5.176  24.992  0.00  0.00    +0.171 C 
BRANCH  26  27
ATOM     27  O   UNL     1      10.313  -5.466  25.355  0.00  0.00    -0.394 OA
ATOM     28  H   UNL     1      10.871  -5.158  24.619  0.00  0.00    +0.209 HD
ENDBRANCH  26  27
ENDBRANCH  25  26
ENDBRANCH  19  25
ENDBRANCH  18  22
ENDBRANCH  17  18
ENDBRANCH   1  17
TORSDOF 6
ENDMDL
MODEL 4
REMARK VINA RESULT:      -6.4      4.342      8.187
REMARK  Name = 
REMARK  6 active torsions:
REMARK  status: ('A' for Active; 'I' for Inactive)
REMARK    1  A    between atoms: O_1  and  C_2
REMARK    2  A    between atoms: C_2  and  C_3
REMARK    3  A    between atoms: C_3  and  N_4
REMARK    4  A    between atoms: N_7  and  C_8
REMARK    5  A    between atoms: C_8  and  C_9
REMARK    6  A    between atoms: C_9  and  C_10
REMARK                            x       y       z     vdW  Elec       q    Type
REMARK                         _______ _______ _______ _____ _____    ______ ____
ROOT
ATOM      1  C   UNL     1       5.702  -1.192  24.795  0.00  0.00    -0.017 C 
ATOM      2  C   UNL     1       6.989  -1.430  24.411  0.00  0.00    -0.012 C 
ATOM      3  C   UNL     1       7.795  -2.645  24.917  0.00  0.00    -0.002 A 
ATOM      4  C   UNL     1       7.347  -3.559  25.902  0.00  0.00    +0.029 A 
ATOM      5  C   UNL     1       8.078  -4.679  26.318  0.00  0.00    +0.042 A 
ATOM      6  C   UNL     1       9.313  -4.942  25.779  0.00  0.00    +0.021 A 
ATOM      7  C   UNL     1       9.805  -4.064  24.825  0.00  0.00    +0.017 A 
ATOM      8 CL   UNL     1       7.417  -5.740  27.509  0.00  0.00    -0.084 Cl
ATOM      9  C   UNL     1       9.066  -2.932  24.394  0.00  0.00    +0.021 A 
ATOM     10  S   UNL     1       9.912  -1.980  23.164  0.00  0.00    -0.088 S 
ATOM     11  C   UNL     1       8.825  -0.628  22.823  0.00  0.00    +0.020 A 
ATOM     12  C   UNL     1       9.335   0.283  21.871  0.00  0.00    +0.015 A 
ATOM     13  C   UNL     1       8.617   1.404  21.478  0.00  0.00    +0.001 A 
ATOM     14  C   UNL     1       7.382   1.639  22.049  0.00  0.00    +0.001 A 
ATOM     15  C   UNL     1       6.877   0.747  23.003  0.00  0.00    +0.009 A 
ATOM     16  C   UNL     1       7.564  -0.429  23.408  0.00  0.00    -0.004 A 
ENDROOT
BRANCH   1  17
ATOM     17  C   UNL     1       4.858  -1.931  25.776  0.00  0.00    +0.043 C 
BRANCH  17  18
ATOM     18  C   UNL     1       3.784  -2.894  25.260  0.00  0.00    +0.088 C 
BRANCH  18  22
ATOM     19  N   UNL     1       2.129  -6.133  24.386  0.00  0.00    -0.298 NA
ATOM     20  C   UNL     1       2.686  -5.177  23.391  0.00  0.00    +0.100 C 
ATOM     21  C   UNL     1       4.140  -4.702  23.664  0.00  0.00    +0.100 C 
ATOM     22  N   UNL     1       4.383  -4.230  25.043  0.00  0.00    -0.300 NA
ATOM     23  C   UNL     1       3.877  -5.265  25.974  0.00  0.00    +0.100 C 
ATOM     24  C   UNL     1       2.390  -5.602  25.740  0.00  0.00    +0.100 C 
BRANCH  19  25
ATOM     25  C   UNL     1       2.717  -7.474  24.187  0.00  0.00    +0.112 C 
BRANCH  25  26
ATOM     26  C   UNL     1       1.761  -8.642  24.481  0.00  0.00    +0.171 C 
BRANCH  26  27
ATOM     27  O   UNL     1       2.408  -9.586  25.328  0.00  0.00    -0.394 OA
ATOM     28  H   UNL     1       2.195  -9.330  26.243  0.00  0.00    +0.209 HD
ENDBRANCH  26  27
ENDBRANCH  25  26
ENDBRANCH  19  25
ENDBRANCH  18  22
ENDBRANCH  17  18
ENDBRANCH   1  17
TORSDOF 6
ENDMDL
MODEL 5
REMARK VINA RESULT:      -6.3      3.740      5.430
REMARK  Name = 
REMARK  6 active torsions:
REMARK  status: ('A' for Active; 'I' for Inactive)
REMARK    1  A    between atoms: O_1  and  C_2
REMARK    2  A    between atoms: C_2  and  C_3
REMARK    3  A    between atoms: C_3  and  N_4
REMARK    4  A    between atoms: N_7  and  C_8
REMARK    5  A    between atoms: C_8  and  C_9
REMARK    6  A    between atoms: C_9  and  C_10
REMARK                            x       y       z     vdW  Elec       q    Type
REMARK                         _______ _______ _______ _____ _____    ______ ____
ROOT
ATOM      1  C   UNL     1       8.509  -2.327  24.146  0.00  0.00    -0.017 C 
ATOM      2  C   UNL     1       7.237  -2.756  24.386  0.00  0.00    -0.012 C 
ATOM      3  C   UNL     1       6.329  -2.108  25.451  0.00  0.00    -0.002 A 
ATOM      4  C   UNL     1       6.739  -1.102  26.360  0.00  0.00    +0.029 A 
ATOM      5  C   UNL     1       5.887  -0.498  27.293  0.00  0.00    +0.042 A 
ATOM      6  C   UNL     1       4.571  -0.879  27.380  0.00  0.00    +0.021 A 
ATOM      7  C   UNL     1       4.125  -1.876  26.526  0.00  0.00    +0.017 A 
ATOM      8 CL   UNL     1       6.494   0.740  28.332  0.00  0.00    -0.084 Cl
ATOM      9  C   UNL     1       4.981  -2.486  25.573  0.00  0.00    +0.021 A 
ATOM     10  S   UNL     1       4.167  -3.721  24.600  0.00  0.00    -0.088 S 
ATOM     11  C   UNL     1       5.428  -4.350  23.534  0.00  0.00    +0.020 A 
ATOM     12  C   UNL     1       4.985  -5.385  22.679  0.00  0.00    +0.015 A 
ATOM     13  C   UNL     1       5.839  -5.996  21.772  0.00  0.00    +0.001 A 
ATOM     14  C   UNL     1       7.157  -5.591  21.720  0.00  0.00    +0.001 A 
ATOM     15  C   UNL     1       7.607  -4.576  22.572  0.00  0.00    +0.009 A 
ATOM     16  C   UNL     1       6.759  -3.901  23.491  0.00  0.00    -0.004 A 
ENDROOT
BRANCH   1  17
ATOM     17  C   UNL     1       9.298  -1.275  24.849  0.00  0.00    +0.043 C 
BRANCH  17  18
ATOM     18  C   UNL     1      10.173  -0.324  24.025  0.00  0.00    +0.088 C 
BRANCH  18  22
ATOM     19  N   UNL     1       8.325   2.573  22.548  0.00  0.00    -0.298 NA
ATOM     20  C   UNL     1       7.744   1.617  23.529  0.00  0.00    +0.100 C 
ATOM     21  C   UNL     1       8.599   1.368  24.803  0.00  0.00    +0.100 C 
ATOM     22  N   UNL     1      10.019   1.056  24.537  0.00  0.00    -0.300 NA
ATOM     23  C   UNL     1      10.549   2.092  23.620  0.00  0.00    +0.100 C 
ATOM     24  C   UNL     1       9.736   2.203  22.314  0.00  0.00    +0.100 C 
BRANCH  19  25
ATOM     25  C   UNL     1       8.183   3.958  23.042  0.00  0.00    +0.112 C 
BRANCH  25  26
ATOM     26  C   UNL     1       7.261   4.850  22.193  0.00  0.00    +0.171 C 
BRANCH  26  27
ATOM     27  O   UNL     1       7.976   6.004  21.764  0.00  0.00    -0.394 OA
ATOM     28  H   UNL     1       7.327   6.588  21.336  0.00  0.00    +0.209 HD
ENDBRANCH  26  27
ENDBRANCH  25  26
ENDBRANCH  19  25
ENDBRANCH  18  22
ENDBRANCH  17  18
ENDBRANCH   1  17
TORSDOF 6
ENDMDL
MODEL 6
REMARK VINA RESULT:      -6.2      4.695      9.190
REMARK  Name = 
REMARK  6 active torsions:
REMARK  status: ('A' for Active; 'I' for Inactive)
REMARK    1  A    between atoms: O_1  and  C_2
REMARK    2  A    between atoms: C_2  and  C_3
REMARK    3  A    between atoms: C_3  and  N_4
REMARK    4  A    between atoms: N_7  and  C_8
REMARK    5  A    between atoms: C_8  and  C_9
REMARK    6  A    between atoms: C_9  and  C_10
REMARK                            x       y       z     vdW  Elec       q    Type
REMARK                         _______ _______ _______ _____ _____    ______ ____
ROOT
ATOM      1  C   UNL     1      10.214   1.065  24.299  0.00  0.00    -0.017 C 
ATOM      2  C   UNL     1       9.479   2.200  24.475  0.00  0.00    -0.012 C 
ATOM      3  C   UNL     1       8.074   2.190  25.111  0.00  0.00    -0.002 A 
ATOM      4  C   UNL     1       7.355   1.021  25.464  0.00  0.00    +0.029 A 
ATOM      5  C   UNL     1       6.096   1.035  26.078  0.00  0.00    +0.042 A 
ATOM      6  C   UNL     1       5.474   2.226  26.361  0.00  0.00    +0.021 A 
ATOM      7  C   UNL     1       6.128   3.399  26.016  0.00  0.00    +0.017 A 
ATOM      8 CL   UNL     1       5.327  -0.455  26.488  0.00  0.00    -0.084 Cl
ATOM      9  C   UNL     1       7.407   3.392  25.401  0.00  0.00    +0.021 A 
ATOM     10  S   UNL     1       8.026   5.017  25.071  0.00  0.00    -0.088 S 
ATOM     11  C   UNL     1       9.586   4.747  24.283  0.00  0.00    +0.020 A 
ATOM     12  C   UNL     1      10.244   5.940  23.905  0.00  0.00    +0.015 A 
ATOM     13  C   UNL     1      11.481   5.921  23.277  0.00  0.00    +0.001 A 
ATOM     14  C   UNL     1      12.070   4.704  23.001  0.00  0.00    +0.001 A 
ATOM     15  C   UNL     1      11.418   3.518  23.361  0.00  0.00    +0.009 A 
ATOM     16  C   UNL     1      10.168   3.493  24.035  0.00  0.00    -0.004 A 
ENDROOT
BRANCH   1  17
ATOM     17  C   UNL     1       9.842  -0.352  24.574  0.00  0.00    +0.043 C 
BRANCH  17  18
ATOM     18  C   UNL     1       9.167  -1.174  23.471  0.00  0.00    +0.088 C 
BRANCH  18  22
ATOM     19  N   UNL     1       7.731  -4.616  23.187  0.00  0.00    -0.298 NA
ATOM     20  C   UNL     1       8.540  -4.134  24.338  0.00  0.00    +0.100 C 
ATOM     21  C   UNL     1       8.086  -2.780  24.952  0.00  0.00    +0.100 C 
ATOM     22  N   UNL     1       7.875  -1.700  23.966  0.00  0.00    -0.300 NA
ATOM     23  C   UNL     1       6.998  -2.226  22.894  0.00  0.00    +0.100 C 
ATOM     24  C   UNL     1       7.565  -3.500  22.233  0.00  0.00    +0.100 C 
BRANCH  19  25
ATOM     25  C   UNL     1       6.434  -5.144  23.661  0.00  0.00    +0.112 C 
BRANCH  25  26
ATOM     26  C   UNL     1       5.517  -5.682  22.551  0.00  0.00    +0.171 C 
BRANCH  26  27
ATOM     27  O   UNL     1       6.158  -6.766  21.886  0.00  0.00    -0.394 OA
ATOM     28  H   UNL     1       5.878  -7.577  22.346  0.00  0.00    +0.209 HD
ENDBRANCH  26  27
ENDBRANCH  25  26
ENDBRANCH  19  25
ENDBRANCH  18  22
ENDBRANCH  17  18
ENDBRANCH   1  17
TORSDOF 6
ENDMDL
MODEL 7
REMARK VINA RESULT:      -6.1      4.837      8.953
REMARK  Name = 
REMARK  6 active torsions:
REMARK  status: ('A' for Active; 'I' for Inactive)
REMARK    1  A    between atoms: O_1  and  C_2
REMARK    2  A    between atoms: C_2  and  C_3
REMARK    3  A    between atoms: C_3  and  N_4
REMARK    4  A    between atoms: N_7  and  C_8
REMARK    5  A    between atoms: C_8  and  C_9
REMARK    6  A    between atoms: C_9  and  C_10
REMARK                            x       y       z     vdW  Elec       q    Type
REMARK                         _______ _______ _______ _____ _____    ______ ____
ROOT
ATOM      1  C   UNL     1       9.495   1.857  24.080  0.00  0.00    -0.017 C 
ATOM      2  C   UNL     1       8.693   2.644  24.852  0.00  0.00    -0.012 C 
ATOM      3  C   UNL     1       7.664   2.062  25.844  0.00  0.00    -0.002 A 
ATOM      4  C   UNL     1       7.358   0.685  25.975  0.00  0.00    +0.029 A 
ATOM      5  C   UNL     1       6.449   0.172  26.910  0.00  0.00    +0.042 A 
ATOM      6  C   UNL     1       5.781   1.016  27.763  0.00  0.00    +0.021 A 
ATOM      7  C   UNL     1       6.030   2.377  27.660  0.00  0.00    +0.017 A 
ATOM      8 CL   UNL     1       6.177  -1.529  26.997  0.00  0.00    -0.084 Cl
ATOM      9  C   UNL     1       6.955   2.900  26.719  0.00  0.00    +0.021 A 
ATOM     10  S   UNL     1       7.097   4.663  26.797  0.00  0.00    -0.088 S 
ATOM     11  C   UNL     1       8.258   5.072  25.527  0.00  0.00    +0.020 A 
ATOM     12  C   UNL     1       8.495   6.459  25.401  0.00  0.00    +0.015 A 
ATOM     13  C   UNL     1       9.380   6.964  24.457  0.00  0.00    +0.001 A 
ATOM     14  C   UNL     1      10.027   6.085  23.613  0.00  0.00    +0.001 A 
ATOM     15  C   UNL     1       9.787   4.710  23.724  0.00  0.00    +0.009 A 
ATOM     16  C   UNL     1       8.916   4.149  24.697  0.00  0.00    -0.004 A 
ENDROOT
BRANCH   1  17
ATOM     17  C   UNL     1       9.518   0.372  23.950  0.00  0.00    +0.043 C 
BRANCH  17  18
ATOM     18  C   UNL     1       8.684  -0.293  22.850  0.00  0.00    +0.088 C 
BRANCH  18  22
ATOM     19  N   UNL     1       7.789  -3.526  24.504  0.00  0.00    -0.298 NA
ATOM     20  C   UNL     1       7.143  -3.006  23.268  0.00  0.00    +0.100 C 
ATOM     21  C   UNL     1       8.119  -2.557  22.144  0.00  0.00    +0.100 C 
ATOM     22  N   UNL     1       9.200  -1.656  22.595  0.00  0.00    -0.300 NA
ATOM     23  C   UNL     1       9.847  -2.276  23.775  0.00  0.00    +0.100 C 
ATOM     24  C   UNL     1       8.848  -2.580  24.911  0.00  0.00    +0.100 C 
BRANCH  19  25
ATOM     25  C   UNL     1       8.314  -4.888  24.269  0.00  0.00    +0.112 C 
BRANCH  25  26
ATOM     26  C   UNL     1       9.266  -5.404  25.361  0.00  0.00    +0.171 C 
BRANCH  26  27
ATOM     27  O   UNL     1       8.509  -5.871  26.473  0.00  0.00    -0.394 OA
ATOM     28  H   UNL     1       8.031  -5.100  26.825  0.00  0.00    +0.209 HD
ENDBRANCH  26  27
ENDBRANCH  25  26
ENDBRANCH  19  25
ENDBRANCH  18  22
ENDBRANCH  17  18
ENDBRANCH   1  17
TORSDOF 6
ENDMDL
MODEL 8
REMARK VINA RESULT:      -6.0      3.531      5.392
REMARK  Name = 
REMARK  6 active torsions:
REMARK  status: ('A' for Active; 'I' for Inactive)
REMARK    1  A    between atoms: O_1  and  C_2
REMARK    2  A    between atoms: C_2  and  C_3
REMARK    3  A    between atoms: C_3  and  N_4
REMARK    4  A    between atoms: N_7  and  C_8
REMARK    5  A    between atoms: C_8  and  C_9
REMARK    6  A    between atoms: C_9  and  C_10
REMARK                            x       y       z     vdW  Elec       q    Type
REMARK                         _______ _______ _______ _____ _____    ______ ____
ROOT
ATOM      1  C   UNL     1       5.925  -0.874  25.478  0.00  0.00    -0.017 C 
ATOM      2  C   UNL     1       6.858  -1.853  25.298  0.00  0.00    -0.012 C 
ATOM      3  C   UNL     1       8.027  -1.713  24.300  0.00  0.00    -0.002 A 
ATOM      4  C   UNL     1       8.192  -0.636  23.395  0.00  0.00    +0.029 A 
ATOM      5  C   UNL     1       9.283  -0.507  22.525  0.00  0.00    +0.042 A 
ATOM      6  C   UNL     1      10.268  -1.463  22.501  0.00  0.00    +0.021 A 
ATOM      7  C   UNL     1      10.141  -2.549  23.354  0.00  0.00    +0.017 A 
ATOM      8 CL   UNL     1       9.392   0.866  21.485  0.00  0.00    -0.084 Cl
ATOM      9  C   UNL     1       9.043  -2.681  24.243  0.00  0.00    +0.021 A 
ATOM     10  S   UNL     1       9.122  -4.149  25.228  0.00  0.00    -0.088 S 
ATOM     11  C   UNL     1       7.651  -4.107  26.209  0.00  0.00    +0.020 A 
ATOM     12  C   UNL     1       7.504  -5.225  27.060  0.00  0.00    +0.015 A 
ATOM     13  C   UNL     1       6.411  -5.359  27.905  0.00  0.00    +0.001 A 
ATOM     14  C   UNL     1       5.437  -4.381  27.894  0.00  0.00    +0.001 A 
ATOM     15  C   UNL     1       5.569  -3.277  27.044  0.00  0.00    +0.009 A 
ATOM     16  C   UNL     1       6.688  -3.084  26.189  0.00  0.00    -0.004 A 
ENDROOT
BRANCH   1  17
ATOM     17  C   UNL     1       5.767   0.422  24.760  0.00  0.00    +0.043 C 
BRANCH  17  18
ATOM     18  C   UNL     1       6.050   1.729  25.507  0.00  0.00    +0.088 C 
BRANCH  18  22
ATOM     19  N   UNL     1       8.580   4.399  24.830  0.00  0.00    -0.298 NA
ATOM     20  C   UNL     1       8.483   3.121  24.075  0.00  0.00    +0.100 C 
ATOM     21  C   UNL     1       7.065   2.764  23.548  0.00  0.00    +0.100 C 
ATOM     22  N   UNL     1       5.992   2.863  24.558  0.00  0.00    -0.300 NA
ATOM     23  C   UNL     1       6.102   4.189  25.211  0.00  0.00    +0.100 C 
ATOM     24  C   UNL     1       7.493   4.434  25.831  0.00  0.00    +0.100 C 
BRANCH  19  25
ATOM     25  C   UNL     1       8.523   5.546  23.900  0.00  0.00    +0.112 C 
BRANCH  25  26
ATOM     26  C   UNL     1       9.832   6.344  23.785  0.00  0.00    +0.171 C 
BRANCH  26  27
ATOM     27  O   UNL     1      10.767   5.616  22.996  0.00  0.00    -0.394 OA
ATOM     28  H   UNL     1      11.158   4.943  23.580  0.00  0.00    +0.209 HD
ENDBRANCH  26  27
ENDBRANCH  25  26
ENDBRANCH  19  25
ENDBRANCH  18  22
ENDBRANCH  17  18
ENDBRANCH   1  17
TORSDOF 6
ENDMDL
MODEL 9
REMARK VINA RESULT:      -6.0      4.220      8.368
REMARK  Name = 
REMARK  6 active torsions:
REMARK  status: ('A' for Active; 'I' for Inactive)
REMARK    1  A    between atoms: O_1  and  C_2
REMARK    2  A    between atoms: C_2  and  C_3
REMARK    3  A    between atoms: C_3  and  N_4
REMARK    4  A    between atoms: N_7  and  C_8
REMARK    5  A    between atoms: C_8  and  C_9
REMARK    6  A    between atoms: C_9  and  C_10
REMARK                            x       y       z     vdW  Elec       q    Type
REMARK                         _______ _______ _______ _____ _____    ______ ____
ROOT
ATOM      1  C   UNL     1       7.179   0.748  26.388  0.00  0.00    -0.017 C 
ATOM      2  C   UNL     1       8.110   1.060  25.442  0.00  0.00    -0.012 C 
ATOM      3  C   UNL     1       8.877  -0.015  24.645  0.00  0.00    -0.002 A 
ATOM      4  C   UNL     1       8.794  -1.410  24.881  0.00  0.00    +0.029 A 
ATOM      5  C   UNL     1       9.468  -2.373  24.119  0.00  0.00    +0.042 A 
ATOM      6  C   UNL     1      10.281  -1.991  23.080  0.00  0.00    +0.021 A 
ATOM      7  C   UNL     1      10.413  -0.635  22.822  0.00  0.00    +0.017 A 
ATOM      8 CL   UNL     1       9.268  -4.048  24.484  0.00  0.00    -0.084 Cl
ATOM      9  C   UNL     1       9.726   0.344  23.585  0.00  0.00    +0.021 A 
ATOM     10  S   UNL     1      10.057   1.998  23.048  0.00  0.00    -0.088 S 
ATOM     11  C   UNL     1       9.134   3.019  24.158  0.00  0.00    +0.020 A 
ATOM     12  C   UNL     1       9.287   4.403  23.915  0.00  0.00    +0.015 A 
ATOM     13  C   UNL     1       8.634   5.354  24.687  0.00  0.00    +0.001 A 
ATOM     14  C   UNL     1       7.832   4.932  25.727  0.00  0.00    +0.001 A 
ATOM     15  C   UNL     1       7.687   3.563  25.982  0.00  0.00    +0.009 A 
ATOM     16  C   UNL     1       8.310   2.557  25.196  0.00  0.00    -0.004 A 
ENDROOT
BRANCH   1  17
ATOM     17  C   UNL     1       6.768  -0.590  26.903  0.00  0.00    +0.043 C 
BRANCH  17  18
ATOM     18  C   UNL     1       5.359  -1.107  26.595  0.00  0.00    +0.088 C 
BRANCH  18  22
ATOM     19  N   UNL     1       4.384  -4.237  24.794  0.00  0.00    -0.298 NA
ATOM     20  C   UNL     1       5.787  -3.782  24.991  0.00  0.00    +0.100 C 
ATOM     21  C   UNL     1       6.166  -3.402  26.450  0.00  0.00    +0.100 C 
ATOM     22  N   UNL     1       5.215  -2.486  27.112  0.00  0.00    -0.300 NA
ATOM     23  C   UNL     1       3.852  -3.043  26.944  0.00  0.00    +0.100 C 
ATOM     24  C   UNL     1       3.483  -3.277  25.465  0.00  0.00    +0.100 C 
BRANCH  19  25
ATOM     25  C   UNL     1       4.219  -5.613  25.307  0.00  0.00    +0.112 C 
BRANCH  25  26
ATOM     26  C   UNL     1       4.774  -6.711  24.385  0.00  0.00    +0.171 C 
BRANCH  26  27
ATOM     27  O   UNL     1       3.739  -7.634  24.064  0.00  0.00    -0.394 OA
ATOM     28  H   UNL     1       3.648  -8.226  24.832  0.00  0.00    +0.209 HD
ENDBRANCH  26  27
ENDBRANCH  25  26
ENDBRANCH  19  25
ENDBRANCH  18  22
ENDBRANCH  17  18
ENDBRANCH   1  17
TORSDOF 6
ENDMDL
