MODEL 1
REMARK VINA RESULT:      -5.3      0.000      0.000
REMARK  Name = 
REMARK  9 active torsions:
REMARK  status: ('A' for Active; 'I' for Inactive)
REMARK    1  A    between atoms: C_1  and  C_2
REMARK    2  A    between atoms: C_5  and  C_6
REMARK    3  A    between atoms: C_6  and  O_7
REMARK    4  A    between atoms: O_7  and  P_8
REMARK    5  A    between atoms: P_8  and  O_9
REMARK    6  A    between atoms: P_8  and  O_10
REMARK    7  A    between atoms: C_12  and  C_13
REMARK    8  A    between atoms: C_13  and  O_14
REMARK    9  A    between atoms: C_15  and  O_16
REMARK                            x       y       z     vdW  Elec       q    Type
REMARK                         _______ _______ _______ _____ _____    ______ ____
ROOT
ATOM      1  C   UNL     1       7.964  -3.746  26.376  0.00  0.00    +0.069 C 
ATOM      2  C   UNL     1       8.588  -2.540  25.743  0.00  0.00    +0.080 A 
ATOM      3  C   UNL     1       9.183  -2.619  24.483  0.00  0.00    +0.143 A 
ATOM      4  C   UNL     1       9.828  -1.496  23.928  0.00  0.00    +0.028 A 
ATOM      5  C   UNL     1       9.813  -0.303  24.683  0.00  0.00    +0.006 A 
ATOM      6  C   UNL     1       9.159  -0.324  25.920  0.00  0.00    +0.117 A 
ATOM      7  N   UNL     1       8.561  -1.396  26.461  0.00  0.00    -0.256 NA
ENDROOT
BRANCH   3   8
ATOM      8  O   UNL     1       9.103  -3.811  23.818  0.00  0.00    -0.505 OA
ATOM      9  H   UNL     1       9.252  -3.624  22.863  0.00  0.00    +0.292 HD
ENDBRANCH   3   8
BRANCH   4  10
ATOM     10  C   UNL     1      10.537  -1.540  22.596  0.00  0.00    +0.195 C 
BRANCH  10  11
ATOM     11  O   UNL     1       9.630  -1.695  21.505  0.00  0.00    -0.390 OA
ATOM     12  H   UNL     1       8.805  -2.060  21.877  0.00  0.00    +0.210 HD
ENDBRANCH  10  11
ENDBRANCH   4  10
BRANCH   5  13
ATOM     13  C   UNL     1      10.438   0.993  24.237  0.00  0.00    +0.209 C 
BRANCH  13  14
ATOM     14  O   UNL     1       9.384   1.885  23.933  0.00  0.00    -0.282 OA
BRANCH  14  15
ATOM     15  P   UNL     1       8.904   2.000  22.418  0.00  0.00    +0.473 P 
ATOM     16  O   UNL     1       8.000   0.917  21.942  0.00  0.00    -0.228 OA
BRANCH  15  17
ATOM     17  O   UNL     1      10.313   2.122  21.679  0.00  0.00    -0.303 OA
ATOM     18  H   UNL     1      10.399   1.476  20.956  0.00  0.00    +0.222 HD
ENDBRANCH  15  17
BRANCH  15  19
ATOM     19  O   UNL     1       8.343   3.490  22.348  0.00  0.00    -0.303 OA
ATOM     20  H   UNL     1       8.395   3.894  21.468  0.00  0.00    +0.222 HD
ENDBRANCH  15  19
ENDBRANCH  14  15
ENDBRANCH  13  14
ENDBRANCH   5  13
TORSDOF 8
ENDMDL
MODEL 2
REMARK VINA RESULT:      -5.1      3.172      4.387
REMARK  Name = 
REMARK  9 active torsions:
REMARK  status: ('A' for Active; 'I' for Inactive)
REMARK    1  A    between atoms: C_1  and  C_2
REMARK    2  A    between atoms: C_5  and  C_6
REMARK    3  A    between atoms: C_6  and  O_7
REMARK    4  A    between atoms: O_7  and  P_8
REMARK    5  A    between atoms: P_8  and  O_9
REMARK    6  A    between atoms: P_8  and  O_10
REMARK    7  A    between atoms: C_12  and  C_13
REMARK    8  A    between atoms: C_13  and  O_14
REMARK    9  A    between atoms: C_15  and  O_16
REMARK                            x       y       z     vdW  Elec       q    Type
REMARK                         _______ _______ _______ _____ _____    ______ ____
ROOT
ATOM      1  C   UNL     1       5.218  -6.186  27.012  0.00  0.00    +0.069 C 
ATOM      2  C   UNL     1       6.007  -5.526  25.924  0.00  0.00    +0.080 A 
ATOM      3  C   UNL     1       7.391  -5.378  26.030  0.00  0.00    +0.143 A 
ATOM      4  C   UNL     1       8.114  -4.694  25.033  0.00  0.00    +0.028 A 
ATOM      5  C   UNL     1       7.385  -4.205  23.927  0.00  0.00    +0.006 A 
ATOM      6  C   UNL     1       6.005  -4.438  23.903  0.00  0.00    +0.117 A 
ATOM      7  N   UNL     1       5.310  -5.070  24.860  0.00  0.00    -0.256 NA
ENDROOT
BRANCH   3   8
ATOM      8  O   UNL     1       8.005  -5.928  27.122  0.00  0.00    -0.505 OA
ATOM      9  H   UNL     1       7.481  -5.666  27.914  0.00  0.00    +0.292 HD
ENDBRANCH   3   8
BRANCH   4  10
ATOM     10  C   UNL     1       9.601  -4.454  25.124  0.00  0.00    +0.195 C 
BRANCH  10  11
ATOM     11  O   UNL     1      10.327  -5.653  25.393  0.00  0.00    -0.390 OA
ATOM     12  H   UNL     1      10.895  -5.469  26.165  0.00  0.00    +0.210 HD
ENDBRANCH  10  11
ENDBRANCH   4  10
BRANCH   5  13
ATOM     13  C   UNL     1       7.995  -3.467  22.764  0.00  0.00    +0.209 C 
BRANCH  13  14
ATOM     14  O   UNL     1       7.882  -2.084  23.037  0.00  0.00    -0.282 OA
BRANCH  14  15
ATOM     15  P   UNL     1       9.181  -1.175  22.893  0.00  0.00    +0.473 P 
ATOM     16  O   UNL     1      10.044  -1.083  24.103  0.00  0.00    -0.228 OA
BRANCH  15  17
ATOM     17  O   UNL     1       8.524   0.188  22.388  0.00  0.00    -0.303 OA
ATOM     18  H   UNL     1       9.181   0.774  21.971  0.00  0.00    +0.222 HD
ENDBRANCH  15  17
BRANCH  15  19
ATOM     19  O   UNL     1       9.857  -1.748  21.569  0.00  0.00    -0.303 OA
ATOM     20  H   UNL     1       9.391  -2.505  21.180  0.00  0.00    +0.222 HD
ENDBRANCH  15  19
ENDBRANCH  14  15
ENDBRANCH  13  14
ENDBRANCH   5  13
TORSDOF 8
ENDMDL
MODEL 3
REMARK VINA RESULT:      -5.0      2.911      3.778
REMARK  Name = 
REMARK  9 active torsions:
REMARK  status: ('A' for Active; 'I' for Inactive)
REMARK    1  A    between atoms: C_1  and  C_2
REMARK    2  A    between atoms: C_5  and  C_6
REMARK    3  A    between atoms: C_6  and  O_7
REMARK    4  A    between atoms: O_7  and  P_8
REMARK    5  A    between atoms: P_8  and  O_9
REMARK    6  A    between atoms: P_8  and  O_10
REMARK    7  A    between atoms: C_12  and  C_13
REMARK    8  A    between atoms: C_13  and  O_14
REMARK    9  A    between atoms: C_15  and  O_16
REMARK                            x       y       z     vdW  Elec       q    Type
REMARK                         _______ _______ _______ _____ _____    ______ ____
ROOT
ATOM      1  C   UNL     1       6.170  -6.004  21.512  0.00  0.00    +0.069 C 
ATOM      2  C   UNL     1       6.590  -4.678  22.067  0.00  0.00    +0.080 A 
ATOM      3  C   UNL     1       7.613  -4.588  23.012  0.00  0.00    +0.143 A 
ATOM      4  C   UNL     1       7.953  -3.344  23.579  0.00  0.00    +0.028 A 
ATOM      5  C   UNL     1       7.240  -2.212  23.127  0.00  0.00    +0.006 A 
ATOM      6  C   UNL     1       6.256  -2.409  22.151  0.00  0.00    +0.117 A 
ATOM      7  N   UNL     1       5.916  -3.594  21.624  0.00  0.00    -0.256 NA
ENDROOT
BRANCH   3   8
ATOM      8  O   UNL     1       8.268  -5.741  23.348  0.00  0.00    -0.505 OA
ATOM      9  H   UNL     1       7.712  -6.493  23.041  0.00  0.00    +0.292 HD
ENDBRANCH   3   8
BRANCH   4  10
ATOM     10  C   UNL     1       9.010  -3.195  24.646  0.00  0.00    +0.195 C 
BRANCH  10  11
ATOM     11  O   UNL     1      10.109  -4.085  24.446  0.00  0.00    -0.390 OA
ATOM     12  H   UNL     1       9.780  -4.983  24.643  0.00  0.00    +0.210 HD
ENDBRANCH  10  11
ENDBRANCH   4  10
BRANCH   5  13
ATOM     13  C   UNL     1       7.481  -0.805  23.611  0.00  0.00    +0.209 C 
BRANCH  13  14
ATOM     14  O   UNL     1       7.717  -0.003  22.471  0.00  0.00    -0.282 OA
BRANCH  14  15
ATOM     15  P   UNL     1       9.225   0.293  22.053  0.00  0.00    +0.473 P 
ATOM     16  O   UNL     1      10.178   0.509  23.177  0.00  0.00    -0.228 OA
BRANCH  15  17
ATOM     17  O   UNL     1       9.011   1.523  21.060  0.00  0.00    -0.303 OA
ATOM     18  H   UNL     1       9.347   1.329  20.166  0.00  0.00    +0.222 HD
ENDBRANCH  15  17
BRANCH  15  19
ATOM     19  O   UNL     1       9.547  -0.908  21.056  0.00  0.00    -0.303 OA
ATOM     20  H   UNL     1      10.403  -0.833  20.606  0.00  0.00    +0.222 HD
ENDBRANCH  15  19
ENDBRANCH  14  15
ENDBRANCH  13  14
ENDBRANCH   5  13
TORSDOF 8
ENDMDL
MODEL 4
REMARK VINA RESULT:      -4.9      2.589      5.144
REMARK  Name = 
REMARK  9 active torsions:
REMARK  status: ('A' for Active; 'I' for Inactive)
REMARK    1  A    between atoms: C_1  and  C_2
REMARK    2  A    between atoms: C_5  and  C_6
REMARK    3  A    between atoms: C_6  and  O_7
REMARK    4  A    between atoms: O_7  and  P_8
REMARK    5  A    between atoms: P_8  and  O_9
REMARK    6  A    between atoms: P_8  and  O_10
REMARK    7  A    between atoms: C_12  and  C_13
REMARK    8  A    between atoms: C_13  and  O_14
REMARK    9  A    between atoms: C_15  and  O_16
REMARK                            x       y       z     vdW  Elec       q    Type
REMARK                         _______ _______ _______ _____ _____    ______ ____
ROOT
ATOM      1  C   UNL     1       9.870   3.941  23.737  0.00  0.00    +0.069 C 
ATOM      2  C   UNL     1       9.469   2.498  23.775  0.00  0.00    +0.080 A 
ATOM      3  C   UNL     1       9.650   1.674  22.664  0.00  0.00    +0.143 A 
ATOM      4  C   UNL     1       9.206   0.337  22.687  0.00  0.00    +0.028 A 
ATOM      5  C   UNL     1       8.608  -0.124  23.880  0.00  0.00    +0.006 A 
ATOM      6  C   UNL     1       8.506   0.775  24.947  0.00  0.00    +0.117 A 
ATOM      7  N   UNL     1       8.909   2.054  24.922  0.00  0.00    -0.256 NA
ENDROOT
BRANCH   3   8
ATOM      8  O   UNL     1      10.279   2.210  21.574  0.00  0.00    -0.505 OA
ATOM      9  H   UNL     1      10.325   3.183  21.712  0.00  0.00    +0.292 HD
ENDBRANCH   3   8
BRANCH   4  10
ATOM     10  C   UNL     1       9.324  -0.582  21.495  0.00  0.00    +0.195 C 
BRANCH  10  11
ATOM     11  O   UNL     1      10.343  -1.566  21.670  0.00  0.00    -0.390 OA
ATOM     12  H   UNL     1      10.005  -2.205  22.325  0.00  0.00    +0.210 HD
ENDBRANCH  10  11
ENDBRANCH   4  10
BRANCH   5  13
ATOM     13  C   UNL     1       8.091  -1.524  24.086  0.00  0.00    +0.209 C 
BRANCH  13  14
ATOM     14  O   UNL     1       9.191  -2.326  24.470  0.00  0.00    -0.282 OA
BRANCH  14  15
ATOM     15  P   UNL     1       8.955  -3.889  24.669  0.00  0.00    +0.473 P 
ATOM     16  O   UNL     1      10.187  -4.719  24.785  0.00  0.00    -0.228 OA
BRANCH  15  17
ATOM     17  O   UNL     1       8.008  -4.198  23.423  0.00  0.00    -0.303 OA
ATOM     18  H   UNL     1       7.823  -5.150  23.337  0.00  0.00    +0.222 HD
ENDBRANCH  15  17
BRANCH  15  19
ATOM     19  O   UNL     1       7.941  -3.930  25.897  0.00  0.00    -0.303 OA
ATOM     20  H   UNL     1       7.456  -4.765  25.986  0.00  0.00    +0.222 HD
ENDBRANCH  15  19
ENDBRANCH  14  15
ENDBRANCH  13  14
ENDBRANCH   5  13
TORSDOF 8
ENDMDL
MODEL 5
REMARK VINA RESULT:      -4.9      3.068      5.893
REMARK  Name = 
REMARK  9 active torsions:
REMARK  status: ('A' for Active; 'I' for Inactive)
REMARK    1  A    between atoms: C_1  and  C_2
REMARK    2  A    between atoms: C_5  and  C_6
REMARK    3  A    between atoms: C_6  and  O_7
REMARK    4  A    between atoms: O_7  and  P_8
REMARK    5  A    between atoms: P_8  and  O_9
REMARK    6  A    between atoms: P_8  and  O_10
REMARK    7  A    between atoms: C_12  and  C_13
REMARK    8  A    between atoms: C_13  and  O_14
REMARK    9  A    between atoms: C_15  and  O_16
REMARK                            x       y       z     vdW  Elec       q    Type
REMARK                         _______ _______ _______ _____ _____    ______ ____
ROOT
ATOM      1  C   UNL     1      10.149   1.491  22.143  0.00  0.00    +0.069 C 
ATOM      2  C   UNL     1       9.519   0.410  22.967  0.00  0.00    +0.080 A 
ATOM      3  C   UNL     1       9.304   0.584  24.334  0.00  0.00    +0.143 A 
ATOM      4  C   UNL     1       8.776  -0.465  25.112  0.00  0.00    +0.028 A 
ATOM      5  C   UNL     1       8.452  -1.665  24.444  0.00  0.00    +0.006 A 
ATOM      6  C   UNL     1       8.676  -1.722  23.063  0.00  0.00    +0.117 A 
ATOM      7  N   UNL     1       9.197  -0.733  22.323  0.00  0.00    -0.256 NA
ENDROOT
BRANCH   3   8
ATOM      8  O   UNL     1       9.614   1.802  24.874  0.00  0.00    -0.505 OA
ATOM      9  H   UNL     1      10.591   1.909  24.814  0.00  0.00    +0.292 HD
ENDBRANCH   3   8
BRANCH   4  10
ATOM     10  C   UNL     1       8.577  -0.352  26.605  0.00  0.00    +0.195 C 
BRANCH  10  11
ATOM     11  O   UNL     1       7.883   0.841  26.970  0.00  0.00    -0.390 OA
ATOM     12  H   UNL     1       6.994   0.780  26.571  0.00  0.00    +0.210 HD
ENDBRANCH  10  11
ENDBRANCH   4  10
BRANCH   5  13
ATOM     13  C   UNL     1       7.865  -2.880  25.114  0.00  0.00    +0.209 C 
BRANCH  13  14
ATOM     14  O   UNL     1       8.940  -3.627  25.648  0.00  0.00    -0.282 OA
BRANCH  14  15
ATOM     15  P   UNL     1       9.052  -5.170  25.268  0.00  0.00    +0.473 P 
ATOM     16  O   UNL     1       8.646  -5.525  23.880  0.00  0.00    -0.228 OA
BRANCH  15  17
ATOM     17  O   UNL     1       8.193  -5.819  26.445  0.00  0.00    -0.303 OA
ATOM     18  H   UNL     1       8.275  -5.314  27.273  0.00  0.00    +0.222 HD
ENDBRANCH  15  17
BRANCH  15  19
ATOM     19  O   UNL     1      10.548  -5.520  25.693  0.00  0.00    -0.303 OA
ATOM     20  H   UNL     1      10.624  -6.276  26.295  0.00  0.00    +0.222 HD
ENDBRANCH  15  19
ENDBRANCH  14  15
ENDBRANCH  13  14
ENDBRANCH   5  13
TORSDOF 8
ENDMDL
MODEL 6
REMARK VINA RESULT:      -4.8      3.063      5.273
REMARK  Name = 
REMARK  9 active torsions:
REMARK  status: ('A' for Active; 'I' for Inactive)
REMARK    1  A    between atoms: C_1  and  C_2
REMARK    2  A    between atoms: C_5  and  C_6
REMARK    3  A    between atoms: C_6  and  O_7
REMARK    4  A    between atoms: O_7  and  P_8
REMARK    5  A    between atoms: P_8  and  O_9
REMARK    6  A    between atoms: P_8  and  O_10
REMARK    7  A    between atoms: C_12  and  C_13
REMARK    8  A    between atoms: C_13  and  O_14
REMARK    9  A    between atoms: C_15  and  O_16
REMARK                            x       y       z     vdW  Elec       q    Type
REMARK                         _______ _______ _______ _____ _____    ______ ____
ROOT
ATOM      1  C   UNL     1       7.736   3.998  22.647  0.00  0.00    +0.069 C 
ATOM      2  C   UNL     1       8.352   2.633  22.640  0.00  0.00    +0.080 A 
ATOM      3  C   UNL     1       9.058   2.160  23.747  0.00  0.00    +0.143 A 
ATOM      4  C   UNL     1       9.693   0.903  23.704  0.00  0.00    +0.028 A 
ATOM      5  C   UNL     1       9.554   0.149  22.519  0.00  0.00    +0.006 A 
ATOM      6  C   UNL     1       8.796   0.703  21.480  0.00  0.00    +0.117 A 
ATOM      7  N   UNL     1       8.207   1.907  21.510  0.00  0.00    -0.256 NA
ENDROOT
BRANCH   3   8
ATOM      8  O   UNL     1       9.095   2.953  24.861  0.00  0.00    -0.505 OA
ATOM      9  H   UNL     1       8.263   3.479  24.873  0.00  0.00    +0.292 HD
ENDBRANCH   3   8
BRANCH   4  10
ATOM     10  C   UNL     1      10.517   0.366  24.850  0.00  0.00    +0.195 C 
BRANCH  10  11
ATOM     11  O   UNL     1       9.717   0.044  25.987  0.00  0.00    -0.390 OA
ATOM     12  H   UNL     1       9.957   0.681  26.687  0.00  0.00    +0.210 HD
ENDBRANCH  10  11
ENDBRANCH   4  10
BRANCH   5  13
ATOM     13  C   UNL     1      10.151  -1.218  22.304  0.00  0.00    +0.209 C 
BRANCH  13  14
ATOM     14  O   UNL     1       9.083  -2.144  22.283  0.00  0.00    -0.282 OA
BRANCH  14  15
ATOM     15  P   UNL     1       8.680  -2.866  23.644  0.00  0.00    +0.473 P 
ATOM     16  O   UNL     1       7.914  -2.036  24.615  0.00  0.00    -0.228 OA
BRANCH  15  17
ATOM     17  O   UNL     1      10.109  -3.384  24.128  0.00  0.00    -0.303 OA
ATOM     18  H   UNL     1      10.328  -3.060  25.020  0.00  0.00    +0.222 HD
ENDBRANCH  15  17
BRANCH  15  19
ATOM     19  O   UNL     1       7.980  -4.202  23.130  0.00  0.00    -0.303 OA
ATOM     20  H   UNL     1       8.324  -4.533  22.286  0.00  0.00    +0.222 HD
ENDBRANCH  15  19
ENDBRANCH  14  15
ENDBRANCH  13  14
ENDBRANCH   5  13
TORSDOF 8
ENDMDL
MODEL 7
REMARK VINA RESULT:      -4.8      4.383      6.942
REMARK  Name = 
REMARK  9 active torsions:
REMARK  status: ('A' for Active; 'I' for Inactive)
REMARK    1  A    between atoms: C_1  and  C_2
REMARK    2  A    between atoms: C_5  and  C_6
REMARK    3  A    between atoms: C_6  and  O_7
REMARK    4  A    between atoms: O_7  and  P_8
REMARK    5  A    between atoms: P_8  and  O_9
REMARK    6  A    between atoms: P_8  and  O_10
REMARK    7  A    between atoms: C_12  and  C_13
REMARK    8  A    between atoms: C_13  and  O_14
REMARK    9  A    between atoms: C_15  and  O_16
REMARK                            x       y       z     vdW  Elec       q    Type
REMARK                         _______ _______ _______ _____ _____    ______ ____
ROOT
ATOM      1  C   UNL     1       8.580  -1.399  22.339  0.00  0.00    +0.069 C 
ATOM      2  C   UNL     1       8.070  -2.491  23.229  0.00  0.00    +0.080 A 
ATOM      3  C   UNL     1       8.952  -3.322  23.923  0.00  0.00    +0.143 A 
ATOM      4  C   UNL     1       8.463  -4.389  24.702  0.00  0.00    +0.028 A 
ATOM      5  C   UNL     1       7.062  -4.552  24.768  0.00  0.00    +0.006 A 
ATOM      6  C   UNL     1       6.267  -3.642  24.061  0.00  0.00    +0.117 A 
ATOM      7  N   UNL     1       6.729  -2.637  23.302  0.00  0.00    -0.256 NA
ENDROOT
BRANCH   3   8
ATOM      8  O   UNL     1      10.288  -3.050  23.824  0.00  0.00    -0.505 OA
ATOM      9  H   UNL     1      10.713  -3.366  24.653  0.00  0.00    +0.292 HD
ENDBRANCH   3   8
BRANCH   4  10
ATOM     10  C   UNL     1       9.371  -5.353  25.426  0.00  0.00    +0.195 C 
BRANCH  10  11
ATOM     11  O   UNL     1       9.628  -4.947  26.770  0.00  0.00    -0.390 OA
ATOM     12  H   UNL     1       8.782  -5.024  27.252  0.00  0.00    +0.210 HD
ENDBRANCH  10  11
ENDBRANCH   4  10
BRANCH   5  13
ATOM     13  C   UNL     1       6.366  -5.626  25.563  0.00  0.00    +0.209 C 
BRANCH  13  14
ATOM     14  O   UNL     1       5.872  -5.023  26.742  0.00  0.00    -0.282 OA
BRANCH  14  15
ATOM     15  P   UNL     1       5.942  -5.850  28.102  0.00  0.00    +0.473 P 
ATOM     16  O   UNL     1       5.424  -5.151  29.311  0.00  0.00    -0.228 OA
BRANCH  15  17
ATOM     17  O   UNL     1       7.487  -6.245  28.119  0.00  0.00    -0.303 OA
ATOM     18  H   UNL     1       7.980  -5.746  28.795  0.00  0.00    +0.222 HD
ENDBRANCH  15  17
BRANCH  15  19
ATOM     19  O   UNL     1       5.235  -7.223  27.706  0.00  0.00    -0.303 OA
ATOM     20  H   UNL     1       5.555  -7.992  28.201  0.00  0.00    +0.222 HD
ENDBRANCH  15  19
ENDBRANCH  14  15
ENDBRANCH  13  14
ENDBRANCH   5  13
TORSDOF 8
ENDMDL
MODEL 8
REMARK VINA RESULT:      -4.7      3.136      5.536
REMARK  Name = 
REMARK  9 active torsions:
REMARK  status: ('A' for Active; 'I' for Inactive)
REMARK    1  A    between atoms: C_1  and  C_2
REMARK    2  A    between atoms: C_5  and  C_6
REMARK    3  A    between atoms: C_6  and  O_7
REMARK    4  A    between atoms: O_7  and  P_8
REMARK    5  A    between atoms: P_8  and  O_9
REMARK    6  A    between atoms: P_8  and  O_10
REMARK    7  A    between atoms: C_12  and  C_13
REMARK    8  A    between atoms: C_13  and  O_14
REMARK    9  A    between atoms: C_15  and  O_16
REMARK                            x       y       z     vdW  Elec       q    Type
REMARK                         _______ _______ _______ _____ _____    ______ ____
ROOT
ATOM      1  C   UNL     1       8.396   2.713  23.221  0.00  0.00    +0.069 C 
ATOM      2  C   UNL     1       8.667   1.245  23.344  0.00  0.00    +0.080 A 
ATOM      3  C   UNL     1       7.669   0.306  23.079  0.00  0.00    +0.143 A 
ATOM      4  C   UNL     1       7.914  -1.068  23.265  0.00  0.00    +0.028 A 
ATOM      5  C   UNL     1       9.206  -1.442  23.696  0.00  0.00    +0.006 A 
ATOM      6  C   UNL     1      10.143  -0.423  23.900  0.00  0.00    +0.117 A 
ATOM      7  N   UNL     1       9.908   0.888  23.743  0.00  0.00    -0.256 NA
ENDROOT
BRANCH   3   8
ATOM      8  O   UNL     1       6.465   0.773  22.625  0.00  0.00    -0.505 OA
ATOM      9  H   UNL     1       6.404   1.721  22.884  0.00  0.00    +0.292 HD
ENDBRANCH   3   8
BRANCH   4  10
ATOM     10  C   UNL     1       6.855  -2.122  23.050  0.00  0.00    +0.195 C 
BRANCH  10  11
ATOM     11  O   UNL     1       6.240  -2.530  24.272  0.00  0.00    -0.390 OA
ATOM     12  H   UNL     1       5.398  -2.961  24.031  0.00  0.00    +0.210 HD
ENDBRANCH  10  11
ENDBRANCH   4  10
BRANCH   5  13
ATOM     13  C   UNL     1       9.647  -2.863  23.930  0.00  0.00    +0.209 C 
BRANCH  13  14
ATOM     14  O   UNL     1       9.229  -3.224  25.232  0.00  0.00    -0.282 OA
BRANCH  14  15
ATOM     15  P   UNL     1       8.904  -4.755  25.526  0.00  0.00    +0.473 P 
ATOM     16  O   UNL     1       7.549  -5.219  25.117  0.00  0.00    -0.228 OA
BRANCH  15  17
ATOM     17  O   UNL     1       9.237  -4.825  27.084  0.00  0.00    -0.303 OA
ATOM     18  H   UNL     1       9.106  -5.722  27.442  0.00  0.00    +0.222 HD
ENDBRANCH  15  17
BRANCH  15  19
ATOM     19  O   UNL     1      10.150  -5.502  24.869  0.00  0.00    -0.303 OA
ATOM     20  H   UNL     1      10.487  -6.247  25.391  0.00  0.00    +0.222 HD
ENDBRANCH  15  19
ENDBRANCH  14  15
ENDBRANCH  13  14
ENDBRANCH   5  13
TORSDOF 8
ENDMDL
MODEL 9
REMARK VINA RESULT:      -4.7      3.161      4.721
REMARK  Name = 
REMARK  9 active torsions:
REMARK  status: ('A' for Active; 'I' for Inactive)
REMARK    1  A    between atoms: C_1  and  C_2
REMARK    2  A    between atoms: C_5  and  C_6
REMARK    3  A    between atoms: C_6  and  O_7
REMARK    4  A    between atoms: O_7  and  P_8
REMARK    5  A    between atoms: P_8  and  O_9
REMARK    6  A    between atoms: P_8  and  O_10
REMARK    7  A    between atoms: C_12  and  C_13
REMARK    8  A    between atoms: C_13  and  O_14
REMARK    9  A    between atoms: C_15  and  O_16
REMARK                            x       y       z     vdW  Elec       q    Type
REMARK                         _______ _______ _______ _____ _____    ______ ____
ROOT
ATOM      1  C   UNL     1       4.465  -5.965  23.308  0.00  0.00    +0.069 C 
ATOM      2  C   UNL     1       5.790  -5.368  23.670  0.00  0.00    +0.080 A 
ATOM      3  C   UNL     1       6.237  -5.361  24.992  0.00  0.00    +0.143 A 
ATOM      4  C   UNL     1       7.453  -4.735  25.331  0.00  0.00    +0.028 A 
ATOM      5  C   UNL     1       8.196  -4.155  24.280  0.00  0.00    +0.006 A 
ATOM      6  C   UNL     1       7.673  -4.249  22.984  0.00  0.00    +0.117 A 
ATOM      7  N   UNL     1       6.507  -4.826  22.660  0.00  0.00    -0.256 NA
ENDROOT
BRANCH   3   8
ATOM      8  O   UNL     1       5.459  -5.989  25.926  0.00  0.00    -0.505 OA
ATOM      9  H   UNL     1       5.649  -6.953  25.864  0.00  0.00    +0.292 HD
ENDBRANCH   3   8
BRANCH   4  10
ATOM     10  C   UNL     1       7.956  -4.647  26.751  0.00  0.00    +0.195 C 
BRANCH  10  11
ATOM     11  O   UNL     1       7.971  -5.919  27.400  0.00  0.00    -0.390 OA
ATOM     12  H   UNL     1       8.906  -6.122  27.593  0.00  0.00    +0.210 HD
ENDBRANCH  10  11
ENDBRANCH   4  10
BRANCH   5  13
ATOM     13  C   UNL     1       9.521  -3.462  24.457  0.00  0.00    +0.209 C 
BRANCH  13  14
ATOM     14  O   UNL     1       9.262  -2.075  24.543  0.00  0.00    -0.282 OA
BRANCH  14  15
ATOM     15  P   UNL     1       9.837  -1.124  23.402  0.00  0.00    +0.473 P 
ATOM     16  O   UNL     1      10.675  -1.790  22.367  0.00  0.00    -0.228 OA
BRANCH  15  17
ATOM     17  O   UNL     1      10.560  -0.014  24.291  0.00  0.00    -0.303 OA
ATOM     18  H   UNL     1      10.055   0.188  25.099  0.00  0.00    +0.222 HD
ENDBRANCH  15  17
BRANCH  15  19
ATOM     19  O   UNL     1       8.530  -0.368  22.894  0.00  0.00    -0.303 OA
ATOM     20  H   UNL     1       8.583  -0.054  21.978  0.00  0.00    +0.222 HD
ENDBRANCH  15  19
ENDBRANCH  14  15
ENDBRANCH  13  14
ENDBRANCH   5  13
TORSDOF 8
ENDMDL
