MODEL 1
REMARK VINA RESULT:      -8.6      0.000      0.000
REMARK  Name = 
REMARK  9 active torsions:
REMARK  status: ('A' for Active; 'I' for Inactive)
REMARK    1  A    between atoms: O_1  and  C_2
REMARK    2  A    between atoms: C_2  and  C_3
REMARK    3  A    between atoms: C_3  and  O_4
REMARK    4  A    between atoms: C_3  and  C_5
REMARK    5  A    between atoms: C_10  and  C_13
REMARK    6  A    between atoms: C_17  and  N_21
REMARK    7  A    between atoms: C_23  and  C_24
REMARK    8  A    between atoms: C_24  and  O_25
REMARK    9  A    between atoms: O_25  and  C_26
REMARK                            x       y       z     vdW  Elec       q    Type
REMARK                         _______ _______ _______ _____ _____    ______ ____
ROOT
ATOM      1  C   UNL     1       8.411   0.082  23.408  0.00  0.00    +0.048 A 
ATOM      2  C   UNL     1       7.636  -0.455  24.449  0.00  0.00    +0.135 A 
ATOM      3  F   UNL     1       7.447   0.231  25.590  0.00  0.00    -0.205 F 
ATOM      4  C   UNL     1       7.043  -1.722  24.378  0.00  0.00    +0.062 A 
ATOM      5  C   UNL     1       7.216  -2.535  23.257  0.00  0.00    +0.045 A 
ATOM      6  C   UNL     1       8.006  -2.033  22.224  0.00  0.00    +0.062 A 
ATOM      7  C   UNL     1       8.587  -0.762  22.304  0.00  0.00    +0.135 A 
ATOM      8  F   UNL     1       9.325  -0.381  21.251  0.00  0.00    -0.205 F 
ENDROOT
BRANCH   1  13
ATOM      9  C   UNL     1      10.775   5.390  23.667  0.00  0.00    +0.247 C 
ATOM     10  N   UNL     1      10.221   4.106  23.623  0.00  0.00    -0.295 N 
ATOM     11  C   UNL     1      11.053   2.919  23.727  0.00  0.00    +0.135 C 
ATOM     12  C   UNL     1      10.335   1.622  23.616  0.00  0.00    -0.004 C 
ATOM     13  C   UNL     1       9.014   1.446  23.465  0.00  0.00    -0.036 C 
ATOM     14  C   UNL     1       8.112   2.646  23.430  0.00  0.00    +0.054 C 
ATOM     15  C   UNL     1       8.785   4.021  23.398  0.00  0.00    +0.113 C 
ATOM     16  O   UNL     1      10.085   6.401  23.509  0.00  0.00    -0.273 OA
BRANCH   9  17
ATOM     17  C   UNL     1      12.274   5.514  24.004  0.00  0.00    +0.225 C 
BRANCH  17  18
ATOM     18  O   UNL     1      12.483   6.722  24.745  0.00  0.00    -0.380 OA
ATOM     19  H   UNL     1      13.240   7.175  24.335  0.00  0.00    +0.211 HD
ENDBRANCH  17  18
BRANCH  17  20
ATOM     20  C   UNL     1      13.111   5.507  22.719  0.00  0.00    +0.196 C 
BRANCH  20  21
ATOM     21  O   UNL     1      14.445   5.085  23.004  0.00  0.00    -0.392 OA
ATOM     22  H   UNL     1      14.493   4.135  22.803  0.00  0.00    +0.210 HD
ENDBRANCH  20  21
ENDBRANCH  17  20
ENDBRANCH   9  17
ENDBRANCH   1  13
BRANCH   5  23
ATOM     23  N   UNL     1       6.663  -3.837  23.196  0.00  0.00    -0.233 N 
ATOM     24  C   UNL     1       7.320  -5.042  23.436  0.00  0.00    +0.408 C 
ATOM     25  O   UNL     1       8.511  -5.246  23.586  0.00  0.00    -0.226 OA
ATOM     26  O   UNL     1       6.396  -6.056  23.493  0.00  0.00    -0.442 OA
ATOM     27  C   UNL     1       5.098  -5.457  23.572  0.00  0.00    +0.233 C 
ATOM     28  C   UNL     1       5.295  -4.126  22.878  0.00  0.00    +0.165 C 
BRANCH  27  29
ATOM     29  C   UNL     1       4.689  -5.237  25.035  0.00  0.00    +0.277 C 
BRANCH  29  30
ATOM     30  O   UNL     1       4.713  -6.477  25.748  0.00  0.00    -0.471 OA
BRANCH  30  31
ATOM     31  C   UNL     1       5.441  -6.398  26.888  0.00  0.00    +0.255 A 
ATOM     32  C   UNL     1       4.993  -6.693  28.184  0.00  0.00    +0.111 A 
ATOM     33  C   UNL     1       6.092  -6.440  28.964  0.00  0.00    +0.234 A 
ATOM     34  O   UNL     1       7.119  -6.008  28.188  0.00  0.00    -0.360 OA
ATOM     35  N   UNL     1       6.707  -5.976  26.864  0.00  0.00    -0.040 NA
ENDBRANCH  30  31
ENDBRANCH  29  30
ENDBRANCH  27  29
ENDBRANCH   5  23
TORSDOF 9
ENDMDL
MODEL 2
REMARK VINA RESULT:      -8.5      0.162      1.440
REMARK  Name = 
REMARK  9 active torsions:
REMARK  status: ('A' for Active; 'I' for Inactive)
REMARK    1  A    between atoms: O_1  and  C_2
REMARK    2  A    between atoms: C_2  and  C_3
REMARK    3  A    between atoms: C_3  and  O_4
REMARK    4  A    between atoms: C_3  and  C_5
REMARK    5  A    between atoms: C_10  and  C_13
REMARK    6  A    between atoms: C_17  and  N_21
REMARK    7  A    between atoms: C_23  and  C_24
REMARK    8  A    between atoms: C_24  and  O_25
REMARK    9  A    between atoms: O_25  and  C_26
REMARK                            x       y       z     vdW  Elec       q    Type
REMARK                         _______ _______ _______ _____ _____    ______ ____
ROOT
ATOM      1  C   UNL     1       8.298   0.143  23.332  0.00  0.00    +0.048 A 
ATOM      2  C   UNL     1       8.560  -0.757  22.286  0.00  0.00    +0.135 A 
ATOM      3  F   UNL     1       9.353  -0.406  21.258  0.00  0.00    -0.205 F 
ATOM      4  C   UNL     1       8.005  -2.043  22.234  0.00  0.00    +0.062 A 
ATOM      5  C   UNL     1       7.132  -2.489  23.226  0.00  0.00    +0.045 A 
ATOM      6  C   UNL     1       6.836  -1.601  24.259  0.00  0.00    +0.062 A 
ATOM      7  C   UNL     1       7.403  -0.322  24.303  0.00  0.00    +0.135 A 
ATOM      8  F   UNL     1       7.049   0.447  25.344  0.00  0.00    -0.205 F 
ENDROOT
BRANCH   1  13
ATOM      9  C   UNL     1      10.726   5.417  23.670  0.00  0.00    +0.247 C 
ATOM     10  N   UNL     1      10.156   4.141  23.606  0.00  0.00    -0.295 N 
ATOM     11  C   UNL     1      10.973   2.942  23.699  0.00  0.00    +0.135 C 
ATOM     12  C   UNL     1      10.240   1.656  23.568  0.00  0.00    -0.004 C 
ATOM     13  C   UNL     1       8.917   1.499  23.409  0.00  0.00    -0.036 C 
ATOM     14  C   UNL     1       8.031   2.710  23.385  0.00  0.00    +0.054 C 
ATOM     15  C   UNL     1       8.720   4.077  23.374  0.00  0.00    +0.113 C 
ATOM     16  O   UNL     1      10.050   6.439  23.522  0.00  0.00    -0.273 OA
BRANCH   9  17
ATOM     17  C   UNL     1      12.225   5.518  24.015  0.00  0.00    +0.225 C 
BRANCH  17  18
ATOM     18  O   UNL     1      12.445   6.711  24.777  0.00  0.00    -0.380 OA
ATOM     19  H   UNL     1      13.358   6.995  24.596  0.00  0.00    +0.211 HD
ENDBRANCH  17  18
BRANCH  17  20
ATOM     20  C   UNL     1      13.067   5.523  22.733  0.00  0.00    +0.196 C 
BRANCH  20  21
ATOM     21  O   UNL     1      14.399   5.094  23.020  0.00  0.00    -0.392 OA
ATOM     22  H   UNL     1      14.881   5.866  23.362  0.00  0.00    +0.210 HD
ENDBRANCH  20  21
ENDBRANCH  17  20
ENDBRANCH   9  17
ENDBRANCH   1  13
BRANCH   5  23
ATOM     23  N   UNL     1       6.526  -3.767  23.157  0.00  0.00    -0.233 N 
ATOM     24  C   UNL     1       7.148  -5.003  23.323  0.00  0.00    +0.408 C 
ATOM     25  O   UNL     1       8.337  -5.256  23.399  0.00  0.00    -0.226 OA
ATOM     26  O   UNL     1       6.190  -5.983  23.401  0.00  0.00    -0.442 OA
ATOM     27  C   UNL     1       4.922  -5.340  23.572  0.00  0.00    +0.233 C 
ATOM     28  C   UNL     1       5.133  -3.995  22.909  0.00  0.00    +0.165 C 
BRANCH  27  29
ATOM     29  C   UNL     1       4.605  -5.152  25.062  0.00  0.00    +0.277 C 
BRANCH  29  30
ATOM     30  O   UNL     1       4.661  -6.409  25.743  0.00  0.00    -0.471 OA
BRANCH  30  31
ATOM     31  C   UNL     1       5.415  -6.351  26.866  0.00  0.00    +0.255 A 
ATOM     32  C   UNL     1       4.981  -6.603  28.175  0.00  0.00    +0.111 A 
ATOM     33  C   UNL     1       6.108  -6.396  28.929  0.00  0.00    +0.234 A 
ATOM     34  O   UNL     1       7.139  -6.028  28.124  0.00  0.00    -0.360 OA
ATOM     35  N   UNL     1       6.701  -5.996  26.809  0.00  0.00    -0.040 NA
ENDBRANCH  30  31
ENDBRANCH  29  30
ENDBRANCH  27  29
ENDBRANCH   5  23
TORSDOF 9
ENDMDL
MODEL 3
REMARK VINA RESULT:      -7.8      1.857      2.294
REMARK  Name = 
REMARK  9 active torsions:
REMARK  status: ('A' for Active; 'I' for Inactive)
REMARK    1  A    between atoms: O_1  and  C_2
REMARK    2  A    between atoms: C_2  and  C_3
REMARK    3  A    between atoms: C_3  and  O_4
REMARK    4  A    between atoms: C_3  and  C_5
REMARK    5  A    between atoms: C_10  and  C_13
REMARK    6  A    between atoms: C_17  and  N_21
REMARK    7  A    between atoms: C_23  and  C_24
REMARK    8  A    between atoms: C_24  and  O_25
REMARK    9  A    between atoms: O_25  and  C_26
REMARK                            x       y       z     vdW  Elec       q    Type
REMARK                         _______ _______ _______ _____ _____    ______ ____
ROOT
ATOM      1  C   UNL     1       8.629   0.154  23.061  0.00  0.00    +0.048 A 
ATOM      2  C   UNL     1       7.662  -0.408  23.910  0.00  0.00    +0.135 A 
ATOM      3  F   UNL     1       7.207   0.269  24.979  0.00  0.00    -0.205 F 
ATOM      4  C   UNL     1       7.138  -1.694  23.718  0.00  0.00    +0.062 A 
ATOM      5  C   UNL     1       7.578  -2.499  22.666  0.00  0.00    +0.045 A 
ATOM      6  C   UNL     1       8.558  -1.971  21.828  0.00  0.00    +0.062 A 
ATOM      7  C   UNL     1       9.068  -0.682  22.027  0.00  0.00    +0.135 A 
ATOM      8  F   UNL     1      10.006  -0.277  21.159  0.00  0.00    -0.205 F 
ENDROOT
BRANCH   1  13
ATOM      9  C   UNL     1      10.721   5.530  23.798  0.00  0.00    +0.247 C 
ATOM     10  N   UNL     1      10.234   4.230  23.638  0.00  0.00    -0.295 N 
ATOM     11  C   UNL     1      11.127   3.083  23.618  0.00  0.00    +0.135 C 
ATOM     12  C   UNL     1      10.475   1.767  23.393  0.00  0.00    -0.004 C 
ATOM     13  C   UNL     1       9.162   1.537  23.241  0.00  0.00    -0.036 C 
ATOM     14  C   UNL     1       8.200   2.686  23.331  0.00  0.00    +0.054 C 
ATOM     15  C   UNL     1       8.800   4.091  23.423  0.00  0.00    +0.113 C 
ATOM     16  O   UNL     1       9.978   6.515  23.746  0.00  0.00    -0.273 OA
BRANCH   9  17
ATOM     17  C   UNL     1      12.217   5.700  24.128  0.00  0.00    +0.225 C 
BRANCH  17  18
ATOM     18  O   UNL     1      12.399   6.937  24.829  0.00  0.00    -0.380 OA
ATOM     19  H   UNL     1      12.784   6.715  25.695  0.00  0.00    +0.211 HD
ENDBRANCH  17  18
BRANCH  17  20
ATOM     20  C   UNL     1      13.053   5.673  22.842  0.00  0.00    +0.196 C 
BRANCH  20  21
ATOM     21  O   UNL     1      14.343   5.120  23.106  0.00  0.00    -0.392 OA
ATOM     22  H   UNL     1      14.386   4.262  22.650  0.00  0.00    +0.210 HD
ENDBRANCH  20  21
ENDBRANCH  17  20
ENDBRANCH   9  17
ENDBRANCH   1  13
BRANCH   5  23
ATOM     23  N   UNL     1       7.092  -3.818  22.493  0.00  0.00    -0.233 N 
ATOM     24  C   UNL     1       7.502  -4.961  23.175  0.00  0.00    +0.408 C 
ATOM     25  O   UNL     1       8.448  -5.104  23.929  0.00  0.00    -0.226 OA
ATOM     26  O   UNL     1       6.645  -5.993  22.880  0.00  0.00    -0.442 OA
ATOM     27  C   UNL     1       5.503  -5.436  22.221  0.00  0.00    +0.233 C 
ATOM     28  C   UNL     1       6.064  -4.191  21.566  0.00  0.00    +0.165 C 
BRANCH  27  29
ATOM     29  C   UNL     1       4.419  -5.057  23.239  0.00  0.00    +0.277 C 
BRANCH  29  30
ATOM     30  O   UNL     1       3.151  -5.577  22.829  0.00  0.00    -0.471 OA
BRANCH  30  31
ATOM     31  C   UNL     1       2.580  -6.348  23.784  0.00  0.00    +0.255 A 
ATOM     32  C   UNL     1       3.132  -6.676  25.031  0.00  0.00    +0.111 A 
ATOM     33  C   UNL     1       2.177  -7.479  25.600  0.00  0.00    +0.234 A 
ATOM     34  O   UNL     1       1.135  -7.633  24.742  0.00  0.00    -0.360 OA
ATOM     35  N   UNL     1       1.389  -6.917  23.583  0.00  0.00    -0.040 NA
ENDBRANCH  30  31
ENDBRANCH  29  30
ENDBRANCH  27  29
ENDBRANCH   5  23
TORSDOF 9
ENDMDL
MODEL 4
REMARK VINA RESULT:      -7.7      1.716      2.518
REMARK  Name = 
REMARK  9 active torsions:
REMARK  status: ('A' for Active; 'I' for Inactive)
REMARK    1  A    between atoms: O_1  and  C_2
REMARK    2  A    between atoms: C_2  and  C_3
REMARK    3  A    between atoms: C_3  and  O_4
REMARK    4  A    between atoms: C_3  and  C_5
REMARK    5  A    between atoms: C_10  and  C_13
REMARK    6  A    between atoms: C_17  and  N_21
REMARK    7  A    between atoms: C_23  and  C_24
REMARK    8  A    between atoms: C_24  and  O_25
REMARK    9  A    between atoms: O_25  and  C_26
REMARK                            x       y       z     vdW  Elec       q    Type
REMARK                         _______ _______ _______ _____ _____    ______ ____
ROOT
ATOM      1  C   UNL     1       8.472   0.068  23.414  0.00  0.00    +0.048 A 
ATOM      2  C   UNL     1       8.651  -0.793  22.319  0.00  0.00    +0.135 A 
ATOM      3  F   UNL     1       9.323  -0.385  21.227  0.00  0.00    -0.205 F 
ATOM      4  C   UNL     1       8.132  -2.094  22.282  0.00  0.00    +0.062 A 
ATOM      5  C   UNL     1       7.380  -2.597  23.344  0.00  0.00    +0.045 A 
ATOM      6  C   UNL     1       7.166  -1.749  24.430  0.00  0.00    +0.062 A 
ATOM      7  C   UNL     1       7.696  -0.454  24.457  0.00  0.00    +0.135 A 
ATOM      8  F   UNL     1       7.429   0.272  25.552  0.00  0.00    -0.205 F 
ENDROOT
BRANCH   1  13
ATOM      9  C   UNL     1      10.761   5.408  23.674  0.00  0.00    +0.247 C 
ATOM     10  N   UNL     1      10.226   4.117  23.629  0.00  0.00    -0.295 N 
ATOM     11  C   UNL     1      11.077   2.941  23.708  0.00  0.00    +0.135 C 
ATOM     12  C   UNL     1      10.376   1.635  23.601  0.00  0.00    -0.004 C 
ATOM     13  C   UNL     1       9.055   1.441  23.472  0.00  0.00    -0.036 C 
ATOM     14  C   UNL     1       8.135   2.627  23.462  0.00  0.00    +0.054 C 
ATOM     15  C   UNL     1       8.787   4.012  23.429  0.00  0.00    +0.113 C 
ATOM     16  O   UNL     1      10.054   6.410  23.536  0.00  0.00    -0.273 OA
BRANCH   9  17
ATOM     17  C   UNL     1      12.264   5.551  23.985  0.00  0.00    +0.225 C 
BRANCH  17  18
ATOM     18  O   UNL     1      12.468   6.755  24.735  0.00  0.00    -0.380 OA
ATOM     19  H   UNL     1      13.428   6.843  24.869  0.00  0.00    +0.211 HD
ENDBRANCH  17  18
BRANCH  17  20
ATOM     20  C   UNL     1      13.077   5.572  22.685  0.00  0.00    +0.196 C 
BRANCH  20  21
ATOM     21  O   UNL     1      14.415   5.137  22.935  0.00  0.00    -0.392 OA
ATOM     22  H   UNL     1      14.358   4.353  23.508  0.00  0.00    +0.210 HD
ENDBRANCH  20  21
ENDBRANCH  17  20
ENDBRANCH   9  17
ENDBRANCH   1  13
BRANCH   5  23
ATOM     23  N   UNL     1       6.808  -3.892  23.296  0.00  0.00    -0.233 N 
ATOM     24  C   UNL     1       6.774  -4.834  24.322  0.00  0.00    +0.408 C 
ATOM     25  O   UNL     1       7.350  -4.817  25.395  0.00  0.00    -0.226 OA
ATOM     26  O   UNL     1       5.946  -5.867  23.958  0.00  0.00    -0.442 OA
ATOM     27  C   UNL     1       5.214  -5.450  22.800  0.00  0.00    +0.233 C 
ATOM     28  C   UNL     1       6.146  -4.447  22.153  0.00  0.00    +0.165 C 
BRANCH  27  29
ATOM     29  C   UNL     1       3.899  -4.769  23.204  0.00  0.00    +0.277 C 
BRANCH  29  30
ATOM     30  O   UNL     1       3.529  -5.154  24.531  0.00  0.00    -0.471 OA
BRANCH  30  31
ATOM     31  C   UNL     1       3.145  -4.096  25.284  0.00  0.00    +0.255 A 
ATOM     32  C   UNL     1       2.148  -4.094  26.271  0.00  0.00    +0.111 A 
ATOM     33  C   UNL     1       2.140  -2.796  26.712  0.00  0.00    +0.234 A 
ATOM     34  O   UNL     1       3.058  -2.070  26.022  0.00  0.00    -0.360 OA
ATOM     35  N   UNL     1       3.698  -2.894  25.109  0.00  0.00    -0.040 NA
ENDBRANCH  30  31
ENDBRANCH  29  30
ENDBRANCH  27  29
ENDBRANCH   5  23
TORSDOF 9
ENDMDL
MODEL 5
REMARK VINA RESULT:      -7.7      1.621      2.561
REMARK  Name = 
REMARK  9 active torsions:
REMARK  status: ('A' for Active; 'I' for Inactive)
REMARK    1  A    between atoms: O_1  and  C_2
REMARK    2  A    between atoms: C_2  and  C_3
REMARK    3  A    between atoms: C_3  and  O_4
REMARK    4  A    between atoms: C_3  and  C_5
REMARK    5  A    between atoms: C_10  and  C_13
REMARK    6  A    between atoms: C_17  and  N_21
REMARK    7  A    between atoms: C_23  and  C_24
REMARK    8  A    between atoms: C_24  and  O_25
REMARK    9  A    between atoms: O_25  and  C_26
REMARK                            x       y       z     vdW  Elec       q    Type
REMARK                         _______ _______ _______ _____ _____    ______ ____
ROOT
ATOM      1  C   UNL     1       7.498   0.718  23.894  0.00  0.00    +0.048 A 
ATOM      2  C   UNL     1       7.586  -0.296  22.926  0.00  0.00    +0.135 A 
ATOM      3  F   UNL     1       8.401  -0.165  21.865  0.00  0.00    -0.205 F 
ATOM      4  C   UNL     1       6.829  -1.473  22.990  0.00  0.00    +0.062 A 
ATOM      5  C   UNL     1       5.919  -1.687  24.025  0.00  0.00    +0.045 A 
ATOM      6  C   UNL     1       5.795  -0.680  24.981  0.00  0.00    +0.062 A 
ATOM      7  C   UNL     1       6.562   0.488  24.911  0.00  0.00    +0.135 A 
ATOM      8  F   UNL     1       6.362   1.388  25.884  0.00  0.00    -0.205 F 
ENDROOT
BRANCH   1  13
ATOM      9  C   UNL     1      10.757   5.534  23.756  0.00  0.00    +0.247 C 
ATOM     10  N   UNL     1       9.987   4.367  23.807  0.00  0.00    -0.295 N 
ATOM     11  C   UNL     1      10.604   3.058  23.942  0.00  0.00    +0.135 C 
ATOM     12  C   UNL     1       9.668   1.904  23.934  0.00  0.00    -0.004 C 
ATOM     13  C   UNL     1       8.330   1.957  23.850  0.00  0.00    -0.036 C 
ATOM     14  C   UNL     1       7.650   3.294  23.785  0.00  0.00    +0.054 C 
ATOM     15  C   UNL     1       8.548   4.526  23.649  0.00  0.00    +0.113 C 
ATOM     16  O   UNL     1      10.246   6.642  23.572  0.00  0.00    -0.273 OA
BRANCH   9  17
ATOM     17  C   UNL     1      12.270   5.408  24.023  0.00  0.00    +0.225 C 
BRANCH  17  18
ATOM     18  O   UNL     1      12.692   6.517  24.825  0.00  0.00    -0.380 OA
ATOM     19  H   UNL     1      13.281   6.159  25.511  0.00  0.00    +0.211 HD
ENDBRANCH  17  18
BRANCH  17  20
ATOM     20  C   UNL     1      13.041   5.365  22.698  0.00  0.00    +0.196 C 
BRANCH  20  21
ATOM     21  O   UNL     1      14.437   5.188  22.948  0.00  0.00    -0.392 OA
ATOM     22  H   UNL     1      14.756   6.001  23.375  0.00  0.00    +0.210 HD
ENDBRANCH  20  21
ENDBRANCH  17  20
ENDBRANCH   9  17
ENDBRANCH   1  13
BRANCH   5  23
ATOM     23  N   UNL     1       5.112  -2.850  24.071  0.00  0.00    -0.233 N 
ATOM     24  C   UNL     1       4.925  -3.785  23.054  0.00  0.00    +0.408 C 
ATOM     25  O   UNL     1       5.271  -3.725  21.888  0.00  0.00    -0.226 OA
ATOM     26  O   UNL     1       4.255  -4.872  23.559  0.00  0.00    -0.442 OA
ATOM     27  C   UNL     1       4.259  -4.761  24.987  0.00  0.00    +0.233 C 
ATOM     28  C   UNL     1       4.347  -3.266  25.210  0.00  0.00    +0.165 C 
BRANCH  27  29
ATOM     29  C   UNL     1       5.488  -5.460  25.583  0.00  0.00    +0.277 C 
BRANCH  29  30
ATOM     30  O   UNL     1       6.478  -5.670  24.572  0.00  0.00    -0.471 OA
BRANCH  30  31
ATOM     31  C   UNL     1       7.720  -5.329  24.992  0.00  0.00    +0.255 A 
ATOM     32  C   UNL     1       8.091  -4.980  26.299  0.00  0.00    +0.111 A 
ATOM     33  C   UNL     1       9.431  -4.713  26.188  0.00  0.00    +0.234 A 
ATOM     34  O   UNL     1       9.828  -4.875  24.899  0.00  0.00    -0.360 OA
ATOM     35  N   UNL     1       8.739  -5.264  24.133  0.00  0.00    -0.040 NA
ENDBRANCH  30  31
ENDBRANCH  29  30
ENDBRANCH  27  29
ENDBRANCH   5  23
TORSDOF 9
ENDMDL
MODEL 6
REMARK VINA RESULT:      -7.5      1.934      3.376
REMARK  Name = 
REMARK  9 active torsions:
REMARK  status: ('A' for Active; 'I' for Inactive)
REMARK    1  A    between atoms: O_1  and  C_2
REMARK    2  A    between atoms: C_2  and  C_3
REMARK    3  A    between atoms: C_3  and  O_4
REMARK    4  A    between atoms: C_3  and  C_5
REMARK    5  A    between atoms: C_10  and  C_13
REMARK    6  A    between atoms: C_17  and  N_21
REMARK    7  A    between atoms: C_23  and  C_24
REMARK    8  A    between atoms: C_24  and  O_25
REMARK    9  A    between atoms: O_25  and  C_26
REMARK                            x       y       z     vdW  Elec       q    Type
REMARK                         _______ _______ _______ _____ _____    ______ ____
ROOT
ATOM      1  C   UNL     1       8.153   0.097  25.053  0.00  0.00    +0.048 A 
ATOM      2  C   UNL     1       8.542  -0.669  26.164  0.00  0.00    +0.135 A 
ATOM      3  F   UNL     1       9.612  -0.320  26.901  0.00  0.00    -0.205 F 
ATOM      4  C   UNL     1       7.870  -1.835  26.554  0.00  0.00    +0.062 A 
ATOM      5  C   UNL     1       6.777  -2.311  25.830  0.00  0.00    +0.045 A 
ATOM      6  C   UNL     1       6.392  -1.582  24.707  0.00  0.00    +0.062 A 
ATOM      7  C   UNL     1       7.067  -0.414  24.331  0.00  0.00    +0.135 A 
ATOM      8  F   UNL     1       6.609   0.208  23.235  0.00  0.00    -0.205 F 
ENDROOT
BRANCH   1  13
ATOM      9  C   UNL     1      10.869   5.012  23.538  0.00  0.00    +0.247 C 
ATOM     10  N   UNL     1      10.235   3.824  23.916  0.00  0.00    -0.295 N 
ATOM     11  C   UNL     1      10.961   2.566  23.981  0.00  0.00    +0.135 C 
ATOM     12  C   UNL     1      10.150   1.377  24.351  0.00  0.00    -0.004 C 
ATOM     13  C   UNL     1       8.844   1.360  24.656  0.00  0.00    -0.036 C 
ATOM     14  C   UNL     1       8.076   2.650  24.674  0.00  0.00    +0.054 C 
ATOM     15  C   UNL     1       8.803   3.899  24.171  0.00  0.00    +0.113 C 
ATOM     16  O   UNL     1      10.246   6.070  23.412  0.00  0.00    -0.273 OA
BRANCH   9  17
ATOM     17  C   UNL     1      12.400   4.984  23.361  0.00  0.00    +0.225 C 
BRANCH  17  18
ATOM     18  O   UNL     1      12.994   5.858  24.328  0.00  0.00    -0.380 OA
ATOM     19  H   UNL     1      13.458   5.293  24.969  0.00  0.00    +0.211 HD
ENDBRANCH  17  18
BRANCH  17  20
ATOM     20  C   UNL     1      12.778   5.406  21.935  0.00  0.00    +0.196 C 
BRANCH  20  21
ATOM     21  O   UNL     1      14.073   6.008  21.930  0.00  0.00    -0.392 OA
ATOM     22  H   UNL     1      14.429   5.931  22.832  0.00  0.00    +0.210 HD
ENDBRANCH  20  21
ENDBRANCH  17  20
ENDBRANCH   9  17
ENDBRANCH   1  13
BRANCH   5  23
ATOM     23  N   UNL     1       6.122  -3.515  26.186  0.00  0.00    -0.233 N 
ATOM     24  C   UNL     1       5.132  -3.681  27.153  0.00  0.00    +0.408 C 
ATOM     25  O   UNL     1       4.740  -2.886  27.989  0.00  0.00    -0.226 OA
ATOM     26  O   UNL     1       4.603  -4.943  27.044  0.00  0.00    -0.442 OA
ATOM     27  C   UNL     1       5.060  -5.502  25.808  0.00  0.00    +0.233 C 
ATOM     28  C   UNL     1       6.377  -4.790  25.581  0.00  0.00    +0.165 C 
BRANCH  27  29
ATOM     29  C   UNL     1       4.081  -5.181  24.671  0.00  0.00    +0.277 C 
BRANCH  29  30
ATOM     30  O   UNL     1       4.251  -6.107  23.594  0.00  0.00    -0.471 OA
BRANCH  30  31
ATOM     31  C   UNL     1       4.990  -5.590  22.585  0.00  0.00    +0.255 A 
ATOM     32  C   UNL     1       5.997  -6.251  21.865  0.00  0.00    +0.111 A 
ATOM     33  C   UNL     1       6.435  -5.297  20.983  0.00  0.00    +0.234 A 
ATOM     34  O   UNL     1       5.748  -4.141  21.176  0.00  0.00    -0.360 OA
ATOM     35  N   UNL     1       4.829  -4.322  22.198  0.00  0.00    -0.040 NA
ENDBRANCH  30  31
ENDBRANCH  29  30
ENDBRANCH  27  29
ENDBRANCH   5  23
TORSDOF 9
ENDMDL
MODEL 7
REMARK VINA RESULT:      -7.1      1.977      3.182
REMARK  Name = 
REMARK  9 active torsions:
REMARK  status: ('A' for Active; 'I' for Inactive)
REMARK    1  A    between atoms: O_1  and  C_2
REMARK    2  A    between atoms: C_2  and  C_3
REMARK    3  A    between atoms: C_3  and  O_4
REMARK    4  A    between atoms: C_3  and  C_5
REMARK    5  A    between atoms: C_10  and  C_13
REMARK    6  A    between atoms: C_17  and  N_21
REMARK    7  A    between atoms: C_23  and  C_24
REMARK    8  A    between atoms: C_24  and  O_25
REMARK    9  A    between atoms: O_25  and  C_26
REMARK                            x       y       z     vdW  Elec       q    Type
REMARK                         _______ _______ _______ _____ _____    ______ ____
ROOT
ATOM      1  C   UNL     1       8.365   0.099  23.599  0.00  0.00    +0.048 A 
ATOM      2  C   UNL     1       8.365  -0.748  22.478  0.00  0.00    +0.135 A 
ATOM      3  F   UNL     1       8.904  -0.348  21.313  0.00  0.00    -0.205 F 
ATOM      4  C   UNL     1       7.793  -2.027  22.494  0.00  0.00    +0.062 A 
ATOM      5  C   UNL     1       7.166  -2.520  23.639  0.00  0.00    +0.045 A 
ATOM      6  C   UNL     1       7.130  -1.684  24.754  0.00  0.00    +0.062 A 
ATOM      7  C   UNL     1       7.711  -0.411  24.728  0.00  0.00    +0.135 A 
ATOM      8  F   UNL     1       7.619   0.306  25.857  0.00  0.00    -0.205 F 
ENDROOT
BRANCH   1  13
ATOM      9  C   UNL     1      10.881   5.343  23.623  0.00  0.00    +0.247 C 
ATOM     10  N   UNL     1      10.293   4.074  23.633  0.00  0.00    -0.295 N 
ATOM     11  C   UNL     1      11.099   2.865  23.625  0.00  0.00    +0.135 C 
ATOM     12  C   UNL     1      10.340   1.588  23.589  0.00  0.00    -0.004 C 
ATOM     13  C   UNL     1       9.006   1.448  23.596  0.00  0.00    -0.036 C 
ATOM     14  C   UNL     1       8.138   2.670  23.680  0.00  0.00    +0.054 C 
ATOM     15  C   UNL     1       8.838   4.028  23.582  0.00  0.00    +0.113 C 
ATOM     16  O   UNL     1      10.205   6.373  23.559  0.00  0.00    -0.273 OA
BRANCH   9  17
ATOM     17  C   UNL     1      12.413   5.425  23.779  0.00  0.00    +0.225 C 
BRANCH  17  18
ATOM     18  O   UNL     1      12.721   6.327  24.848  0.00  0.00    -0.380 OA
ATOM     19  H   UNL     1      13.656   6.186  25.074  0.00  0.00    +0.211 HD
ENDBRANCH  17  18
BRANCH  17  20
ATOM     20  C   UNL     1      13.057   5.890  22.467  0.00  0.00    +0.196 C 
BRANCH  20  21
ATOM     21  O   UNL     1      12.754   4.969  21.418  0.00  0.00    -0.392 OA
ATOM     22  H   UNL     1      12.682   5.484  20.597  0.00  0.00    +0.210 HD
ENDBRANCH  20  21
ENDBRANCH  17  20
ENDBRANCH   9  17
ENDBRANCH   1  13
BRANCH   5  23
ATOM     23  N   UNL     1       6.542  -3.790  23.651  0.00  0.00    -0.233 N 
ATOM     24  C   UNL     1       6.788  -4.841  24.533  0.00  0.00    +0.408 C 
ATOM     25  O   UNL     1       7.677  -4.954  25.357  0.00  0.00    -0.226 OA
ATOM     26  O   UNL     1       5.832  -5.811  24.355  0.00  0.00    -0.442 OA
ATOM     27  C   UNL     1       4.792  -5.255  23.545  0.00  0.00    +0.233 C 
ATOM     28  C   UNL     1       5.519  -4.203  22.734  0.00  0.00    +0.165 C 
BRANCH  27  29
ATOM     29  C   UNL     1       3.714  -4.599  24.419  0.00  0.00    +0.277 C 
BRANCH  29  30
ATOM     30  O   UNL     1       2.787  -5.584  24.885  0.00  0.00    -0.471 OA
BRANCH  30  31
ATOM     31  C   UNL     1       1.986  -6.043  23.896  0.00  0.00    +0.255 A 
ATOM     32  C   UNL     1       1.126  -5.276  23.095  0.00  0.00    +0.111 A 
ATOM     33  C   UNL     1       0.541  -6.207  22.275  0.00  0.00    +0.234 A 
ATOM     34  O   UNL     1       1.007  -7.446  22.579  0.00  0.00    -0.360 OA
ATOM     35  N   UNL     1       1.925  -7.347  23.613  0.00  0.00    -0.040 NA
ENDBRANCH  30  31
ENDBRANCH  29  30
ENDBRANCH  27  29
ENDBRANCH   5  23
TORSDOF 9
ENDMDL
MODEL 8
REMARK VINA RESULT:      -7.0      1.860      3.070
REMARK  Name = 
REMARK  9 active torsions:
REMARK  status: ('A' for Active; 'I' for Inactive)
REMARK    1  A    between atoms: O_1  and  C_2
REMARK    2  A    between atoms: C_2  and  C_3
REMARK    3  A    between atoms: C_3  and  O_4
REMARK    4  A    between atoms: C_3  and  C_5
REMARK    5  A    between atoms: C_10  and  C_13
REMARK    6  A    between atoms: C_17  and  N_21
REMARK    7  A    between atoms: C_23  and  C_24
REMARK    8  A    between atoms: C_24  and  O_25
REMARK    9  A    between atoms: O_25  and  C_26
REMARK                            x       y       z     vdW  Elec       q    Type
REMARK                         _______ _______ _______ _____ _____    ______ ____
ROOT
ATOM      1  C   UNL     1       7.585   0.537  25.221  0.00  0.00    +0.048 A 
ATOM      2  C   UNL     1       7.294   0.273  26.569  0.00  0.00    +0.135 A 
ATOM      3  F   UNL     1       7.784   1.058  27.545  0.00  0.00    -0.205 F 
ATOM      4  C   UNL     1       6.512  -0.816  26.977  0.00  0.00    +0.062 A 
ATOM      5  C   UNL     1       5.995  -1.718  26.047  0.00  0.00    +0.045 A 
ATOM      6  C   UNL     1       6.296  -1.490  24.705  0.00  0.00    +0.062 A 
ATOM      7  C   UNL     1       7.072  -0.394  24.309  0.00  0.00    +0.135 A 
ATOM      8  F   UNL     1       7.297  -0.273  22.993  0.00  0.00    -0.205 F 
ENDROOT
BRANCH   1  13
ATOM      9  C   UNL     1      10.732   5.129  23.534  0.00  0.00    +0.247 C 
ATOM     10  N   UNL     1       9.993   4.018  23.955  0.00  0.00    -0.295 N 
ATOM     11  C   UNL     1      10.619   2.719  24.141  0.00  0.00    +0.135 C 
ATOM     12  C   UNL     1       9.704   1.620  24.544  0.00  0.00    -0.004 C 
ATOM     13  C   UNL     1       8.387   1.717  24.780  0.00  0.00    -0.036 C 
ATOM     14  C   UNL     1       7.718   3.057  24.671  0.00  0.00    +0.054 C 
ATOM     15  C   UNL     1       8.561   4.213  24.127  0.00  0.00    +0.113 C 
ATOM     16  O   UNL     1      10.197   6.218  23.306  0.00  0.00    -0.273 OA
BRANCH   9  17
ATOM     17  C   UNL     1      12.263   4.979  23.442  0.00  0.00    +0.225 C 
BRANCH  17  18
ATOM     18  O   UNL     1      12.873   5.879  24.375  0.00  0.00    -0.380 OA
ATOM     19  H   UNL     1      13.317   6.569  23.851  0.00  0.00    +0.211 HD
ENDBRANCH  17  18
BRANCH  17  20
ATOM     20  C   UNL     1      12.740   5.266  22.012  0.00  0.00    +0.196 C 
BRANCH  20  21
ATOM     21  O   UNL     1      14.010   5.920  22.041  0.00  0.00    -0.392 OA
ATOM     22  H   UNL     1      14.400   5.750  22.915  0.00  0.00    +0.210 HD
ENDBRANCH  20  21
ENDBRANCH  17  20
ENDBRANCH   9  17
ENDBRANCH   1  13
BRANCH   5  23
ATOM     23  N   UNL     1       5.246  -2.849  26.452  0.00  0.00    -0.233 N 
ATOM     24  C   UNL     1       4.000  -3.249  25.973  0.00  0.00    +0.408 C 
ATOM     25  O   UNL     1       3.233  -2.646  25.244  0.00  0.00    -0.226 OA
ATOM     26  O   UNL     1       3.714  -4.503  26.453  0.00  0.00    -0.442 OA
ATOM     27  C   UNL     1       4.915  -5.037  27.019  0.00  0.00    +0.233 C 
ATOM     28  C   UNL     1       5.672  -3.795  27.442  0.00  0.00    +0.165 C 
BRANCH  27  29
ATOM     29  C   UNL     1       5.716  -5.812  25.964  0.00  0.00    +0.277 C 
BRANCH  29  30
ATOM     30  O   UNL     1       7.119  -5.688  26.215  0.00  0.00    -0.471 OA
BRANCH  30  31
ATOM     31  C   UNL     1       7.759  -5.017  25.229  0.00  0.00    +0.255 A 
ATOM     32  C   UNL     1       7.306  -4.836  23.914  0.00  0.00    +0.111 A 
ATOM     33  C   UNL     1       8.314  -4.115  23.327  0.00  0.00    +0.234 A 
ATOM     34  O   UNL     1       9.308  -3.896  24.227  0.00  0.00    -0.360 OA
ATOM     35  N   UNL     1       8.960  -4.472  25.439  0.00  0.00    -0.040 NA
ENDBRANCH  30  31
ENDBRANCH  29  30
ENDBRANCH  27  29
ENDBRANCH   5  23
TORSDOF 9
ENDMDL
MODEL 9
REMARK VINA RESULT:      -6.7      2.864     11.046
REMARK  Name = 
REMARK  9 active torsions:
REMARK  status: ('A' for Active; 'I' for Inactive)
REMARK    1  A    between atoms: O_1  and  C_2
REMARK    2  A    between atoms: C_2  and  C_3
REMARK    3  A    between atoms: C_3  and  O_4
REMARK    4  A    between atoms: C_3  and  C_5
REMARK    5  A    between atoms: C_10  and  C_13
REMARK    6  A    between atoms: C_17  and  N_21
REMARK    7  A    between atoms: C_23  and  C_24
REMARK    8  A    between atoms: C_24  and  O_25
REMARK    9  A    between atoms: O_25  and  C_26
REMARK                            x       y       z     vdW  Elec       q    Type
REMARK                         _______ _______ _______ _____ _____    ______ ____
ROOT
ATOM      1  C   UNL     1       6.611  -3.481  24.462  0.00  0.00    +0.048 A 
ATOM      2  C   UNL     1       6.278  -2.119  24.371  0.00  0.00    +0.135 A 
ATOM      3  F   UNL     1       5.000  -1.715  24.472  0.00  0.00    -0.205 F 
ATOM      4  C   UNL     1       7.233  -1.118  24.149  0.00  0.00    +0.062 A 
ATOM      5  C   UNL     1       8.582  -1.436  23.982  0.00  0.00    +0.045 A 
ATOM      6  C   UNL     1       8.929  -2.784  24.040  0.00  0.00    +0.062 A 
ATOM      7  C   UNL     1       7.967  -3.774  24.270  0.00  0.00    +0.135 A 
ATOM      8  F   UNL     1       8.415  -5.038  24.308  0.00  0.00    -0.205 F 
ENDROOT
BRANCH   1  13
ATOM      9  C   UNL     1       2.691  -7.633  25.566  0.00  0.00    +0.247 C 
ATOM     10  N   UNL     1       3.637  -6.632  25.324  0.00  0.00    -0.295 N 
ATOM     11  C   UNL     1       3.684  -5.424  26.131  0.00  0.00    +0.135 C 
ATOM     12  C   UNL     1       4.709  -4.426  25.730  0.00  0.00    -0.004 C 
ATOM     13  C   UNL     1       5.601  -4.546  24.735  0.00  0.00    -0.036 C 
ATOM     14  C   UNL     1       5.635  -5.811  23.928  0.00  0.00    +0.054 C 
ATOM     15  C   UNL     1       4.523  -6.831  24.185  0.00  0.00    +0.113 C 
ATOM     16  O   UNL     1       2.599  -8.630  24.843  0.00  0.00    -0.273 OA
BRANCH   9  17
ATOM     17  C   UNL     1       1.809  -7.499  26.823  0.00  0.00    +0.225 C 
BRANCH  17  18
ATOM     18  O   UNL     1       2.608  -7.774  27.980  0.00  0.00    -0.380 OA
ATOM     19  H   UNL     1       3.120  -8.578  27.784  0.00  0.00    +0.211 HD
ENDBRANCH  17  18
BRANCH  17  20
ATOM     20  C   UNL     1       0.616  -8.460  26.741  0.00  0.00    +0.196 C 
BRANCH  20  21
ATOM     21  O   UNL     1       1.046  -9.799  26.990  0.00  0.00    -0.392 OA
ATOM     22  H   UNL     1       1.436 -10.133  26.164  0.00  0.00    +0.210 HD
ENDBRANCH  20  21
ENDBRANCH  17  20
ENDBRANCH   9  17
ENDBRANCH   1  13
BRANCH   5  23
ATOM     23  N   UNL     1       9.547  -0.437  23.707  0.00  0.00    -0.233 N 
ATOM     24  C   UNL     1       9.865   0.106  22.464  0.00  0.00    +0.408 C 
ATOM     25  O   UNL     1       9.512  -0.260  21.357  0.00  0.00    -0.226 OA
ATOM     26  O   UNL     1      10.686   1.192  22.643  0.00  0.00    -0.442 OA
ATOM     27  C   UNL     1      10.669   1.525  24.035  0.00  0.00    +0.233 C 
ATOM     28  C   UNL     1      10.366   0.198  24.698  0.00  0.00    +0.165 C 
BRANCH  27  29
ATOM     29  C   UNL     1       9.555   2.536  24.338  0.00  0.00    +0.277 C 
BRANCH  29  30
ATOM     30  O   UNL     1       9.553   3.581  23.361  0.00  0.00    -0.471 OA
BRANCH  30  31
ATOM     31  C   UNL     1      10.363   4.609  23.708  0.00  0.00    +0.255 A 
ATOM     32  C   UNL     1      11.723   4.742  23.393  0.00  0.00    +0.111 A 
ATOM     33  C   UNL     1      12.072   5.930  23.983  0.00  0.00    +0.234 A 
ATOM     34  O   UNL     1      10.996   6.460  24.622  0.00  0.00    -0.360 OA
ATOM     35  N   UNL     1       9.906   5.620  24.452  0.00  0.00    -0.040 NA
ENDBRANCH  30  31
ENDBRANCH  29  30
ENDBRANCH  27  29
ENDBRANCH   5  23
TORSDOF 9
ENDMDL
