MODEL 1
REMARK VINA RESULT:      -6.8      0.000      0.000
REMARK  Name = 
REMARK  8 active torsions:
REMARK  status: ('A' for Active; 'I' for Inactive)
REMARK    1  A    between atoms: C_2  and  O_3
REMARK    2  A    between atoms: C_2  and  C_4
REMARK    3  A    between atoms: C_2  and  C_6
REMARK    4  A    between atoms: C_4  and  O_5
REMARK    5  A    between atoms: C_6  and  N_7
REMARK    6  A    between atoms: N_7  and  C_8
REMARK    7  A    between atoms: C_12  and  C_20
REMARK    8  A    between atoms: C_13  and  C_14
REMARK                            x       y       z     vdW  Elec       q    Type
REMARK                         _______ _______ _______ _____ _____    ______ ____
ROOT
ATOM      1  C   UNL     1       5.243  -6.580  26.376  0.00  0.00    +0.132 A 
ATOM      2  N   UNL     1       5.059  -7.049  27.641  0.00  0.00    -0.220 NA
ATOM      3  C   UNL     1       5.721  -6.493  28.662  0.00  0.00    +0.225 A 
ATOM      4  N   UNL     1       6.581  -5.477  28.608  0.00  0.00    -0.218 NA
ATOM      5  C   UNL     1       6.747  -5.039  27.353  0.00  0.00    +0.144 A 
ATOM      6  N   UNL     1       7.597  -4.030  27.045  0.00  0.00    -0.338 N 
ATOM      7  H   UNL     1       8.159  -3.561  27.740  0.00  0.00    +0.167 HD
ATOM      8  C   UNL     1       7.622  -3.781  25.697  0.00  0.00    +0.057 A 
ATOM      9  C   UNL     1       6.669  -4.649  25.108  0.00  0.00    +0.020 A 
ATOM     10  C   UNL     1       6.145  -5.496  26.187  0.00  0.00    +0.067 A 
ENDROOT
BRANCH   8  11
ATOM     11  C   UNL     1       8.555  -2.758  25.177  0.00  0.00    -0.001 A 
ATOM     12  C   UNL     1       8.626  -1.482  25.767  0.00  0.00    +0.010 A 
ATOM     13  C   UNL     1       9.441  -0.480  25.227  0.00  0.00    +0.001 A 
ATOM     14  C   UNL     1      10.175  -0.728  24.071  0.00  0.00    +0.000 A 
ATOM     15  C   UNL     1      10.146  -1.993  23.494  0.00  0.00    +0.001 A 
ATOM     16  C   UNL     1       9.375  -3.010  24.070  0.00  0.00    +0.010 A 
ENDBRANCH   8  11
BRANCH   9  17
ATOM     17  C   UNL     1       6.362  -4.649  23.655  0.00  0.00    -0.015 A 
ATOM     18  C   UNL     1       5.777  -3.546  23.016  0.00  0.00    +0.008 A 
ATOM     19  C   UNL     1       5.700  -3.460  21.620  0.00  0.00    +0.001 A 
ATOM     20  C   UNL     1       6.091  -4.536  20.834  0.00  0.00    +0.000 A 
ATOM     21  C   UNL     1       6.565  -5.687  21.447  0.00  0.00    +0.001 A 
ATOM     22  C   UNL     1       6.735  -5.723  22.836  0.00  0.00    +0.008 A 
ENDBRANCH   9  17
BRANCH   1  23
ATOM     23  N   UNL     1       4.564  -7.237  25.340  0.00  0.00    -0.326 N 
ATOM     24  H   UNL     1       4.350  -8.177  25.680  0.00  0.00    +0.148 HD
BRANCH  23  25
ATOM     25  C   UNL     1       3.276  -6.618  24.987  0.00  0.00    +0.136 C 
BRANCH  25  26
ATOM     26  C   UNL     1       2.148  -7.643  25.162  0.00  0.00    +0.157 C 
BRANCH  26  27
ATOM     27  O   UNL     1       2.705  -8.968  25.120  0.00  0.00    -0.388 OA
ATOM     28  H   UNL     1       3.656  -8.898  25.324  0.00  0.00    +0.210 HD
ENDBRANCH  26  27
BRANCH  26  29
ATOM     29  C   UNL     1       1.422  -7.397  26.494  0.00  0.00    +0.188 C 
BRANCH  29  30
ATOM     30  O   UNL     1       2.213  -7.832  27.596  0.00  0.00    -0.392 OA
ATOM     31  H   UNL     1       3.131  -7.548  27.431  0.00  0.00    +0.210 HD
ENDBRANCH  29  30
ENDBRANCH  26  29
ENDBRANCH  25  26
ENDBRANCH  23  25
ENDBRANCH   1  23
TORSDOF 8
ENDMDL
MODEL 2
REMARK VINA RESULT:      -6.8      2.900      4.777
REMARK  Name = 
REMARK  8 active torsions:
REMARK  status: ('A' for Active; 'I' for Inactive)
REMARK    1  A    between atoms: C_2  and  O_3
REMARK    2  A    between atoms: C_2  and  C_4
REMARK    3  A    between atoms: C_2  and  C_6
REMARK    4  A    between atoms: C_4  and  O_5
REMARK    5  A    between atoms: C_6  and  N_7
REMARK    6  A    between atoms: N_7  and  C_8
REMARK    7  A    between atoms: C_12  and  C_20
REMARK    8  A    between atoms: C_13  and  C_14
REMARK                            x       y       z     vdW  Elec       q    Type
REMARK                         _______ _______ _______ _____ _____    ______ ____
ROOT
ATOM      1  C   UNL     1       7.703  -4.136  26.332  0.00  0.00    +0.132 A 
ATOM      2  N   UNL     1       8.147  -5.416  26.193  0.00  0.00    -0.220 NA
ATOM      3  C   UNL     1       9.167  -5.682  25.369  0.00  0.00    +0.225 A 
ATOM      4  N   UNL     1       9.854  -4.813  24.629  0.00  0.00    -0.218 NA
ATOM      5  C   UNL     1       9.393  -3.564  24.782  0.00  0.00    +0.144 A 
ATOM      6  N   UNL     1       9.916  -2.512  24.107  0.00  0.00    -0.338 N 
ATOM      7  H   UNL     1      10.672  -2.612  23.445  0.00  0.00    +0.167 HD
ATOM      8  C   UNL     1       9.262  -1.344  24.401  0.00  0.00    +0.057 A 
ATOM      9  C   UNL     1       8.293  -1.661  25.387  0.00  0.00    +0.020 A 
ATOM     10  C   UNL     1       8.355  -3.115  25.587  0.00  0.00    +0.067 A 
ENDROOT
BRANCH   8  11
ATOM     11  C   UNL     1       9.657  -0.106  23.694  0.00  0.00    -0.001 A 
ATOM     12  C   UNL     1      10.294   0.943  24.381  0.00  0.00    +0.010 A 
ATOM     13  C   UNL     1      10.591   2.151  23.740  0.00  0.00    +0.001 A 
ATOM     14  C   UNL     1      10.228   2.342  22.410  0.00  0.00    +0.000 A 
ATOM     15  C   UNL     1       9.630   1.303  21.704  0.00  0.00    +0.001 A 
ATOM     16  C   UNL     1       9.386   0.076  22.332  0.00  0.00    +0.010 A 
ENDBRANCH   8  11
BRANCH   9  17
ATOM     17  C   UNL     1       7.405  -0.645  26.007  0.00  0.00    -0.015 A 
ATOM     18  C   UNL     1       7.685  -0.074  27.257  0.00  0.00    +0.008 A 
ATOM     19  C   UNL     1       6.978   1.039  27.731  0.00  0.00    +0.001 A 
ATOM     20  C   UNL     1       5.888   1.526  27.022  0.00  0.00    +0.000 A 
ATOM     21  C   UNL     1       5.518   0.905  25.838  0.00  0.00    +0.001 A 
ATOM     22  C   UNL     1       6.294  -0.139  25.321  0.00  0.00    +0.008 A 
ENDBRANCH   9  17
BRANCH   1  23
ATOM     23  N   UNL     1       6.596  -3.927  27.168  0.00  0.00    -0.326 N 
ATOM     24  H   UNL     1       6.457  -2.916  27.222  0.00  0.00    +0.148 HD
BRANCH  23  25
ATOM     25  C   UNL     1       5.342  -4.494  26.646  0.00  0.00    +0.136 C 
BRANCH  25  26
ATOM     26  C   UNL     1       4.975  -5.750  27.447  0.00  0.00    +0.157 C 
BRANCH  26  27
ATOM     27  O   UNL     1       5.398  -6.914  26.717  0.00  0.00    -0.388 OA
ATOM     28  H   UNL     1       5.978  -7.436  27.300  0.00  0.00    +0.210 HD
ENDBRANCH  26  27
BRANCH  26  29
ATOM     29  C   UNL     1       5.641  -5.699  28.830  0.00  0.00    +0.188 C 
BRANCH  29  30
ATOM     30  O   UNL     1       6.850  -6.454  28.844  0.00  0.00    -0.392 OA
ATOM     31  H   UNL     1       6.687  -7.262  29.364  0.00  0.00    +0.210 HD
ENDBRANCH  29  30
ENDBRANCH  26  29
ENDBRANCH  25  26
ENDBRANCH  23  25
ENDBRANCH   1  23
TORSDOF 8
ENDMDL
MODEL 3
REMARK VINA RESULT:      -6.4      2.909      4.739
REMARK  Name = 
REMARK  8 active torsions:
REMARK  status: ('A' for Active; 'I' for Inactive)
REMARK    1  A    between atoms: C_2  and  O_3
REMARK    2  A    between atoms: C_2  and  C_4
REMARK    3  A    between atoms: C_2  and  C_6
REMARK    4  A    between atoms: C_4  and  O_5
REMARK    5  A    between atoms: C_6  and  N_7
REMARK    6  A    between atoms: N_7  and  C_8
REMARK    7  A    between atoms: C_12  and  C_20
REMARK    8  A    between atoms: C_13  and  C_14
REMARK                            x       y       z     vdW  Elec       q    Type
REMARK                         _______ _______ _______ _____ _____    ______ ____
ROOT
ATOM      1  C   UNL     1       5.800  -5.031  24.238  0.00  0.00    +0.132 A 
ATOM      2  N   UNL     1       5.735  -6.160  23.479  0.00  0.00    -0.220 NA
ATOM      3  C   UNL     1       6.302  -6.183  22.267  0.00  0.00    +0.225 A 
ATOM      4  N   UNL     1       6.966  -5.196  21.669  0.00  0.00    -0.218 NA
ATOM      5  C   UNL     1       7.010  -4.097  22.435  0.00  0.00    +0.144 A 
ATOM      6  N   UNL     1       7.610  -2.953  22.025  0.00  0.00    -0.338 N 
ATOM      7  H   UNL     1       8.045  -2.861  21.119  0.00  0.00    +0.167 HD
ATOM      8  C   UNL     1       7.499  -1.959  22.963  0.00  0.00    +0.057 A 
ATOM      9  C   UNL     1       6.839  -2.529  24.081  0.00  0.00    +0.020 A 
ATOM     10  C   UNL     1       6.482  -3.902  23.704  0.00  0.00    +0.067 A 
ENDROOT
BRANCH   8  11
ATOM     11  C   UNL     1       8.034  -0.616  22.647  0.00  0.00    -0.001 A 
ATOM     12  C   UNL     1       7.207   0.520  22.705  0.00  0.00    +0.010 A 
ATOM     13  C   UNL     1       7.682   1.780  22.322  0.00  0.00    +0.001 A 
ATOM     14  C   UNL     1       8.983   1.919  21.846  0.00  0.00    +0.000 A 
ATOM     15  C   UNL     1       9.826   0.814  21.815  0.00  0.00    +0.001 A 
ATOM     16  C   UNL     1       9.366  -0.433  22.252  0.00  0.00    +0.010 A 
ENDBRANCH   8  11
BRANCH   9  17
ATOM     17  C   UNL     1       6.572  -1.778  25.334  0.00  0.00    -0.015 A 
ATOM     18  C   UNL     1       7.605  -1.344  26.178  0.00  0.00    +0.008 A 
ATOM     19  C   UNL     1       7.368  -0.447  27.228  0.00  0.00    +0.001 A 
ATOM     20  C   UNL     1       6.070  -0.064  27.538  0.00  0.00    +0.000 A 
ATOM     21  C   UNL     1       5.017  -0.571  26.789  0.00  0.00    +0.001 A 
ATOM     22  C   UNL     1       5.273  -1.383  25.678  0.00  0.00    +0.008 A 
ENDBRANCH   9  17
BRANCH   1  23
ATOM     23  N   UNL     1       5.142  -5.050  25.476  0.00  0.00    -0.326 N 
ATOM     24  H   UNL     1       4.175  -4.771  25.298  0.00  0.00    +0.148 HD
BRANCH  23  25
ATOM     25  C   UNL     1       5.085  -6.382  26.099  0.00  0.00    +0.136 C 
BRANCH  25  26
ATOM     26  C   UNL     1       5.323  -6.254  27.609  0.00  0.00    +0.157 C 
BRANCH  26  27
ATOM     27  O   UNL     1       5.462  -7.566  28.178  0.00  0.00    -0.388 OA
ATOM     28  H   UNL     1       6.160  -7.524  28.857  0.00  0.00    +0.210 HD
ENDBRANCH  26  27
BRANCH  26  29
ATOM     29  C   UNL     1       6.580  -5.409  27.868  0.00  0.00    +0.188 C 
BRANCH  29  30
ATOM     30  O   UNL     1       7.714  -5.965  27.210  0.00  0.00    -0.392 OA
ATOM     31  H   UNL     1       8.409  -6.099  27.880  0.00  0.00    +0.210 HD
ENDBRANCH  29  30
ENDBRANCH  26  29
ENDBRANCH  25  26
ENDBRANCH  23  25
ENDBRANCH   1  23
TORSDOF 8
ENDMDL
MODEL 4
REMARK VINA RESULT:      -6.0      4.870      7.083
REMARK  Name = 
REMARK  8 active torsions:
REMARK  status: ('A' for Active; 'I' for Inactive)
REMARK    1  A    between atoms: C_2  and  O_3
REMARK    2  A    between atoms: C_2  and  C_4
REMARK    3  A    between atoms: C_2  and  C_6
REMARK    4  A    between atoms: C_4  and  O_5
REMARK    5  A    between atoms: C_6  and  N_7
REMARK    6  A    between atoms: N_7  and  C_8
REMARK    7  A    between atoms: C_12  and  C_20
REMARK    8  A    between atoms: C_13  and  C_14
REMARK                            x       y       z     vdW  Elec       q    Type
REMARK                         _______ _______ _______ _____ _____    ______ ____
ROOT
ATOM      1  C   UNL     1       7.750  -1.195  23.116  0.00  0.00    +0.132 A 
ATOM      2  N   UNL     1       8.633  -2.227  23.014  0.00  0.00    -0.220 NA
ATOM      3  C   UNL     1       9.929  -2.024  23.277  0.00  0.00    +0.225 A 
ATOM      4  N   UNL     1      10.507  -0.885  23.655  0.00  0.00    -0.218 NA
ATOM      5  C   UNL     1       9.617   0.113  23.742  0.00  0.00    +0.144 A 
ATOM      6  N   UNL     1       9.976   1.375  24.082  0.00  0.00    -0.338 N 
ATOM      7  H   UNL     1      10.931   1.635  24.276  0.00  0.00    +0.167 HD
ATOM      8  C   UNL     1       8.902   2.227  24.072  0.00  0.00    +0.057 A 
ATOM      9  C   UNL     1       7.762   1.439  23.770  0.00  0.00    +0.020 A 
ATOM     10  C   UNL     1       8.248   0.079  23.508  0.00  0.00    +0.067 A 
ENDROOT
BRANCH   8  11
ATOM     11  C   UNL     1       9.128   3.663  24.348  0.00  0.00    -0.001 A 
ATOM     12  C   UNL     1      10.188   4.355  23.735  0.00  0.00    +0.010 A 
ATOM     13  C   UNL     1      10.463   5.690  24.057  0.00  0.00    +0.001 A 
ATOM     14  C   UNL     1       9.700   6.345  25.020  0.00  0.00    +0.000 A 
ATOM     15  C   UNL     1       8.625   5.688  25.610  0.00  0.00    +0.001 A 
ATOM     16  C   UNL     1       8.318   4.373  25.244  0.00  0.00    +0.010 A 
ENDBRANCH   8  11
BRANCH   9  17
ATOM     17  C   UNL     1       6.386   1.993  23.715  0.00  0.00    -0.015 A 
ATOM     18  C   UNL     1       5.498   1.892  24.797  0.00  0.00    +0.008 A 
ATOM     19  C   UNL     1       4.293   2.608  24.828  0.00  0.00    +0.001 A 
ATOM     20  C   UNL     1       3.890   3.340  23.720  0.00  0.00    +0.000 A 
ATOM     21  C   UNL     1       4.697   3.363  22.591  0.00  0.00    +0.001 A 
ATOM     22  C   UNL     1       5.945   2.730  22.609  0.00  0.00    +0.008 A 
ENDBRANCH   9  17
BRANCH   1  23
ATOM     23  N   UNL     1       6.414  -1.455  22.776  0.00  0.00    -0.326 N 
ATOM     24  H   UNL     1       6.427  -1.896  21.854  0.00  0.00    +0.148 HD
BRANCH  23  25
ATOM     25  C   UNL     1       5.744  -2.402  23.682  0.00  0.00    +0.136 C 
BRANCH  25  26
ATOM     26  C   UNL     1       5.318  -3.649  22.897  0.00  0.00    +0.157 C 
BRANCH  26  27
ATOM     27  O   UNL     1       5.465  -3.394  21.490  0.00  0.00    -0.388 OA
ATOM     28  H   UNL     1       6.283  -2.879  21.365  0.00  0.00    +0.210 HD
ENDBRANCH  26  27
BRANCH  26  29
ATOM     29  C   UNL     1       6.174  -4.851  23.327  0.00  0.00    +0.188 C 
BRANCH  29  30
ATOM     30  O   UNL     1       7.376  -4.922  22.566  0.00  0.00    -0.392 OA
ATOM     31  H   UNL     1       7.127  -4.972  21.625  0.00  0.00    +0.210 HD
ENDBRANCH  29  30
ENDBRANCH  26  29
ENDBRANCH  25  26
ENDBRANCH  23  25
ENDBRANCH   1  23
TORSDOF 8
ENDMDL
MODEL 5
REMARK VINA RESULT:      -6.0      4.901      8.150
REMARK  Name = 
REMARK  8 active torsions:
REMARK  status: ('A' for Active; 'I' for Inactive)
REMARK    1  A    between atoms: C_2  and  O_3
REMARK    2  A    between atoms: C_2  and  C_4
REMARK    3  A    between atoms: C_2  and  C_6
REMARK    4  A    between atoms: C_4  and  O_5
REMARK    5  A    between atoms: C_6  and  N_7
REMARK    6  A    between atoms: N_7  and  C_8
REMARK    7  A    between atoms: C_12  and  C_20
REMARK    8  A    between atoms: C_13  and  C_14
REMARK                            x       y       z     vdW  Elec       q    Type
REMARK                         _______ _______ _______ _____ _____    ______ ____
ROOT
ATOM      1  C   UNL     1       9.017  -0.234  23.929  0.00  0.00    +0.132 A 
ATOM      2  N   UNL     1      10.053  -0.259  23.045  0.00  0.00    -0.220 NA
ATOM      3  C   UNL     1      10.526  -1.432  22.605  0.00  0.00    +0.225 A 
ATOM      4  N   UNL     1      10.092  -2.649  22.928  0.00  0.00    -0.218 NA
ATOM      5  C   UNL     1       9.077  -2.593  23.801  0.00  0.00    +0.144 A 
ATOM      6  N   UNL     1       8.489  -3.709  24.298  0.00  0.00    -0.338 N 
ATOM      7  H   UNL     1       8.788  -4.639  24.047  0.00  0.00    +0.167 HD
ATOM      8  C   UNL     1       7.500  -3.403  25.197  0.00  0.00    +0.057 A 
ATOM      9  C   UNL     1       7.404  -1.989  25.227  0.00  0.00    +0.020 A 
ATOM     10  C   UNL     1       8.468  -1.475  24.355  0.00  0.00    +0.067 A 
ENDROOT
BRANCH   8  11
ATOM     11  C   UNL     1       6.802  -4.506  25.893  0.00  0.00    -0.001 A 
ATOM     12  C   UNL     1       5.905  -5.340  25.202  0.00  0.00    +0.010 A 
ATOM     13  C   UNL     1       5.175  -6.329  25.871  0.00  0.00    +0.001 A 
ATOM     14  C   UNL     1       5.306  -6.479  27.249  0.00  0.00    +0.000 A 
ATOM     15  C   UNL     1       6.214  -5.688  27.944  0.00  0.00    +0.001 A 
ATOM     16  C   UNL     1       6.985  -4.739  27.262  0.00  0.00    +0.010 A 
ENDBRANCH   8  11
BRANCH   9  17
ATOM     17  C   UNL     1       6.405  -1.262  26.051  0.00  0.00    -0.015 A 
ATOM     18  C   UNL     1       5.024  -1.430  25.870  0.00  0.00    +0.008 A 
ATOM     19  C   UNL     1       4.095  -0.925  26.789  0.00  0.00    +0.001 A 
ATOM     20  C   UNL     1       4.521  -0.129  27.843  0.00  0.00    +0.000 A 
ATOM     21  C   UNL     1       5.874   0.150  27.979  0.00  0.00    +0.001 A 
ATOM     22  C   UNL     1       6.802  -0.444  27.116  0.00  0.00    +0.008 A 
ENDBRANCH   9  17
BRANCH   1  23
ATOM     23  N   UNL     1       8.600   1.021  24.395  0.00  0.00    -0.326 N 
ATOM     24  H   UNL     1       8.366   0.904  25.383  0.00  0.00    +0.148 HD
BRANCH  23  25
ATOM     25  C   UNL     1       9.645   2.056  24.333  0.00  0.00    +0.136 C 
BRANCH  25  26
ATOM     26  C   UNL     1       9.088   3.307  23.642  0.00  0.00    +0.157 C 
BRANCH  26  27
ATOM     27  O   UNL     1      10.179   4.168  23.273  0.00  0.00    -0.388 OA
ATOM     28  H   UNL     1      10.761   3.670  22.671  0.00  0.00    +0.210 HD
ENDBRANCH  26  27
BRANCH  26  29
ATOM     29  C   UNL     1       8.270   2.900  22.406  0.00  0.00    +0.188 C 
BRANCH  29  30
ATOM     30  O   UNL     1       9.092   2.248  21.442  0.00  0.00    -0.392 OA
ATOM     31  H   UNL     1       8.594   2.213  20.605  0.00  0.00    +0.210 HD
ENDBRANCH  29  30
ENDBRANCH  26  29
ENDBRANCH  25  26
ENDBRANCH  23  25
ENDBRANCH   1  23
TORSDOF 8
ENDMDL
MODEL 6
REMARK VINA RESULT:      -6.0      4.362      7.305
REMARK  Name = 
REMARK  8 active torsions:
REMARK  status: ('A' for Active; 'I' for Inactive)
REMARK    1  A    between atoms: C_2  and  O_3
REMARK    2  A    between atoms: C_2  and  C_4
REMARK    3  A    between atoms: C_2  and  C_6
REMARK    4  A    between atoms: C_4  and  O_5
REMARK    5  A    between atoms: C_6  and  N_7
REMARK    6  A    between atoms: N_7  and  C_8
REMARK    7  A    between atoms: C_12  and  C_20
REMARK    8  A    between atoms: C_13  and  C_14
REMARK                            x       y       z     vdW  Elec       q    Type
REMARK                         _______ _______ _______ _____ _____    ______ ____
ROOT
ATOM      1  C   UNL     1       6.591  -0.282  23.948  0.00  0.00    +0.132 A 
ATOM      2  N   UNL     1       6.462   0.964  24.482  0.00  0.00    -0.220 NA
ATOM      3  C   UNL     1       5.627   1.167  25.508  0.00  0.00    +0.225 A 
ATOM      4  N   UNL     1       4.864   0.261  26.118  0.00  0.00    -0.218 NA
ATOM      5  C   UNL     1       5.008  -0.953  25.569  0.00  0.00    +0.144 A 
ATOM      6  N   UNL     1       4.310  -2.031  26.004  0.00  0.00    -0.338 N 
ATOM      7  H   UNL     1       3.639  -1.977  26.756  0.00  0.00    +0.167 HD
ATOM      8  C   UNL     1       4.599  -3.152  25.270  0.00  0.00    +0.057 A 
ATOM      9  C   UNL     1       5.603  -2.779  24.341  0.00  0.00    +0.020 A 
ATOM     10  C   UNL     1       5.822  -1.337  24.512  0.00  0.00    +0.067 A 
ENDROOT
BRANCH   8  11
ATOM     11  C   UNL     1       3.869  -4.405  25.563  0.00  0.00    -0.001 A 
ATOM     12  C   UNL     1       4.530  -5.504  26.140  0.00  0.00    +0.010 A 
ATOM     13  C   UNL     1       3.869  -6.722  26.339  0.00  0.00    +0.001 A 
ATOM     14  C   UNL     1       2.545  -6.870  25.935  0.00  0.00    +0.000 A 
ATOM     15  C   UNL     1       1.864  -5.783  25.396  0.00  0.00    +0.001 A 
ATOM     16  C   UNL     1       2.511  -4.551  25.251  0.00  0.00    +0.010 A 
ENDBRANCH   8  11
BRANCH   9  17
ATOM     17  C   UNL     1       6.223  -3.737  23.390  0.00  0.00    -0.015 A 
ATOM     18  C   UNL     1       7.290  -4.569  23.758  0.00  0.00    +0.008 A 
ATOM     19  C   UNL     1       7.718  -5.622  22.939  0.00  0.00    +0.001 A 
ATOM     20  C   UNL     1       7.171  -5.786  21.673  0.00  0.00    +0.000 A 
ATOM     21  C   UNL     1       6.193  -4.904  21.238  0.00  0.00    +0.001 A 
ATOM     22  C   UNL     1       5.700  -3.920  22.103  0.00  0.00    +0.008 A 
ENDBRANCH   9  17
BRANCH   1  23
ATOM     23  N   UNL     1       7.441  -0.422  22.840  0.00  0.00    -0.326 N 
ATOM     24  H   UNL     1       6.922  -0.954  22.139  0.00  0.00    +0.148 HD
BRANCH  23  25
ATOM     25  C   UNL     1       7.809   0.855  22.208  0.00  0.00    +0.136 C 
BRANCH  25  26
ATOM     26  C   UNL     1       9.157   0.703  21.492  0.00  0.00    +0.157 C 
BRANCH  26  27
ATOM     27  O   UNL     1       9.819   1.979  21.457  0.00  0.00    -0.388 OA
ATOM     28  H   UNL     1       9.711   2.394  22.332  0.00  0.00    +0.210 HD
ENDBRANCH  26  27
BRANCH  26  29
ATOM     29  C   UNL     1      10.018  -0.341  22.219  0.00  0.00    +0.188 C 
BRANCH  29  30
ATOM     30  O   UNL     1      10.088  -1.555  21.475  0.00  0.00    -0.392 OA
ATOM     31  H   UNL     1      11.006  -1.877  21.521  0.00  0.00    +0.210 HD
ENDBRANCH  29  30
ENDBRANCH  26  29
ENDBRANCH  25  26
ENDBRANCH  23  25
ENDBRANCH   1  23
TORSDOF 8
ENDMDL
MODEL 7
REMARK VINA RESULT:      -5.8      4.177      7.148
REMARK  Name = 
REMARK  8 active torsions:
REMARK  status: ('A' for Active; 'I' for Inactive)
REMARK    1  A    between atoms: C_2  and  O_3
REMARK    2  A    between atoms: C_2  and  C_4
REMARK    3  A    between atoms: C_2  and  C_6
REMARK    4  A    between atoms: C_4  and  O_5
REMARK    5  A    between atoms: C_6  and  N_7
REMARK    6  A    between atoms: N_7  and  C_8
REMARK    7  A    between atoms: C_12  and  C_20
REMARK    8  A    between atoms: C_13  and  C_14
REMARK                            x       y       z     vdW  Elec       q    Type
REMARK                         _______ _______ _______ _____ _____    ______ ____
ROOT
ATOM      1  C   UNL     1       7.625  -0.174  24.309  0.00  0.00    +0.132 A 
ATOM      2  N   UNL     1       7.814   1.013  24.948  0.00  0.00    -0.220 NA
ATOM      3  C   UNL     1       7.548   1.116  26.256  0.00  0.00    +0.225 A 
ATOM      4  N   UNL     1       7.105   0.157  27.067  0.00  0.00    -0.218 NA
ATOM      5  C   UNL     1       6.925  -0.997  26.410  0.00  0.00    +0.144 A 
ATOM      6  N   UNL     1       6.452  -2.111  27.022  0.00  0.00    -0.338 N 
ATOM      7  H   UNL     1       6.200  -2.129  27.999  0.00  0.00    +0.167 HD
ATOM      8  C   UNL     1       6.320  -3.155  26.143  0.00  0.00    +0.057 A 
ATOM      9  C   UNL     1       6.808  -2.695  24.893  0.00  0.00    +0.020 A 
ATOM     10  C   UNL     1       7.149  -1.278  25.069  0.00  0.00    +0.067 A 
ENDROOT
BRANCH   8  11
ATOM     11  C   UNL     1       5.746  -4.429  26.629  0.00  0.00    -0.001 A 
ATOM     12  C   UNL     1       4.552  -4.934  26.082  0.00  0.00    +0.010 A 
ATOM     13  C   UNL     1       3.955  -6.091  26.596  0.00  0.00    +0.001 A 
ATOM     14  C   UNL     1       4.525  -6.745  27.684  0.00  0.00    +0.000 A 
ATOM     15  C   UNL     1       5.724  -6.281  28.214  0.00  0.00    +0.001 A 
ATOM     16  C   UNL     1       6.349  -5.157  27.662  0.00  0.00    +0.010 A 
ENDBRANCH   8  11
BRANCH   9  17
ATOM     17  C   UNL     1       6.879  -3.556  23.686  0.00  0.00    -0.015 A 
ATOM     18  C   UNL     1       7.681  -4.707  23.636  0.00  0.00    +0.008 A 
ATOM     19  C   UNL     1       7.573  -5.633  22.591  0.00  0.00    +0.001 A 
ATOM     20  C   UNL     1       6.750  -5.366  21.505  0.00  0.00    +0.000 A 
ATOM     21  C   UNL     1       6.033  -4.178  21.474  0.00  0.00    +0.001 A 
ATOM     22  C   UNL     1       6.069  -3.308  22.571  0.00  0.00    +0.008 A 
ENDBRANCH   9  17
BRANCH   1  23
ATOM     23  N   UNL     1       7.869  -0.207  22.928  0.00  0.00    -0.326 N 
ATOM     24  H   UNL     1       7.551   0.689  22.553  0.00  0.00    +0.148 HD
BRANCH  23  25
ATOM     25  C   UNL     1       9.294  -0.324  22.579  0.00  0.00    +0.136 C 
BRANCH  25  26
ATOM     26  C   UNL     1       9.710   0.870  21.710  0.00  0.00    +0.157 C 
BRANCH  26  27
ATOM     27  O   UNL     1       8.588   1.286  20.913  0.00  0.00    -0.388 OA
ATOM     28  H   UNL     1       8.574   0.736  20.109  0.00  0.00    +0.210 HD
ENDBRANCH  26  27
BRANCH  26  29
ATOM     29  C   UNL     1      10.200   2.019  22.606  0.00  0.00    +0.188 C 
BRANCH  29  30
ATOM     30  O   UNL     1      10.589   1.537  23.889  0.00  0.00    -0.392 OA
ATOM     31  H   UNL     1      11.086   2.248  24.333  0.00  0.00    +0.210 HD
ENDBRANCH  29  30
ENDBRANCH  26  29
ENDBRANCH  25  26
ENDBRANCH  23  25
ENDBRANCH   1  23
TORSDOF 8
ENDMDL
MODEL 8
REMARK VINA RESULT:      -5.8      4.942      7.622
REMARK  Name = 
REMARK  8 active torsions:
REMARK  status: ('A' for Active; 'I' for Inactive)
REMARK    1  A    between atoms: C_2  and  O_3
REMARK    2  A    between atoms: C_2  and  C_4
REMARK    3  A    between atoms: C_2  and  C_6
REMARK    4  A    between atoms: C_4  and  O_5
REMARK    5  A    between atoms: C_6  and  N_7
REMARK    6  A    between atoms: N_7  and  C_8
REMARK    7  A    between atoms: C_12  and  C_20
REMARK    8  A    between atoms: C_13  and  C_14
REMARK                            x       y       z     vdW  Elec       q    Type
REMARK                         _______ _______ _______ _____ _____    ______ ____
ROOT
ATOM      1  C   UNL     1       8.472  -1.267  23.923  0.00  0.00    +0.132 A 
ATOM      2  N   UNL     1       9.249  -2.119  23.199  0.00  0.00    -0.220 NA
ATOM      3  C   UNL     1      10.044  -1.641  22.234  0.00  0.00    +0.225 A 
ATOM      4  N   UNL     1      10.193  -0.368  21.869  0.00  0.00    -0.218 NA
ATOM      5  C   UNL     1       9.413   0.446  22.594  0.00  0.00    +0.144 A 
ATOM      6  N   UNL     1       9.373   1.784  22.384  0.00  0.00    -0.338 N 
ATOM      7  H   UNL     1       9.916   2.239  21.665  0.00  0.00    +0.167 HD
ATOM      8  C   UNL     1       8.481   2.402  23.222  0.00  0.00    +0.057 A 
ATOM      9  C   UNL     1       7.963   1.395  24.076  0.00  0.00    +0.020 A 
ATOM     10  C   UNL     1       8.539   0.122  23.623  0.00  0.00    +0.067 A 
ENDROOT
BRANCH   8  11
ATOM     11  C   UNL     1       8.255   3.857  23.077  0.00  0.00    -0.001 A 
ATOM     12  C   UNL     1       7.231   4.347  22.247  0.00  0.00    +0.010 A 
ATOM     13  C   UNL     1       7.067   5.721  22.035  0.00  0.00    +0.001 A 
ATOM     14  C   UNL     1       7.943   6.626  22.626  0.00  0.00    +0.000 A 
ATOM     15  C   UNL     1       8.940   6.163  23.479  0.00  0.00    +0.001 A 
ATOM     16  C   UNL     1       9.065   4.792  23.734  0.00  0.00    +0.010 A 
ENDBRANCH   8  11
BRANCH   9  17
ATOM     17  C   UNL     1       6.995   1.675  25.166  0.00  0.00    -0.015 A 
ATOM     18  C   UNL     1       7.374   2.323  26.352  0.00  0.00    +0.008 A 
ATOM     19  C   UNL     1       6.424   2.787  27.271  0.00  0.00    +0.001 A 
ATOM     20  C   UNL     1       5.078   2.500  27.087  0.00  0.00    +0.000 A 
ATOM     21  C   UNL     1       4.688   1.760  25.980  0.00  0.00    +0.001 A 
ATOM     22  C   UNL     1       5.632   1.390  25.015  0.00  0.00    +0.008 A 
ENDBRANCH   9  17
BRANCH   1  23
ATOM     23  N   UNL     1       7.621  -1.832  24.884  0.00  0.00    -0.326 N 
ATOM     24  H   UNL     1       7.196  -2.654  24.451  0.00  0.00    +0.148 HD
BRANCH  23  25
ATOM     25  C   UNL     1       8.318  -2.308  26.090  0.00  0.00    +0.136 C 
BRANCH  25  26
ATOM     26  C   UNL     1       7.945  -3.772  26.354  0.00  0.00    +0.157 C 
BRANCH  26  27
ATOM     27  O   UNL     1       6.873  -4.152  25.474  0.00  0.00    -0.388 OA
ATOM     28  H   UNL     1       6.851  -5.125  25.434  0.00  0.00    +0.210 HD
ENDBRANCH  26  27
BRANCH  26  29
ATOM     29  C   UNL     1       9.174  -4.669  26.138  0.00  0.00    +0.188 C 
BRANCH  29  30
ATOM     30  O   UNL     1       9.759  -4.437  24.860  0.00  0.00    -0.392 OA
ATOM     31  H   UNL     1       9.517  -3.534  24.584  0.00  0.00    +0.210 HD
ENDBRANCH  29  30
ENDBRANCH  26  29
ENDBRANCH  25  26
ENDBRANCH  23  25
ENDBRANCH   1  23
TORSDOF 8
ENDMDL
MODEL 9
REMARK VINA RESULT:      -5.7      5.051      7.631
REMARK  Name = 
REMARK  8 active torsions:
REMARK  status: ('A' for Active; 'I' for Inactive)
REMARK    1  A    between atoms: C_2  and  O_3
REMARK    2  A    between atoms: C_2  and  C_4
REMARK    3  A    between atoms: C_2  and  C_6
REMARK    4  A    between atoms: C_4  and  O_5
REMARK    5  A    between atoms: C_6  and  N_7
REMARK    6  A    between atoms: N_7  and  C_8
REMARK    7  A    between atoms: C_12  and  C_20
REMARK    8  A    between atoms: C_13  and  C_14
REMARK                            x       y       z     vdW  Elec       q    Type
REMARK                         _______ _______ _______ _____ _____    ______ ____
ROOT
ATOM      1  C   UNL     1       5.584   1.275  25.509  0.00  0.00    +0.132 A 
ATOM      2  N   UNL     1       4.659   1.514  26.479  0.00  0.00    -0.220 NA
ATOM      3  C   UNL     1       3.923   0.505  26.962  0.00  0.00    +0.225 A 
ATOM      4  N   UNL     1       3.982  -0.778  26.609  0.00  0.00    -0.218 NA
ATOM      5  C   UNL     1       4.897  -0.982  25.652  0.00  0.00    +0.144 A 
ATOM      6  N   UNL     1       5.117  -2.206  25.111  0.00  0.00    -0.338 N 
ATOM      7  H   UNL     1       4.598  -3.025  25.391  0.00  0.00    +0.167 HD
ATOM      8  C   UNL     1       6.073  -2.162  24.130  0.00  0.00    +0.057 A 
ATOM      9  C   UNL     1       6.547  -0.826  24.085  0.00  0.00    +0.020 A 
ATOM     10  C   UNL     1       5.739  -0.061  25.043  0.00  0.00    +0.067 A 
ENDROOT
BRANCH   8  11
ATOM     11  C   UNL     1       6.384  -3.399  23.381  0.00  0.00    -0.001 A 
ATOM     12  C   UNL     1       7.324  -4.322  23.874  0.00  0.00    +0.010 A 
ATOM     13  C   UNL     1       7.690  -5.450  23.130  0.00  0.00    +0.001 A 
ATOM     14  C   UNL     1       7.144  -5.658  21.867  0.00  0.00    +0.000 A 
ATOM     15  C   UNL     1       6.186  -4.776  21.378  0.00  0.00    +0.001 A 
ATOM     16  C   UNL     1       5.780  -3.681  22.148  0.00  0.00    +0.010 A 
ENDBRANCH   8  11
BRANCH   9  17
ATOM     17  C   UNL     1       7.632  -0.381  23.176  0.00  0.00    -0.015 A 
ATOM     18  C   UNL     1       7.461   0.679  22.272  0.00  0.00    +0.008 A 
ATOM     19  C   UNL     1       8.545   1.241  21.585  0.00  0.00    +0.001 A 
ATOM     20  C   UNL     1       9.807   0.671  21.689  0.00  0.00    +0.000 A 
ATOM     21  C   UNL     1       9.980  -0.451  22.486  0.00  0.00    +0.001 A 
ATOM     22  C   UNL     1       8.914  -0.942  23.249  0.00  0.00    +0.008 A 
ENDBRANCH   9  17
BRANCH   1  23
ATOM     23  N   UNL     1       6.286   2.379  25.004  0.00  0.00    -0.326 N 
ATOM     24  H   UNL     1       5.595   3.110  24.828  0.00  0.00    +0.148 HD
BRANCH  23  25
ATOM     25  C   UNL     1       7.263   2.945  25.948  0.00  0.00    +0.136 C 
BRANCH  25  26
ATOM     26  C   UNL     1       8.521   3.382  25.185  0.00  0.00    +0.157 C 
BRANCH  26  27
ATOM     27  O   UNL     1       9.315   2.222  24.883  0.00  0.00    -0.388 OA
ATOM     28  H   UNL     1       8.710   1.464  24.784  0.00  0.00    +0.210 HD
ENDBRANCH  26  27
BRANCH  26  29
ATOM     29  C   UNL     1       8.119   4.120  23.899  0.00  0.00    +0.188 C 
BRANCH  29  30
ATOM     30  O   UNL     1       9.257   4.385  23.084  0.00  0.00    -0.392 OA
ATOM     31  H   UNL     1       9.031   4.137  22.169  0.00  0.00    +0.210 HD
ENDBRANCH  29  30
ENDBRANCH  26  29
ENDBRANCH  25  26
ENDBRANCH  23  25
ENDBRANCH   1  23
TORSDOF 8
ENDMDL
