MODEL 1
REMARK VINA RESULT:      -7.1      0.000      0.000
REMARK  Name = 
REMARK  12 active torsions:
REMARK  status: ('A' for Active; 'I' for Inactive)
REMARK    1  A    between atoms: C_1  and  C_2
REMARK    2  A    between atoms: C_7  and  C_10
REMARK    3  A    between atoms: C_10  and  O_11
REMARK    4  A    between atoms: C_13  and  C_15
REMARK    5  A    between atoms: C_15  and  C_17
REMARK    6  A    between atoms: C_15  and  N_24
REMARK    7  A    between atoms: C_17  and  C_18
REMARK    8  A    between atoms: C_18  and  C_19
REMARK    9  A    between atoms: C_19  and  N_20
REMARK   10  A    between atoms: N_24  and  S_25
REMARK   11  A    between atoms: S_25  and  C_28
REMARK   12  A    between atoms: C_36  and  C_38
REMARK                            x       y       z     vdW  Elec       q    Type
REMARK                         _______ _______ _______ _____ _____    ______ ____
ROOT
ATOM      1  C   UNL     1       7.213  -0.418  25.851  0.00  0.00    +0.162 C 
ENDROOT
BRANCH   1   7
ATOM      2  C   UNL     1       7.096  -5.766  22.432  0.00  0.00    +0.007 C 
ATOM      3  C   UNL     1       7.971  -4.649  23.004  0.00  0.00    -0.010 C 
ATOM      4  C   UNL     1       7.284  -3.283  22.840  0.00  0.00    +0.037 C 
ATOM      5  C   UNL     1       8.137  -2.150  23.418  0.00  0.00    +0.185 C 
ATOM      6  N   UNL     1       8.451  -2.421  24.838  0.00  0.00    -0.287 N 
ATOM      7  C   UNL     1       8.347  -1.489  25.871  0.00  0.00    +0.235 C 
ATOM      8  O   UNL     1       9.132  -1.550  26.823  0.00  0.00    -0.274 OA
ATOM      9  C   UNL     1       9.083  -3.729  25.105  0.00  0.00    +0.109 C 
ATOM     10  C   UNL     1       8.296  -4.890  24.484  0.00  0.00    +0.022 C 
BRANCH   5  11
ATOM     11  C   UNL     1       9.410  -1.942  22.561  0.00  0.00    +0.325 C 
ATOM     12  O   UNL     1      10.547  -2.159  22.958  0.00  0.00    -0.249 OA
BRANCH  11  13
ATOM     13  O   UNL     1       9.166  -1.565  21.283  0.00  0.00    -0.479 OA
ATOM     14  H   UNL     1       8.600  -2.207  20.806  0.00  0.00    +0.295 HD
ENDBRANCH  11  13
ENDBRANCH   5  11
ENDBRANCH   1   7
BRANCH   1  15
ATOM     15  N   UNL     1       6.042  -0.892  26.660  0.00  0.00    -0.178 NA
ATOM     16  H   UNL     1       5.602  -0.211  27.276  0.00  0.00    +0.149 HD
BRANCH  15  17
ATOM     17  S   UNL     1       4.804  -1.738  25.879  0.00  0.00    +0.061 S 
ATOM     18  O   UNL     1       4.943  -1.435  24.464  0.00  0.00    -0.153 OA
ATOM     19  O   UNL     1       3.583  -1.388  26.582  0.00  0.00    -0.153 OA
BRANCH  17  20
ATOM     20  C   UNL     1       5.150  -3.450  26.147  0.00  0.00    +0.126 A 
ATOM     21  C   UNL     1       4.666  -4.477  25.312  0.00  0.00    +0.057 A 
ATOM     22  N   UNL     1       3.929  -4.208  24.146  0.00  0.00    -0.342 N 
ATOM     23  H   UNL     1       3.100  -3.657  24.370  0.00  0.00    +0.146 HD
ATOM     24  C   UNL     1       3.652  -5.316  23.237  0.00  0.00    +0.105 C 
ATOM     25  C   UNL     1       3.247  -6.583  23.983  0.00  0.00    +0.007 C 
ATOM     26  C   UNL     1       1.930  -6.414  24.746  0.00  0.00    +0.009 C 
ATOM     27  C   UNL     1       4.404  -6.981  24.899  0.00  0.00    +0.041 C 
ATOM     28  C   UNL     1       4.932  -5.813  25.698  0.00  0.00    -0.024 A 
ATOM     29  C   UNL     1       5.692  -6.095  26.847  0.00  0.00    +0.005 A 
ATOM     30  C   UNL     1       6.195  -5.068  27.631  0.00  0.00    +0.002 A 
ATOM     31  C   UNL     1       5.932  -3.750  27.278  0.00  0.00    +0.030 A 
ENDBRANCH  17  20
ENDBRANCH  15  17
ENDBRANCH   1  15
BRANCH   1  32
ATOM     32  C   UNL     1       7.693   0.929  26.461  0.00  0.00    +0.033 C 
BRANCH  32  33
ATOM     33  C   UNL     1       7.767   2.041  25.395  0.00  0.00    +0.043 C 
BRANCH  33  34
ATOM     34  C   UNL     1       9.001   2.038  24.478  0.00  0.00    +0.243 C 
BRANCH  34  35
ATOM     35  N   UNL     1       8.522   1.573  23.176  0.00  0.00    -0.114 NA
ATOM     36  C   UNL     1       9.171   1.810  22.102  0.00  0.00    +0.376 C 
ATOM     37  N   UNL     1       8.692   1.367  20.919  0.00  0.00    -0.289 N 
ATOM     38  H   UNL     1       9.401   0.940  20.337  0.00  0.00    +0.255 HD
ATOM     39  H   UNL     1       7.917   0.734  21.067  0.00  0.00    +0.255 HD
ATOM     40  N   UNL     1      10.334   2.467  21.913  0.00  0.00    -0.289 N 
ATOM     41  H   UNL     1      10.332   3.010  21.062  0.00  0.00    +0.255 HD
ATOM     42  H   UNL     1      10.626   3.031  22.703  0.00  0.00    +0.255 HD
ENDBRANCH  34  35
ENDBRANCH  33  34
ENDBRANCH  32  33
ENDBRANCH   1  32
TORSDOF 10
ENDMDL
MODEL 2
REMARK VINA RESULT:      -6.8      2.513      5.555
REMARK  Name = 
REMARK  12 active torsions:
REMARK  status: ('A' for Active; 'I' for Inactive)
REMARK    1  A    between atoms: C_1  and  C_2
REMARK    2  A    between atoms: C_7  and  C_10
REMARK    3  A    between atoms: C_10  and  O_11
REMARK    4  A    between atoms: C_13  and  C_15
REMARK    5  A    between atoms: C_15  and  C_17
REMARK    6  A    between atoms: C_15  and  N_24
REMARK    7  A    between atoms: C_17  and  C_18
REMARK    8  A    between atoms: C_18  and  C_19
REMARK    9  A    between atoms: C_19  and  N_20
REMARK   10  A    between atoms: N_24  and  S_25
REMARK   11  A    between atoms: S_25  and  C_28
REMARK   12  A    between atoms: C_36  and  C_38
REMARK                            x       y       z     vdW  Elec       q    Type
REMARK                         _______ _______ _______ _____ _____    ______ ____
ROOT
ATOM      1  C   UNL     1       8.255  -3.348  24.197  0.00  0.00    +0.162 C 
ENDROOT
BRANCH   1   7
ATOM      2  C   UNL     1       7.451   2.305  21.423  0.00  0.00    +0.007 C 
ATOM      3  C   UNL     1       8.358   1.448  22.308  0.00  0.00    -0.010 C 
ATOM      4  C   UNL     1       7.526   0.652  23.327  0.00  0.00    +0.037 C 
ATOM      5  C   UNL     1       8.414  -0.226  24.215  0.00  0.00    +0.185 C 
ATOM      6  N   UNL     1       9.240  -1.126  23.382  0.00  0.00    -0.287 N 
ATOM      7  C   UNL     1       9.421  -2.490  23.616  0.00  0.00    +0.235 C 
ATOM      8  O   UNL     1      10.496  -3.018  23.316  0.00  0.00    -0.274 OA
ATOM      9  C   UNL     1      10.051  -0.456  22.345  0.00  0.00    +0.109 C 
ATOM     10  C   UNL     1       9.213   0.486  21.472  0.00  0.00    +0.022 C 
BRANCH   5  11
ATOM     11  C   UNL     1       9.269   0.655  25.160  0.00  0.00    +0.325 C 
ATOM     12  O   UNL     1      10.434   0.419  25.449  0.00  0.00    -0.249 OA
BRANCH  11  13
ATOM     13  O   UNL     1       8.644   1.775  25.595  0.00  0.00    -0.479 OA
ATOM     14  H   UNL     1       7.778   1.581  26.011  0.00  0.00    +0.295 HD
ENDBRANCH  11  13
ENDBRANCH   5  11
ENDBRANCH   1   7
BRANCH   1  15
ATOM     15  N   UNL     1       7.531  -4.052  23.088  0.00  0.00    -0.178 NA
ATOM     16  H   UNL     1       7.570  -5.069  23.086  0.00  0.00    +0.149 HD
BRANCH  15  17
ATOM     17  S   UNL     1       5.935  -3.609  22.750  0.00  0.00    +0.061 S 
ATOM     18  O   UNL     1       5.382  -4.686  21.946  0.00  0.00    -0.153 OA
ATOM     19  O   UNL     1       6.005  -2.261  22.213  0.00  0.00    -0.153 OA
BRANCH  17  20
ATOM     20  C   UNL     1       5.109  -3.561  24.312  0.00  0.00    +0.126 A 
ATOM     21  C   UNL     1       4.516  -4.693  24.908  0.00  0.00    +0.057 A 
ATOM     22  N   UNL     1       4.607  -5.973  24.336  0.00  0.00    -0.342 N 
ATOM     23  H   UNL     1       4.230  -5.965  23.388  0.00  0.00    +0.146 HD
ATOM     24  C   UNL     1       4.147  -7.113  25.125  0.00  0.00    +0.105 C 
ATOM     25  C   UNL     1       2.839  -6.817  25.852  0.00  0.00    +0.007 C 
ATOM     26  C   UNL     1       1.678  -6.565  24.885  0.00  0.00    +0.009 C 
ATOM     27  C   UNL     1       3.080  -5.636  26.793  0.00  0.00    +0.041 C 
ATOM     28  C   UNL     1       3.799  -4.496  26.112  0.00  0.00    -0.024 A 
ATOM     29  C   UNL     1       3.725  -3.226  26.710  0.00  0.00    +0.005 A 
ATOM     30  C   UNL     1       4.352  -2.134  26.128  0.00  0.00    +0.002 A 
ATOM     31  C   UNL     1       5.048  -2.303  24.938  0.00  0.00    +0.030 A 
ENDBRANCH  17  20
ENDBRANCH  15  17
ENDBRANCH   1  15
BRANCH   1  32
ATOM     32  C   UNL     1       8.783  -4.431  25.180  0.00  0.00    +0.033 C 
BRANCH  32  33
ATOM     33  C   UNL     1       8.034  -4.389  26.527  0.00  0.00    +0.043 C 
BRANCH  33  34
ATOM     34  C   UNL     1       7.227  -5.641  26.908  0.00  0.00    +0.243 C 
BRANCH  34  35
ATOM     35  N   UNL     1       6.757  -5.406  28.274  0.00  0.00    -0.114 NA
ATOM     36  C   UNL     1       6.057  -6.273  28.898  0.00  0.00    +0.376 C 
ATOM     37  N   UNL     1       5.640  -6.016  30.156  0.00  0.00    -0.289 N 
ATOM     38  H   UNL     1       5.764  -6.798  30.785  0.00  0.00    +0.255 HD
ATOM     39  H   UNL     1       6.095  -5.187  30.516  0.00  0.00    +0.255 HD
ATOM     40  N   UNL     1       5.626  -7.489  28.507  0.00  0.00    -0.289 N 
ATOM     41  H   UNL     1       4.699  -7.695  28.852  0.00  0.00    +0.255 HD
ATOM     42  H   UNL     1       5.687  -7.652  27.509  0.00  0.00    +0.255 HD
ENDBRANCH  34  35
ENDBRANCH  33  34
ENDBRANCH  32  33
ENDBRANCH   1  32
TORSDOF 10
ENDMDL
MODEL 3
REMARK VINA RESULT:      -6.7      2.227      4.417
REMARK  Name = 
REMARK  12 active torsions:
REMARK  status: ('A' for Active; 'I' for Inactive)
REMARK    1  A    between atoms: C_1  and  C_2
REMARK    2  A    between atoms: C_7  and  C_10
REMARK    3  A    between atoms: C_10  and  O_11
REMARK    4  A    between atoms: C_13  and  C_15
REMARK    5  A    between atoms: C_15  and  C_17
REMARK    6  A    between atoms: C_15  and  N_24
REMARK    7  A    between atoms: C_17  and  C_18
REMARK    8  A    between atoms: C_18  and  C_19
REMARK    9  A    between atoms: C_19  and  N_20
REMARK   10  A    between atoms: N_24  and  S_25
REMARK   11  A    between atoms: S_25  and  C_28
REMARK   12  A    between atoms: C_36  and  C_38
REMARK                            x       y       z     vdW  Elec       q    Type
REMARK                         _______ _______ _______ _____ _____    ______ ____
ROOT
ATOM      1  C   UNL     1       9.529  -1.104  24.435  0.00  0.00    +0.162 C 
ENDROOT
BRANCH   1   7
ATOM      2  C   UNL     1       4.582  -0.891  28.408  0.00  0.00    +0.007 C 
ATOM      3  C   UNL     1       5.271  -0.236  27.209  0.00  0.00    -0.010 C 
ATOM      4  C   UNL     1       6.792  -0.176  27.424  0.00  0.00    +0.037 C 
ATOM      5  C   UNL     1       7.505   0.464  26.228  0.00  0.00    +0.185 C 
ATOM      6  N   UNL     1       7.170  -0.263  24.985  0.00  0.00    -0.287 N 
ATOM      7  C   UNL     1       8.095  -0.657  24.016  0.00  0.00    +0.235 C 
ATOM      8  O   UNL     1       7.752  -0.690  22.830  0.00  0.00    -0.274 OA
ATOM      9  C   UNL     1       5.727  -0.406  24.707  0.00  0.00    +0.109 C 
ATOM     10  C   UNL     1       4.961  -0.983  25.905  0.00  0.00    +0.022 C 
BRANCH   5  11
ATOM     11  C   UNL     1       7.162   1.972  26.140  0.00  0.00    +0.325 C 
ATOM     12  O   UNL     1       6.613   2.496  25.180  0.00  0.00    -0.249 OA
BRANCH  11  13
ATOM     13  O   UNL     1       7.452   2.676  27.261  0.00  0.00    -0.479 OA
ATOM     14  H   UNL     1       7.986   2.158  27.899  0.00  0.00    +0.295 HD
ENDBRANCH  11  13
ENDBRANCH   5  11
ENDBRANCH   1   7
BRANCH   1  15
ATOM     15  N   UNL     1       9.768  -2.525  24.019  0.00  0.00    -0.178 NA
ATOM     16  H   UNL     1      10.731  -2.793  23.824  0.00  0.00    +0.149 HD
BRANCH  15  17
ATOM     17  S   UNL     1       9.076  -3.767  24.934  0.00  0.00    +0.061 S 
ATOM     18  O   UNL     1       8.859  -3.213  26.260  0.00  0.00    -0.153 OA
ATOM     19  O   UNL     1       9.945  -4.917  24.758  0.00  0.00    -0.153 OA
BRANCH  17  20
ATOM     20  C   UNL     1       7.515  -4.107  24.179  0.00  0.00    +0.126 A 
ATOM     21  C   UNL     1       6.344  -4.381  24.914  0.00  0.00    +0.057 A 
ATOM     22  N   UNL     1       6.313  -4.327  26.318  0.00  0.00    -0.342 N 
ATOM     23  H   UNL     1       7.008  -4.960  26.713  0.00  0.00    +0.146 HD
ATOM     24  C   UNL     1       5.014  -4.418  26.981  0.00  0.00    +0.105 C 
ATOM     25  C   UNL     1       4.123  -5.483  26.351  0.00  0.00    +0.007 C 
ATOM     26  C   UNL     1       4.699  -6.894  26.508  0.00  0.00    +0.009 C 
ATOM     27  C   UNL     1       3.898  -5.106  24.887  0.00  0.00    +0.041 C 
ATOM     28  C   UNL     1       5.184  -4.737  24.185  0.00  0.00    -0.024 A 
ATOM     29  C   UNL     1       5.195  -4.766  22.780  0.00  0.00    +0.005 A 
ATOM     30  C   UNL     1       6.346  -4.451  22.076  0.00  0.00    +0.002 A 
ATOM     31  C   UNL     1       7.500  -4.115  22.772  0.00  0.00    +0.030 A 
ENDBRANCH  17  20
ENDBRANCH  15  17
ENDBRANCH   1  15
BRANCH   1  32
ATOM     32  C   UNL     1      10.619  -0.225  23.758  0.00  0.00    +0.033 C 
BRANCH  32  33
ATOM     33  C   UNL     1      10.637   1.204  24.338  0.00  0.00    +0.043 C 
BRANCH  33  34
ATOM     34  C   UNL     1      10.676   2.360  23.325  0.00  0.00    +0.243 C 
BRANCH  34  35
ATOM     35  N   UNL     1       9.292   2.813  23.192  0.00  0.00    -0.114 NA
ATOM     36  C   UNL     1       8.559   2.444  22.213  0.00  0.00    +0.376 C 
ATOM     37  N   UNL     1       7.287   2.889  22.123  0.00  0.00    -0.289 N 
ATOM     38  H   UNL     1       6.626   2.160  21.888  0.00  0.00    +0.255 HD
ATOM     39  H   UNL     1       7.017   3.358  22.978  0.00  0.00    +0.255 HD
ATOM     40  N   UNL     1       8.839   1.631  21.174  0.00  0.00    -0.289 N 
ATOM     41  H   UNL     1       8.404   1.942  20.317  0.00  0.00    +0.255 HD
ATOM     42  H   UNL     1       9.827   1.455  21.037  0.00  0.00    +0.255 HD
ENDBRANCH  34  35
ENDBRANCH  33  34
ENDBRANCH  32  33
ENDBRANCH   1  32
TORSDOF 10
ENDMDL
MODEL 4
REMARK VINA RESULT:      -6.7      2.637      7.245
REMARK  Name = 
REMARK  12 active torsions:
REMARK  status: ('A' for Active; 'I' for Inactive)
REMARK    1  A    between atoms: C_1  and  C_2
REMARK    2  A    between atoms: C_7  and  C_10
REMARK    3  A    between atoms: C_10  and  O_11
REMARK    4  A    between atoms: C_13  and  C_15
REMARK    5  A    between atoms: C_15  and  C_17
REMARK    6  A    between atoms: C_15  and  N_24
REMARK    7  A    between atoms: C_17  and  C_18
REMARK    8  A    between atoms: C_18  and  C_19
REMARK    9  A    between atoms: C_19  and  N_20
REMARK   10  A    between atoms: N_24  and  S_25
REMARK   11  A    between atoms: S_25  and  C_28
REMARK   12  A    between atoms: C_36  and  C_38
REMARK                            x       y       z     vdW  Elec       q    Type
REMARK                         _______ _______ _______ _____ _____    ______ ____
ROOT
ATOM      1  C   UNL     1       5.777  -2.820  26.790  0.00  0.00    +0.162 C 
ENDROOT
BRANCH   1   7
ATOM      2  C   UNL     1       7.176  -5.973  21.461  0.00  0.00    +0.007 C 
ATOM      3  C   UNL     1       6.093  -5.650  22.493  0.00  0.00    -0.010 C 
ATOM      4  C   UNL     1       6.673  -5.687  23.917  0.00  0.00    +0.037 C 
ATOM      5  C   UNL     1       5.608  -5.353  24.967  0.00  0.00    +0.185 C 
ATOM      6  N   UNL     1       4.998  -4.038  24.674  0.00  0.00    -0.287 N 
ATOM      7  C   UNL     1       4.773  -3.034  25.617  0.00  0.00    +0.235 C 
ATOM      8  O   UNL     1       3.797  -2.289  25.487  0.00  0.00    -0.274 OA
ATOM      9  C   UNL     1       4.443  -3.890  23.313  0.00  0.00    +0.109 C 
ATOM     10  C   UNL     1       5.455  -4.279  22.229  0.00  0.00    +0.022 C 
BRANCH   5  11
ATOM     11  C   UNL     1       4.557  -6.487  25.048  0.00  0.00    +0.325 C 
ATOM     12  O   UNL     1       3.694  -6.561  25.913  0.00  0.00    -0.249 OA
BRANCH  11  13
ATOM     13  O   UNL     1       4.613  -7.374  24.026  0.00  0.00    -0.479 OA
ATOM     14  H   UNL     1       5.481  -7.828  23.974  0.00  0.00    +0.295 HD
ENDBRANCH  11  13
ENDBRANCH   5  11
ENDBRANCH   1   7
BRANCH   1  15
ATOM     15  N   UNL     1       6.641  -1.624  26.518  0.00  0.00    -0.178 NA
ATOM     16  H   UNL     1       6.514  -0.816  27.123  0.00  0.00    +0.149 HD
BRANCH  15  17
ATOM     17  S   UNL     1       8.305  -1.851  26.326  0.00  0.00    +0.061 S 
ATOM     18  O   UNL     1       8.553  -3.255  26.607  0.00  0.00    -0.153 OA
ATOM     19  O   UNL     1       8.939  -0.823  27.133  0.00  0.00    -0.153 OA
BRANCH  17  20
ATOM     20  C   UNL     1       8.640  -1.528  24.620  0.00  0.00    +0.126 A 
ATOM     21  C   UNL     1       9.045  -0.268  24.136  0.00  0.00    +0.057 A 
ATOM     22  N   UNL     1       9.290   0.818  24.994  0.00  0.00    -0.342 N 
ATOM     23  H   UNL     1       8.463   1.021  25.556  0.00  0.00    +0.146 HD
ATOM     24  C   UNL     1       9.905   2.016  24.427  0.00  0.00    +0.105 C 
ATOM     25  C   UNL     1       9.309   2.380  23.072  0.00  0.00    +0.007 C 
ATOM     26  C   UNL     1       7.827   2.755  23.168  0.00  0.00    +0.009 C 
ATOM     27  C   UNL     1       9.552   1.209  22.120  0.00  0.00    +0.041 C 
ATOM     28  C   UNL     1       9.181  -0.119  22.735  0.00  0.00    -0.024 A 
ATOM     29  C   UNL     1       8.965  -1.205  21.870  0.00  0.00    +0.005 A 
ATOM     30  C   UNL     1       8.610  -2.448  22.371  0.00  0.00    +0.002 A 
ATOM     31  C   UNL     1       8.455  -2.611  23.741  0.00  0.00    +0.030 A 
ENDBRANCH  17  20
ENDBRANCH  15  17
ENDBRANCH   1  15
BRANCH   1  32
ATOM     32  C   UNL     1       5.036  -2.570  28.134  0.00  0.00    +0.033 C 
BRANCH  32  33
ATOM     33  C   UNL     1       4.138  -3.763  28.518  0.00  0.00    +0.043 C 
BRANCH  33  34
ATOM     34  C   UNL     1       4.440  -4.451  29.860  0.00  0.00    +0.243 C 
BRANCH  34  35
ATOM     35  N   UNL     1       5.627  -5.273  29.621  0.00  0.00    -0.114 NA
ATOM     36  C   UNL     1       5.533  -6.480  29.216  0.00  0.00    +0.376 C 
ATOM     37  N   UNL     1       6.653  -7.206  29.012  0.00  0.00    -0.289 N 
ATOM     38  H   UNL     1       6.637  -7.729  28.146  0.00  0.00    +0.255 HD
ATOM     39  H   UNL     1       7.472  -6.614  29.061  0.00  0.00    +0.255 HD
ATOM     40  N   UNL     1       4.443  -7.221  28.930  0.00  0.00    -0.289 N 
ATOM     41  H   UNL     1       4.554  -8.186  29.207  0.00  0.00    +0.255 HD
ATOM     42  H   UNL     1       3.575  -6.838  29.284  0.00  0.00    +0.255 HD
ENDBRANCH  34  35
ENDBRANCH  33  34
ENDBRANCH  32  33
ENDBRANCH   1  32
TORSDOF 10
ENDMDL
MODEL 5
REMARK VINA RESULT:      -6.6      2.001      6.910
REMARK  Name = 
REMARK  12 active torsions:
REMARK  status: ('A' for Active; 'I' for Inactive)
REMARK    1  A    between atoms: C_1  and  C_2
REMARK    2  A    between atoms: C_7  and  C_10
REMARK    3  A    between atoms: C_10  and  O_11
REMARK    4  A    between atoms: C_13  and  C_15
REMARK    5  A    between atoms: C_15  and  C_17
REMARK    6  A    between atoms: C_15  and  N_24
REMARK    7  A    between atoms: C_17  and  C_18
REMARK    8  A    between atoms: C_18  and  C_19
REMARK    9  A    between atoms: C_19  and  N_20
REMARK   10  A    between atoms: N_24  and  S_25
REMARK   11  A    between atoms: S_25  and  C_28
REMARK   12  A    between atoms: C_36  and  C_38
REMARK                            x       y       z     vdW  Elec       q    Type
REMARK                         _______ _______ _______ _____ _____    ______ ____
ROOT
ATOM      1  C   UNL     1       6.146  -2.303  26.723  0.00  0.00    +0.162 C 
ENDROOT
BRANCH   1   7
ATOM      2  C   UNL     1      10.548  -1.429  22.233  0.00  0.00    +0.007 C 
ATOM      3  C   UNL     1       9.357  -2.274  22.689  0.00  0.00    -0.010 C 
ATOM      4  C   UNL     1       9.440  -2.556  24.199  0.00  0.00    +0.037 C 
ATOM      5  C   UNL     1       8.248  -3.391  24.681  0.00  0.00    +0.185 C 
ATOM      6  N   UNL     1       6.979  -2.716  24.334  0.00  0.00    -0.287 N 
ATOM      7  C   UNL     1       5.899  -2.548  25.203  0.00  0.00    +0.235 C 
ATOM      8  O   UNL     1       4.751  -2.551  24.749  0.00  0.00    -0.274 OA
ATOM      9  C   UNL     1       6.820  -2.368  22.908  0.00  0.00    +0.109 C 
ATOM     10  C   UNL     1       8.023  -1.589  22.363  0.00  0.00    +0.022 C 
BRANCH   5  11
ATOM     11  C   UNL     1       8.329  -4.828  24.109  0.00  0.00    +0.325 C 
ATOM     12  O   UNL     1       7.520  -5.298  23.320  0.00  0.00    -0.249 OA
BRANCH  11  13
ATOM     13  O   UNL     1       9.427  -5.520  24.494  0.00  0.00    -0.479 OA
ATOM     14  H   UNL     1       9.839  -6.010  23.752  0.00  0.00    +0.295 HD
ENDBRANCH  11  13
ENDBRANCH   5  11
ENDBRANCH   1   7
BRANCH   1  15
ATOM     15  N   UNL     1       5.984  -0.846  27.043  0.00  0.00    -0.178 NA
ATOM     16  H   UNL     1       5.531  -0.615  27.924  0.00  0.00    +0.149 HD
BRANCH  15  17
ATOM     17  S   UNL     1       7.323   0.175  26.885  0.00  0.00    +0.061 S 
ATOM     18  O   UNL     1       8.493  -0.678  27.015  0.00  0.00    -0.153 OA
ATOM     19  O   UNL     1       7.104   1.261  27.823  0.00  0.00    -0.153 OA
BRANCH  17  20
ATOM     20  C   UNL     1       7.246   0.815  25.239  0.00  0.00    +0.126 A 
ATOM     21  C   UNL     1       8.382   1.237  24.519  0.00  0.00    +0.057 A 
ATOM     22  N   UNL     1       9.684   1.107  25.034  0.00  0.00    -0.342 N 
ATOM     23  H   UNL     1       9.761   1.590  25.929  0.00  0.00    +0.146 HD
ATOM     24  C   UNL     1      10.806   1.375  24.139  0.00  0.00    +0.105 C 
ATOM     25  C   UNL     1      10.569   2.609  23.275  0.00  0.00    +0.007 C 
ATOM     26  C   UNL     1      10.466   3.892  24.106  0.00  0.00    +0.009 C 
ATOM     27  C   UNL     1       9.320   2.361  22.430  0.00  0.00    +0.041 C 
ATOM     28  C   UNL     1       8.170   1.824  23.249  0.00  0.00    -0.024 A 
ATOM     29  C   UNL     1       6.876   1.934  22.712  0.00  0.00    +0.005 A 
ATOM     30  C   UNL     1       5.776   1.472  23.418  0.00  0.00    +0.002 A 
ATOM     31  C   UNL     1       5.961   0.907  24.674  0.00  0.00    +0.030 A 
ENDBRANCH  17  20
ENDBRANCH  15  17
ENDBRANCH   1  15
BRANCH   1  32
ATOM     32  C   UNL     1       5.133  -3.093  27.598  0.00  0.00    +0.033 C 
BRANCH  32  33
ATOM     33  C   UNL     1       5.362  -4.615  27.498  0.00  0.00    +0.043 C 
BRANCH  33  34
ATOM     34  C   UNL     1       4.202  -5.452  26.934  0.00  0.00    +0.243 C 
BRANCH  34  35
ATOM     35  N   UNL     1       4.774  -6.219  25.827  0.00  0.00    -0.114 NA
ATOM     36  C   UNL     1       4.392  -6.039  24.622  0.00  0.00    +0.376 C 
ATOM     37  N   UNL     1       4.941  -6.771  23.629  0.00  0.00    -0.289 N 
ATOM     38  H   UNL     1       5.187  -6.220  22.817  0.00  0.00    +0.255 HD
ATOM     39  H   UNL     1       5.741  -7.286  23.972  0.00  0.00    +0.255 HD
ATOM     40  N   UNL     1       3.474  -5.189  24.117  0.00  0.00    -0.289 N 
ATOM     41  H   UNL     1       2.951  -5.599  23.357  0.00  0.00    +0.255 HD
ATOM     42  H   UNL     1       2.854  -4.787  24.810  0.00  0.00    +0.255 HD
ENDBRANCH  34  35
ENDBRANCH  33  34
ENDBRANCH  32  33
ENDBRANCH   1  32
TORSDOF 10
ENDMDL
MODEL 6
REMARK VINA RESULT:      -6.6      2.420      4.715
REMARK  Name = 
REMARK  12 active torsions:
REMARK  status: ('A' for Active; 'I' for Inactive)
REMARK    1  A    between atoms: C_1  and  C_2
REMARK    2  A    between atoms: C_7  and  C_10
REMARK    3  A    between atoms: C_10  and  O_11
REMARK    4  A    between atoms: C_13  and  C_15
REMARK    5  A    between atoms: C_15  and  C_17
REMARK    6  A    between atoms: C_15  and  N_24
REMARK    7  A    between atoms: C_17  and  C_18
REMARK    8  A    between atoms: C_18  and  C_19
REMARK    9  A    between atoms: C_19  and  N_20
REMARK   10  A    between atoms: N_24  and  S_25
REMARK   11  A    between atoms: S_25  and  C_28
REMARK   12  A    between atoms: C_36  and  C_38
REMARK                            x       y       z     vdW  Elec       q    Type
REMARK                         _______ _______ _______ _____ _____    ______ ____
ROOT
ATOM      1  C   UNL     1       8.355   0.721  23.338  0.00  0.00    +0.162 C 
ENDROOT
BRANCH   1   7
ATOM      2  C   UNL     1       5.377  -3.013  27.520  0.00  0.00    +0.007 C 
ATOM      3  C   UNL     1       5.659  -1.573  27.087  0.00  0.00    -0.010 C 
ATOM      4  C   UNL     1       7.137  -1.404  26.698  0.00  0.00    +0.037 C 
ATOM      5  C   UNL     1       7.440   0.028  26.246  0.00  0.00    +0.185 C 
ATOM      6  N   UNL     1       6.548   0.411  25.130  0.00  0.00    -0.287 N 
ATOM      7  C   UNL     1       6.962   1.047  23.959  0.00  0.00    +0.235 C 
ATOM      8  O   UNL     1       6.196   1.835  23.395  0.00  0.00    -0.274 OA
ATOM      9  C   UNL     1       5.104   0.250  25.394  0.00  0.00    +0.109 C 
ATOM     10  C   UNL     1       4.764  -1.153  25.913  0.00  0.00    +0.022 C 
BRANCH   5  11
ATOM     11  C   UNL     1       7.339   1.004  27.445  0.00  0.00    +0.325 C 
ATOM     12  O   UNL     1       6.766   2.084  27.403  0.00  0.00    -0.249 OA
BRANCH  11  13
ATOM     13  O   UNL     1       7.879   0.533  28.594  0.00  0.00    -0.479 OA
ATOM     14  H   UNL     1       8.359  -0.311  28.462  0.00  0.00    +0.295 HD
ENDBRANCH  11  13
ENDBRANCH   5  11
ENDBRANCH   1   7
BRANCH   1  15
ATOM     15  N   UNL     1       8.395  -0.708  22.883  0.00  0.00    -0.178 NA
ATOM     16  H   UNL     1       8.231  -0.881  21.894  0.00  0.00    +0.149 HD
BRANCH  15  17
ATOM     17  S   UNL     1       9.699  -1.675  23.354  0.00  0.00    +0.061 S 
ATOM     18  O   UNL     1      10.410  -0.920  24.373  0.00  0.00    -0.153 OA
ATOM     19  O   UNL     1      10.373  -2.054  22.125  0.00  0.00    -0.153 OA
BRANCH  17  20
ATOM     20  C   UNL     1       8.987  -3.118  24.085  0.00  0.00    +0.126 A 
ATOM     21  C   UNL     1       7.892  -3.809  23.527  0.00  0.00    +0.057 A 
ATOM     22  N   UNL     1       7.328  -3.442  22.293  0.00  0.00    -0.342 N 
ATOM     23  H   UNL     1       7.023  -2.469  22.317  0.00  0.00    +0.146 HD
ATOM     24  C   UNL     1       6.341  -4.337  21.696  0.00  0.00    +0.105 C 
ATOM     25  C   UNL     1       5.354  -4.872  22.728  0.00  0.00    +0.007 C 
ATOM     26  C   UNL     1       4.497  -3.763  23.346  0.00  0.00    +0.009 C 
ATOM     27  C   UNL     1       6.146  -5.650  23.779  0.00  0.00    +0.041 C 
ATOM     28  C   UNL     1       7.355  -4.889  24.267  0.00  0.00    -0.024 A 
ATOM     29  C   UNL     1       7.928  -5.282  25.489  0.00  0.00    +0.005 A 
ATOM     30  C   UNL     1       9.031  -4.617  25.999  0.00  0.00    +0.002 A 
ATOM     31  C   UNL     1       9.564  -3.543  25.296  0.00  0.00    +0.030 A 
ENDBRANCH  17  20
ENDBRANCH  15  17
ENDBRANCH   1  15
BRANCH   1  32
ATOM     32  C   UNL     1       8.651   1.618  22.103  0.00  0.00    +0.033 C 
BRANCH  32  33
ATOM     33  C   UNL     1      10.019   2.320  22.226  0.00  0.00    +0.043 C 
BRANCH  33  34
ATOM     34  C   UNL     1      10.303   3.051  23.548  0.00  0.00    +0.243 C 
BRANCH  34  35
ATOM     35  N   UNL     1      11.681   3.533  23.442  0.00  0.00    -0.114 NA
ATOM     36  C   UNL     1      11.944   4.771  23.268  0.00  0.00    +0.376 C 
ATOM     37  N   UNL     1      13.228   5.175  23.171  0.00  0.00    -0.289 N 
ATOM     38  H   UNL     1      13.428   6.004  23.715  0.00  0.00    +0.255 HD
ATOM     39  H   UNL     1      13.855   4.421  23.420  0.00  0.00    +0.255 HD
ATOM     40  N   UNL     1      11.116   5.830  23.157  0.00  0.00    -0.289 N 
ATOM     41  H   UNL     1      11.450   6.507  22.486  0.00  0.00    +0.255 HD
ATOM     42  H   UNL     1      10.149   5.586  22.977  0.00  0.00    +0.255 HD
ENDBRANCH  34  35
ENDBRANCH  33  34
ENDBRANCH  32  33
ENDBRANCH   1  32
TORSDOF 10
ENDMDL
MODEL 7
REMARK VINA RESULT:      -6.6      2.692      4.981
REMARK  Name = 
REMARK  12 active torsions:
REMARK  status: ('A' for Active; 'I' for Inactive)
REMARK    1  A    between atoms: C_1  and  C_2
REMARK    2  A    between atoms: C_7  and  C_10
REMARK    3  A    between atoms: C_10  and  O_11
REMARK    4  A    between atoms: C_13  and  C_15
REMARK    5  A    between atoms: C_15  and  C_17
REMARK    6  A    between atoms: C_15  and  N_24
REMARK    7  A    between atoms: C_17  and  C_18
REMARK    8  A    between atoms: C_18  and  C_19
REMARK    9  A    between atoms: C_19  and  N_20
REMARK   10  A    between atoms: N_24  and  S_25
REMARK   11  A    between atoms: S_25  and  C_28
REMARK   12  A    between atoms: C_36  and  C_38
REMARK                            x       y       z     vdW  Elec       q    Type
REMARK                         _______ _______ _______ _____ _____    ______ ____
ROOT
ATOM      1  C   UNL     1       8.506   0.809  25.348  0.00  0.00    +0.162 C 
ENDROOT
BRANCH   1   7
ATOM      2  C   UNL     1       3.562   3.359  22.289  0.00  0.00    +0.007 C 
ATOM      3  C   UNL     1       4.741   3.621  23.228  0.00  0.00    -0.010 C 
ATOM      4  C   UNL     1       4.863   2.499  24.272  0.00  0.00    +0.037 C 
ATOM      5  C   UNL     1       6.047   2.734  25.216  0.00  0.00    +0.185 C 
ATOM      6  N   UNL     1       7.298   2.879  24.439  0.00  0.00    -0.287 N 
ATOM      7  C   UNL     1       8.504   2.246  24.743  0.00  0.00    +0.235 C 
ATOM      8  O   UNL     1       9.569   2.816  24.485  0.00  0.00    -0.274 OA
ATOM      9  C   UNL     1       7.268   3.911  23.383  0.00  0.00    +0.109 C 
ATOM     10  C   UNL     1       6.059   3.753  22.453  0.00  0.00    +0.022 C 
BRANCH   5  11
ATOM     11  C   UNL     1       5.775   3.956  26.129  0.00  0.00    +0.325 C 
ATOM     12  O   UNL     1       6.597   4.828  26.370  0.00  0.00    -0.249 OA
BRANCH  11  13
ATOM     13  O   UNL     1       4.505   4.032  26.593  0.00  0.00    -0.479 OA
ATOM     14  H   UNL     1       4.446   4.518  27.442  0.00  0.00    +0.295 HD
ENDBRANCH  11  13
ENDBRANCH   5  11
ENDBRANCH   1   7
BRANCH   1  15
ATOM     15  N   UNL     1       7.530  -0.062  24.612  0.00  0.00    -0.178 NA
ATOM     16  H   UNL     1       7.883  -0.565  23.800  0.00  0.00    +0.149 HD
BRANCH  15  17
ATOM     17  S   UNL     1       6.576  -1.141  25.497  0.00  0.00    +0.061 S 
ATOM     18  O   UNL     1       5.266  -1.126  24.867  0.00  0.00    -0.153 OA
ATOM     19  O   UNL     1       6.721  -0.746  26.887  0.00  0.00    -0.153 OA
BRANCH  17  20
ATOM     20  C   UNL     1       7.315  -2.731  25.272  0.00  0.00    +0.126 A 
ATOM     21  C   UNL     1       7.167  -3.492  24.095  0.00  0.00    +0.057 A 
ATOM     22  N   UNL     1       6.478  -3.006  22.971  0.00  0.00    -0.342 N 
ATOM     23  H   UNL     1       5.523  -2.750  23.224  0.00  0.00    +0.146 HD
ATOM     24  C   UNL     1       6.555  -3.775  21.732  0.00  0.00    +0.105 C 
ATOM     25  C   UNL     1       6.422  -5.274  21.977  0.00  0.00    +0.007 C 
ATOM     26  C   UNL     1       5.049  -5.653  22.543  0.00  0.00    +0.009 C 
ATOM     27  C   UNL     1       7.568  -5.706  22.892  0.00  0.00    +0.041 C 
ATOM     28  C   UNL     1       7.726  -4.793  24.085  0.00  0.00    -0.024 A 
ATOM     29  C   UNL     1       8.442  -5.280  25.192  0.00  0.00    +0.005 A 
ATOM     30  C   UNL     1       8.613  -4.496  26.323  0.00  0.00    +0.002 A 
ATOM     31  C   UNL     1       8.058  -3.223  26.360  0.00  0.00    +0.030 A 
ENDBRANCH  17  20
ENDBRANCH  15  17
ENDBRANCH   1  15
BRANCH   1  32
ATOM     32  C   UNL     1       9.908   0.146  25.235  0.00  0.00    +0.033 C 
BRANCH  32  33
ATOM     33  C   UNL     1       9.944  -0.921  24.121  0.00  0.00    +0.043 C 
BRANCH  33  34
ATOM     34  C   UNL     1      10.568  -0.499  22.781  0.00  0.00    +0.243 C 
BRANCH  34  35
ATOM     35  N   UNL     1       9.448  -0.070  21.944  0.00  0.00    -0.114 NA
ATOM     36  C   UNL     1       9.364   1.125  21.501  0.00  0.00    +0.376 C 
ATOM     37  N   UNL     1       8.311   1.483  20.735  0.00  0.00    -0.289 N 
ATOM     38  H   UNL     1       8.576   2.024  19.922  0.00  0.00    +0.255 HD
ATOM     39  H   UNL     1       7.777   0.667  20.467  0.00  0.00    +0.255 HD
ATOM     40  N   UNL     1      10.193   2.176  21.667  0.00  0.00    -0.289 N 
ATOM     41  H   UNL     1       9.691   3.047  21.761  0.00  0.00    +0.255 HD
ATOM     42  H   UNL     1      10.866   2.061  22.417  0.00  0.00    +0.255 HD
ENDBRANCH  34  35
ENDBRANCH  33  34
ENDBRANCH  32  33
ENDBRANCH   1  32
TORSDOF 10
ENDMDL
MODEL 8
REMARK VINA RESULT:      -6.5      2.705      7.343
REMARK  Name = 
REMARK  12 active torsions:
REMARK  status: ('A' for Active; 'I' for Inactive)
REMARK    1  A    between atoms: C_1  and  C_2
REMARK    2  A    between atoms: C_7  and  C_10
REMARK    3  A    between atoms: C_10  and  O_11
REMARK    4  A    between atoms: C_13  and  C_15
REMARK    5  A    between atoms: C_15  and  C_17
REMARK    6  A    between atoms: C_15  and  N_24
REMARK    7  A    between atoms: C_17  and  C_18
REMARK    8  A    between atoms: C_18  and  C_19
REMARK    9  A    between atoms: C_19  and  N_20
REMARK   10  A    between atoms: N_24  and  S_25
REMARK   11  A    between atoms: S_25  and  C_28
REMARK   12  A    between atoms: C_36  and  C_38
REMARK                            x       y       z     vdW  Elec       q    Type
REMARK                         _______ _______ _______ _____ _____    ______ ____
ROOT
ATOM      1  C   UNL     1       6.939  -3.611  26.295  0.00  0.00    +0.162 C 
ENDROOT
BRANCH   1   7
ATOM      2  C   UNL     1       2.372  -4.982  30.484  0.00  0.00    +0.007 C 
ATOM      3  C   UNL     1       3.352  -5.544  29.453  0.00  0.00    -0.010 C 
ATOM      4  C   UNL     1       3.395  -4.650  28.203  0.00  0.00    +0.037 C 
ATOM      5  C   UNL     1       4.382  -5.186  27.161  0.00  0.00    +0.185 C 
ATOM      6  N   UNL     1       5.727  -5.331  27.759  0.00  0.00    -0.287 N 
ATOM      7  C   UNL     1       6.916  -4.906  27.164  0.00  0.00    +0.235 C 
ATOM      8  O   UNL     1       7.956  -5.539  27.370  0.00  0.00    -0.274 OA
ATOM      9  C   UNL     1       5.785  -6.145  28.990  0.00  0.00    +0.109 C 
ATOM     10  C   UNL     1       4.764  -5.684  30.038  0.00  0.00    +0.022 C 
BRANCH   5  11
ATOM     11  C   UNL     1       3.859  -6.513  26.556  0.00  0.00    +0.325 C 
ATOM     12  O   UNL     1       2.804  -7.042  26.874  0.00  0.00    -0.249 OA
BRANCH  11  13
ATOM     13  O   UNL     1       4.637  -7.020  25.570  0.00  0.00    -0.479 OA
ATOM     14  H   UNL     1       5.282  -7.678  25.904  0.00  0.00    +0.295 HD
ENDBRANCH  11  13
ENDBRANCH   5  11
ENDBRANCH   1   7
BRANCH   1  15
ATOM     15  N   UNL     1       8.257  -2.911  26.449  0.00  0.00    -0.178 NA
ATOM     16  H   UNL     1       9.038  -3.273  25.905  0.00  0.00    +0.149 HD
BRANCH  15  17
ATOM     17  S   UNL     1       8.301  -1.225  26.329  0.00  0.00    +0.061 S 
ATOM     18  O   UNL     1       9.136  -0.767  27.428  0.00  0.00    -0.153 OA
ATOM     19  O   UNL     1       6.915  -0.801  26.242  0.00  0.00    -0.153 OA
BRANCH  17  20
ATOM     20  C   UNL     1       9.106  -0.873  24.796  0.00  0.00    +0.126 A 
ATOM     21  C   UNL     1       9.250   0.430  24.279  0.00  0.00    +0.057 A 
ATOM     22  N   UNL     1       8.826   1.567  24.989  0.00  0.00    -0.342 N 
ATOM     23  H   UNL     1       7.834   1.495  25.213  0.00  0.00    +0.146 HD
ATOM     24  C   UNL     1       9.203   2.879  24.472  0.00  0.00    +0.105 C 
ATOM     25  C   UNL     1       9.050   2.965  22.957  0.00  0.00    +0.007 C 
ATOM     26  C   UNL     1       7.593   2.814  22.509  0.00  0.00    +0.009 C 
ATOM     27  C   UNL     1       9.964   1.913  22.330  0.00  0.00    +0.041 C 
ATOM     28  C   UNL     1       9.825   0.562  22.992  0.00  0.00    -0.024 A 
ATOM     29  C   UNL     1      10.277  -0.564  22.284  0.00  0.00    +0.005 A 
ATOM     30  C   UNL     1      10.166  -1.834  22.830  0.00  0.00    +0.002 A 
ATOM     31  C   UNL     1       9.590  -1.987  24.085  0.00  0.00    +0.030 A 
ENDBRANCH  17  20
ENDBRANCH  15  17
ENDBRANCH   1  15
BRANCH   1  32
ATOM     32  C   UNL     1       6.751  -3.936  24.786  0.00  0.00    +0.033 C 
BRANCH  32  33
ATOM     33  C   UNL     1       5.517  -3.220  24.200  0.00  0.00    +0.043 C 
BRANCH  33  34
ATOM     34  C   UNL     1       4.506  -4.096  23.443  0.00  0.00    +0.243 C 
BRANCH  34  35
ATOM     35  N   UNL     1       5.135  -4.402  22.158  0.00  0.00    -0.114 NA
ATOM     36  C   UNL     1       5.588  -5.567  21.897  0.00  0.00    +0.376 C 
ATOM     37  N   UNL     1       6.166  -5.808  20.700  0.00  0.00    -0.289 N 
ATOM     38  H   UNL     1       5.862  -6.676  20.278  0.00  0.00    +0.255 HD
ATOM     39  H   UNL     1       6.015  -5.029  20.073  0.00  0.00    +0.255 HD
ATOM     40  N   UNL     1       5.596  -6.688  22.648  0.00  0.00    -0.289 N 
ATOM     41  H   UNL     1       6.441  -7.225  22.522  0.00  0.00    +0.255 HD
ATOM     42  H   UNL     1       5.406  -6.531  23.631  0.00  0.00    +0.255 HD
ENDBRANCH  34  35
ENDBRANCH  33  34
ENDBRANCH  32  33
ENDBRANCH   1  32
TORSDOF 10
ENDMDL
MODEL 9
REMARK VINA RESULT:      -6.4      2.026      4.546
REMARK  Name = 
REMARK  12 active torsions:
REMARK  status: ('A' for Active; 'I' for Inactive)
REMARK    1  A    between atoms: C_1  and  C_2
REMARK    2  A    between atoms: C_7  and  C_10
REMARK    3  A    between atoms: C_10  and  O_11
REMARK    4  A    between atoms: C_13  and  C_15
REMARK    5  A    between atoms: C_15  and  C_17
REMARK    6  A    between atoms: C_15  and  N_24
REMARK    7  A    between atoms: C_17  and  C_18
REMARK    8  A    between atoms: C_18  and  C_19
REMARK    9  A    between atoms: C_19  and  N_20
REMARK   10  A    between atoms: N_24  and  S_25
REMARK   11  A    between atoms: S_25  and  C_28
REMARK   12  A    between atoms: C_36  and  C_38
REMARK                            x       y       z     vdW  Elec       q    Type
REMARK                         _______ _______ _______ _____ _____    ______ ____
ROOT
ATOM      1  C   UNL     1       6.689  -2.532  24.723  0.00  0.00    +0.162 C 
ENDROOT
BRANCH   1   7
ATOM      2  C   UNL     1      10.241   2.167  22.355  0.00  0.00    +0.007 C 
ATOM      3  C   UNL     1       9.599   1.577  23.612  0.00  0.00    -0.010 C 
ATOM      4  C   UNL     1       8.172   1.087  23.313  0.00  0.00    +0.037 C 
ATOM      5  C   UNL     1       7.514   0.479  24.555  0.00  0.00    +0.185 C 
ATOM      6  N   UNL     1       8.351  -0.615  25.093  0.00  0.00    -0.287 N 
ATOM      7  C   UNL     1       7.875  -1.866  25.487  0.00  0.00    +0.235 C 
ATOM      8  O   UNL     1       8.429  -2.460  26.417  0.00  0.00    -0.274 OA
ATOM      9  C   UNL     1       9.754  -0.253  25.379  0.00  0.00    +0.109 C 
ATOM     10  C   UNL     1      10.434   0.422  24.181  0.00  0.00    +0.022 C 
BRANCH   5  11
ATOM     11  C   UNL     1       7.232   1.579  25.609  0.00  0.00    +0.325 C 
ATOM     12  O   UNL     1       7.281   2.779  25.377  0.00  0.00    -0.249 OA
BRANCH  11  13
ATOM     13  O   UNL     1       6.844   1.106  26.818  0.00  0.00    -0.479 OA
ATOM     14  H   UNL     1       7.598   0.764  27.344  0.00  0.00    +0.295 HD
ENDBRANCH  11  13
ENDBRANCH   5  11
ENDBRANCH   1   7
BRANCH   1  15
ATOM     15  N   UNL     1       5.420  -1.775  24.980  0.00  0.00    -0.178 NA
ATOM     16  H   UNL     1       4.771  -1.684  24.201  0.00  0.00    +0.149 HD
BRANCH  15  17
ATOM     17  S   UNL     1       4.509  -2.159  26.351  0.00  0.00    +0.061 S 
ATOM     18  O   UNL     1       3.129  -1.851  26.014  0.00  0.00    -0.153 OA
ATOM     19  O   UNL     1       5.158  -1.481  27.459  0.00  0.00    -0.153 OA
BRANCH  17  20
ATOM     20  C   UNL     1       4.681  -3.905  26.567  0.00  0.00    +0.126 A 
ATOM     21  C   UNL     1       4.275  -4.848  25.602  0.00  0.00    +0.057 A 
ATOM     22  N   UNL     1       3.768  -4.464  24.348  0.00  0.00    -0.342 N 
ATOM     23  H   UNL     1       2.954  -3.860  24.465  0.00  0.00    +0.146 HD
ATOM     24  C   UNL     1       3.572  -5.501  23.339  0.00  0.00    +0.105 C 
ATOM     25  C   UNL     1       2.957  -6.765  23.928  0.00  0.00    +0.007 C 
ATOM     26  C   UNL     1       1.545  -6.529  24.471  0.00  0.00    +0.009 C 
ATOM     27  C   UNL     1       3.910  -7.299  24.998  0.00  0.00    +0.041 C 
ATOM     28  C   UNL     1       4.376  -6.218  25.943  0.00  0.00    -0.024 A 
ATOM     29  C   UNL     1       4.908  -6.616  27.182  0.00  0.00    +0.005 A 
ATOM     30  C   UNL     1       5.342  -5.672  28.101  0.00  0.00    +0.002 A 
ATOM     31  C   UNL     1       5.236  -4.322  27.791  0.00  0.00    +0.030 A 
ENDBRANCH  17  20
ENDBRANCH  15  17
ENDBRANCH   1  15
BRANCH   1  32
ATOM     32  C   UNL     1       6.934  -2.534  23.187  0.00  0.00    +0.033 C 
BRANCH  32  33
ATOM     33  C   UNL     1       7.392  -3.919  22.686  0.00  0.00    +0.043 C 
BRANCH  33  34
ATOM     34  C   UNL     1       7.417  -5.054  23.723  0.00  0.00    +0.243 C 
BRANCH  34  35
ATOM     35  N   UNL     1       8.817  -5.185  24.128  0.00  0.00    -0.114 NA
ATOM     36  C   UNL     1       9.141  -5.449  25.335  0.00  0.00    +0.376 C 
ATOM     37  N   UNL     1      10.445  -5.558  25.669  0.00  0.00    -0.289 N 
ATOM     38  H   UNL     1      10.641  -6.358  26.256  0.00  0.00    +0.255 HD
ATOM     39  H   UNL     1      11.022  -5.570  24.839  0.00  0.00    +0.255 HD
ATOM     40  N   UNL     1       8.367  -5.659  26.419  0.00  0.00    -0.289 N 
ATOM     41  H   UNL     1       8.773  -5.272  27.259  0.00  0.00    +0.255 HD
ATOM     42  H   UNL     1       7.405  -5.360  26.308  0.00  0.00    +0.255 HD
ENDBRANCH  34  35
ENDBRANCH  33  34
ENDBRANCH  32  33
ENDBRANCH   1  32
TORSDOF 10
ENDMDL
