MODEL 1
REMARK VINA RESULT:      -4.8      0.000      0.000
REMARK  Name = 
REMARK  11 active torsions:
REMARK  status: ('A' for Active; 'I' for Inactive)
REMARK    1  A    between atoms: C_1  and  C_2
REMARK    2  A    between atoms: C_2  and  C_3
REMARK    3  A    between atoms: C_3  and  C_4
REMARK    4  A    between atoms: C_4  and  C_5
REMARK    5  A    between atoms: C_5  and  C_6
REMARK    6  A    between atoms: C_6  and  C_7
REMARK    7  A    between atoms: C_7  and  C_8
REMARK    8  A    between atoms: C_8  and  S_9
REMARK    9  A    between atoms: S_9  and  C_10
REMARK   10  A    between atoms: C_10  and  C_11
REMARK   11  A    between atoms: C_11  and  C_13
REMARK                            x       y       z     vdW  Elec       q    Type
REMARK                         _______ _______ _______ _____ _____    ______ ____
ROOT
ATOM      1  C   UNL     1       9.511  -2.206  23.824  0.00  0.00    +0.069 C 
ENDROOT
BRANCH   1   2
ATOM      2  C   UNL     1       9.630  -0.907  24.619  0.00  0.00    +0.011 C 
BRANCH   2   3
ATOM      3  C   UNL     1      10.702   0.026  24.049  0.00  0.00    +0.001 C 
BRANCH   3   4
ATOM      4  C   UNL     1      10.345   1.486  24.343  0.00  0.00    +0.000 C 
BRANCH   4   5
ATOM      5  C   UNL     1      10.220   2.318  23.068  0.00  0.00    -0.000 C 
BRANCH   5   6
ATOM      6  C   UNL     1       9.707   1.461  21.907  0.00  0.00    -0.000 C 
BRANCH   6   8
ATOM      7  C   UNL     1       7.293   1.005  22.460  0.00  0.00    +0.004 C 
ATOM      8  C   UNL     1       8.251   1.784  21.573  0.00  0.00    -0.003 C 
ENDBRANCH   6   8
ENDBRANCH   5   6
ENDBRANCH   4   5
ENDBRANCH   3   4
ENDBRANCH   2   3
ENDBRANCH   1   2
BRANCH   1   9
ATOM      9  S   UNL     1       7.770  -2.765  23.884  0.00  0.00    -0.153 S 
BRANCH   9  10
ATOM     10  C   UNL     1       7.520  -3.222  22.146  0.00  0.00    +0.152 C 
BRANCH  10  11
ATOM     11  C   UNL     1       6.247  -4.007  21.962  0.00  0.00    +0.245 C 
ATOM     12  O   UNL     1       5.149  -3.467  22.144  0.00  0.00    -0.287 OA
BRANCH  11  13
ATOM     13  C   UNL     1       6.399  -5.455  21.535  0.00  0.00    +0.451 C 
ATOM     14  F   UNL     1       5.608  -6.295  22.255  0.00  0.00    -0.163 F 
ATOM     15  F   UNL     1       7.678  -5.898  21.691  0.00  0.00    -0.163 F 
ATOM     16  F   UNL     1       6.092  -5.667  20.226  0.00  0.00    -0.163 F 
ENDBRANCH  11  13
ENDBRANCH  10  11
ENDBRANCH   9  10
ENDBRANCH   1   9
TORSDOF 10
ENDMDL
MODEL 2
REMARK VINA RESULT:      -4.8      2.074      2.343
REMARK  Name = 
REMARK  11 active torsions:
REMARK  status: ('A' for Active; 'I' for Inactive)
REMARK    1  A    between atoms: C_1  and  C_2
REMARK    2  A    between atoms: C_2  and  C_3
REMARK    3  A    between atoms: C_3  and  C_4
REMARK    4  A    between atoms: C_4  and  C_5
REMARK    5  A    between atoms: C_5  and  C_6
REMARK    6  A    between atoms: C_6  and  C_7
REMARK    7  A    between atoms: C_7  and  C_8
REMARK    8  A    between atoms: C_8  and  S_9
REMARK    9  A    between atoms: S_9  and  C_10
REMARK   10  A    between atoms: C_10  and  C_11
REMARK   11  A    between atoms: C_11  and  C_13
REMARK                            x       y       z     vdW  Elec       q    Type
REMARK                         _______ _______ _______ _____ _____    ______ ____
ROOT
ATOM      1  C   UNL     1       8.085  -1.792  24.930  0.00  0.00    +0.069 C 
ENDROOT
BRANCH   1   2
ATOM      2  C   UNL     1       9.486  -1.357  24.504  0.00  0.00    +0.011 C 
BRANCH   2   3
ATOM      3  C   UNL     1       9.911  -0.041  25.163  0.00  0.00    +0.001 C 
BRANCH   3   4
ATOM      4  C   UNL     1      10.855   0.733  24.240  0.00  0.00    +0.000 C 
BRANCH   4   5
ATOM      5  C   UNL     1      10.178   1.949  23.608  0.00  0.00    -0.000 C 
BRANCH   5   6
ATOM      6  C   UNL     1      10.144   1.820  22.083  0.00  0.00    -0.000 C 
BRANCH   6   8
ATOM      7  C   UNL     1       7.673   1.365  22.246  0.00  0.00    +0.004 C 
ATOM      8  C   UNL     1       8.990   0.932  21.621  0.00  0.00    -0.003 C 
ENDBRANCH   6   8
ENDBRANCH   5   6
ENDBRANCH   4   5
ENDBRANCH   3   4
ENDBRANCH   2   3
ENDBRANCH   1   2
BRANCH   1   9
ATOM      9  S   UNL     1       8.245  -3.076  26.224  0.00  0.00    -0.153 S 
BRANCH   9  10
ATOM     10  C   UNL     1       7.366  -4.448  25.426  0.00  0.00    +0.152 C 
BRANCH  10  11
ATOM     11  C   UNL     1       8.167  -5.026  24.289  0.00  0.00    +0.245 C 
ATOM     12  O   UNL     1       9.353  -5.337  24.456  0.00  0.00    -0.287 OA
BRANCH  11  13
ATOM     13  C   UNL     1       7.439  -5.212  22.972  0.00  0.00    +0.451 C 
ATOM     14  F   UNL     1       7.577  -4.140  22.145  0.00  0.00    -0.163 F 
ATOM     15  F   UNL     1       6.101  -5.392  23.153  0.00  0.00    -0.163 F 
ATOM     16  F   UNL     1       7.865  -6.296  22.267  0.00  0.00    -0.163 F 
ENDBRANCH  11  13
ENDBRANCH  10  11
ENDBRANCH   9  10
ENDBRANCH   1   9
TORSDOF 10
ENDMDL
MODEL 3
REMARK VINA RESULT:      -4.8      2.956      3.454
REMARK  Name = 
REMARK  11 active torsions:
REMARK  status: ('A' for Active; 'I' for Inactive)
REMARK    1  A    between atoms: C_1  and  C_2
REMARK    2  A    between atoms: C_2  and  C_3
REMARK    3  A    between atoms: C_3  and  C_4
REMARK    4  A    between atoms: C_4  and  C_5
REMARK    5  A    between atoms: C_5  and  C_6
REMARK    6  A    between atoms: C_6  and  C_7
REMARK    7  A    between atoms: C_7  and  C_8
REMARK    8  A    between atoms: C_8  and  S_9
REMARK    9  A    between atoms: S_9  and  C_10
REMARK   10  A    between atoms: C_10  and  C_11
REMARK   11  A    between atoms: C_11  and  C_13
REMARK                            x       y       z     vdW  Elec       q    Type
REMARK                         _______ _______ _______ _____ _____    ______ ____
ROOT
ATOM      1  C   UNL     1       8.312  -2.486  22.614  0.00  0.00    +0.069 C 
ENDROOT
BRANCH   1   2
ATOM      2  C   UNL     1       8.313  -1.360  23.646  0.00  0.00    +0.011 C 
BRANCH   2   3
ATOM      3  C   UNL     1       9.608  -1.323  24.463  0.00  0.00    +0.001 C 
BRANCH   3   4
ATOM      4  C   UNL     1       9.828   0.075  25.046  0.00  0.00    +0.000 C 
BRANCH   4   5
ATOM      5  C   UNL     1      10.916   0.847  24.301  0.00  0.00    -0.000 C 
BRANCH   5   6
ATOM      6  C   UNL     1      10.319   2.038  23.547  0.00  0.00    -0.000 C 
BRANCH   6   8
ATOM      7  C   UNL     1       8.573   1.784  21.749  0.00  0.00    +0.004 C 
ATOM      8  C   UNL     1      10.055   1.696  22.081  0.00  0.00    -0.003 C 
ENDBRANCH   6   8
ENDBRANCH   5   6
ENDBRANCH   4   5
ENDBRANCH   3   4
ENDBRANCH   2   3
ENDBRANCH   1   2
BRANCH   1   9
ATOM      9  S   UNL     1       6.908  -3.603  22.977  0.00  0.00    -0.153 S 
BRANCH   9  10
ATOM     10  C   UNL     1       7.807  -5.108  23.443  0.00  0.00    +0.152 C 
BRANCH  10  11
ATOM     11  C   UNL     1       8.586  -4.910  24.718  0.00  0.00    +0.245 C 
ATOM     12  O   UNL     1       9.823  -4.898  24.698  0.00  0.00    -0.287 OA
BRANCH  11  13
ATOM     13  C   UNL     1       7.775  -4.716  25.985  0.00  0.00    +0.451 C 
ATOM     14  F   UNL     1       7.557  -3.403  26.266  0.00  0.00    -0.163 F 
ATOM     15  F   UNL     1       8.399  -5.247  27.073  0.00  0.00    -0.163 F 
ATOM     16  F   UNL     1       6.549  -5.307  25.938  0.00  0.00    -0.163 F 
ENDBRANCH  11  13
ENDBRANCH  10  11
ENDBRANCH   9  10
ENDBRANCH   1   9
TORSDOF 10
ENDMDL
MODEL 4
REMARK VINA RESULT:      -4.7      1.856      2.848
REMARK  Name = 
REMARK  11 active torsions:
REMARK  status: ('A' for Active; 'I' for Inactive)
REMARK    1  A    between atoms: C_1  and  C_2
REMARK    2  A    between atoms: C_2  and  C_3
REMARK    3  A    between atoms: C_3  and  C_4
REMARK    4  A    between atoms: C_4  and  C_5
REMARK    5  A    between atoms: C_5  and  C_6
REMARK    6  A    between atoms: C_6  and  C_7
REMARK    7  A    between atoms: C_7  and  C_8
REMARK    8  A    between atoms: C_8  and  S_9
REMARK    9  A    between atoms: S_9  and  C_10
REMARK   10  A    between atoms: C_10  and  C_11
REMARK   11  A    between atoms: C_11  and  C_13
REMARK                            x       y       z     vdW  Elec       q    Type
REMARK                         _______ _______ _______ _____ _____    ______ ____
ROOT
ATOM      1  C   UNL     1       8.113  -5.312  25.680  0.00  0.00    +0.069 C 
ENDROOT
BRANCH   1   2
ATOM      2  C   UNL     1       9.265  -4.561  25.014  0.00  0.00    +0.011 C 
BRANCH   2   3
ATOM      3  C   UNL     1       8.980  -3.063  24.878  0.00  0.00    +0.001 C 
BRANCH   3   4
ATOM      4  C   UNL     1       9.836  -2.459  23.762  0.00  0.00    +0.000 C 
BRANCH   4   5
ATOM      5  C   UNL     1       9.377  -1.052  23.378  0.00  0.00    -0.000 C 
BRANCH   5   6
ATOM      6  C   UNL     1       9.771  -0.727  21.935  0.00  0.00    -0.000 C 
BRANCH   6   8
ATOM      7  C   UNL     1      10.090   1.580  22.894  0.00  0.00    +0.004 C 
ATOM      8  C   UNL     1       9.706   0.775  21.662  0.00  0.00    -0.003 C 
ENDBRANCH   6   8
ENDBRANCH   5   6
ENDBRANCH   4   5
ENDBRANCH   3   4
ENDBRANCH   2   3
ENDBRANCH   1   2
BRANCH   1   9
ATOM      9  S   UNL     1       6.559  -4.409  25.340  0.00  0.00    -0.153 S 
BRANCH   9  10
ATOM     10  C   UNL     1       5.723  -5.602  24.260  0.00  0.00    +0.152 C 
BRANCH  10  11
ATOM     11  C   UNL     1       5.603  -5.079  22.852  0.00  0.00    +0.245 C 
ATOM     12  O   UNL     1       4.542  -4.576  22.462  0.00  0.00    -0.287 OA
BRANCH  11  13
ATOM     13  C   UNL     1       6.838  -5.192  21.979  0.00  0.00    +0.451 C 
ATOM     14  F   UNL     1       7.522  -4.019  21.892  0.00  0.00    -0.163 F 
ATOM     15  F   UNL     1       6.526  -5.554  20.703  0.00  0.00    -0.163 F 
ATOM     16  F   UNL     1       7.728  -6.123  22.419  0.00  0.00    -0.163 F 
ENDBRANCH  11  13
ENDBRANCH  10  11
ENDBRANCH   9  10
ENDBRANCH   1   9
TORSDOF 10
ENDMDL
MODEL 5
REMARK VINA RESULT:      -4.7      1.181      2.028
REMARK  Name = 
REMARK  11 active torsions:
REMARK  status: ('A' for Active; 'I' for Inactive)
REMARK    1  A    between atoms: C_1  and  C_2
REMARK    2  A    between atoms: C_2  and  C_3
REMARK    3  A    between atoms: C_3  and  C_4
REMARK    4  A    between atoms: C_4  and  C_5
REMARK    5  A    between atoms: C_5  and  C_6
REMARK    6  A    between atoms: C_6  and  C_7
REMARK    7  A    between atoms: C_7  and  C_8
REMARK    8  A    between atoms: C_8  and  S_9
REMARK    9  A    between atoms: S_9  and  C_10
REMARK   10  A    between atoms: C_10  and  C_11
REMARK   11  A    between atoms: C_11  and  C_13
REMARK                            x       y       z     vdW  Elec       q    Type
REMARK                         _______ _______ _______ _____ _____    ______ ____
ROOT
ATOM      1  C   UNL     1       8.737  -2.940  23.499  0.00  0.00    +0.069 C 
ENDROOT
BRANCH   1   2
ATOM      2  C   UNL     1       9.440  -1.598  23.691  0.00  0.00    +0.011 C 
BRANCH   2   3
ATOM      3  C   UNL     1      10.286  -1.206  22.476  0.00  0.00    +0.001 C 
BRANCH   3   4
ATOM      4  C   UNL     1       9.427  -0.465  21.448  0.00  0.00    +0.000 C 
BRANCH   4   5
ATOM      5  C   UNL     1       8.966   0.900  21.956  0.00  0.00    -0.000 C 
BRANCH   5   6
ATOM      6  C   UNL     1      10.158   1.844  22.137  0.00  0.00    -0.000 C 
BRANCH   6   8
ATOM      7  C   UNL     1       9.318   3.258  24.044  0.00  0.00    +0.004 C 
ATOM      8  C   UNL     1      10.348   2.230  23.603  0.00  0.00    -0.003 C 
ENDBRANCH   6   8
ENDBRANCH   5   6
ENDBRANCH   4   5
ENDBRANCH   3   4
ENDBRANCH   2   3
ENDBRANCH   1   2
BRANCH   1   9
ATOM      9  S   UNL     1       6.938  -2.691  23.722  0.00  0.00    -0.153 S 
BRANCH   9  10
ATOM     10  C   UNL     1       6.386  -4.415  23.834  0.00  0.00    +0.152 C 
BRANCH  10  11
ATOM     11  C   UNL     1       5.682  -4.849  22.575  0.00  0.00    +0.245 C 
ATOM     12  O   UNL     1       4.535  -4.455  22.333  0.00  0.00    -0.287 OA
BRANCH  11  13
ATOM     13  C   UNL     1       6.459  -5.761  21.644  0.00  0.00    +0.451 C 
ATOM     14  F   UNL     1       5.926  -5.804  20.393  0.00  0.00    -0.163 F 
ATOM     15  F   UNL     1       6.487  -7.044  22.097  0.00  0.00    -0.163 F 
ATOM     16  F   UNL     1       7.762  -5.394  21.492  0.00  0.00    -0.163 F 
ENDBRANCH  11  13
ENDBRANCH  10  11
ENDBRANCH   9  10
ENDBRANCH   1   9
TORSDOF 10
ENDMDL
MODEL 6
REMARK VINA RESULT:      -4.6      2.981      3.494
REMARK  Name = 
REMARK  11 active torsions:
REMARK  status: ('A' for Active; 'I' for Inactive)
REMARK    1  A    between atoms: C_1  and  C_2
REMARK    2  A    between atoms: C_2  and  C_3
REMARK    3  A    between atoms: C_3  and  C_4
REMARK    4  A    between atoms: C_4  and  C_5
REMARK    5  A    between atoms: C_5  and  C_6
REMARK    6  A    between atoms: C_6  and  C_7
REMARK    7  A    between atoms: C_7  and  C_8
REMARK    8  A    between atoms: C_8  and  S_9
REMARK    9  A    between atoms: S_9  and  C_10
REMARK   10  A    between atoms: C_10  and  C_11
REMARK   11  A    between atoms: C_11  and  C_13
REMARK                            x       y       z     vdW  Elec       q    Type
REMARK                         _______ _______ _______ _____ _____    ______ ____
ROOT
ATOM      1  C   UNL     1       7.589  -0.362  24.571  0.00  0.00    +0.069 C 
ENDROOT
BRANCH   1   2
ATOM      2  C   UNL     1       8.642   0.531  25.223  0.00  0.00    +0.011 C 
BRANCH   2   3
ATOM      3  C   UNL     1      10.069   0.069  24.913  0.00  0.00    +0.001 C 
BRANCH   3   4
ATOM      4  C   UNL     1      10.883   1.224  24.324  0.00  0.00    +0.000 C 
BRANCH   4   5
ATOM      5  C   UNL     1      10.056   2.090  23.375  0.00  0.00    -0.000 C 
BRANCH   5   6
ATOM      6  C   UNL     1      10.014   1.474  21.974  0.00  0.00    -0.000 C 
BRANCH   6   8
ATOM      7  C   UNL     1       7.730   2.535  22.050  0.00  0.00    +0.004 C 
ATOM      8  C   UNL     1       8.592   1.455  21.414  0.00  0.00    -0.003 C 
ENDBRANCH   6   8
ENDBRANCH   5   6
ENDBRANCH   4   5
ENDBRANCH   3   4
ENDBRANCH   2   3
ENDBRANCH   1   2
BRANCH   1   9
ATOM      9  S   UNL     1       7.351  -1.841  25.621  0.00  0.00    -0.153 S 
BRANCH   9  10
ATOM     10  C   UNL     1       7.770  -3.149  24.435  0.00  0.00    +0.152 C 
BRANCH  10  11
ATOM     11  C   UNL     1       9.167  -3.667  24.658  0.00  0.00    +0.245 C 
ATOM     12  O   UNL     1      10.109  -3.229  23.987  0.00  0.00    -0.287 OA
BRANCH  11  13
ATOM     13  C   UNL     1       9.336  -4.716  25.741  0.00  0.00    +0.451 C 
ATOM     14  F   UNL     1       9.210  -4.198  26.992  0.00  0.00    -0.163 F 
ATOM     15  F   UNL     1      10.562  -5.306  25.687  0.00  0.00    -0.163 F 
ATOM     16  F   UNL     1       8.434  -5.732  25.654  0.00  0.00    -0.163 F 
ENDBRANCH  11  13
ENDBRANCH  10  11
ENDBRANCH   9  10
ENDBRANCH   1   9
TORSDOF 10
ENDMDL
MODEL 7
REMARK VINA RESULT:      -4.6      2.269      2.792
REMARK  Name = 
REMARK  11 active torsions:
REMARK  status: ('A' for Active; 'I' for Inactive)
REMARK    1  A    between atoms: C_1  and  C_2
REMARK    2  A    between atoms: C_2  and  C_3
REMARK    3  A    between atoms: C_3  and  C_4
REMARK    4  A    between atoms: C_4  and  C_5
REMARK    5  A    between atoms: C_5  and  C_6
REMARK    6  A    between atoms: C_6  and  C_7
REMARK    7  A    between atoms: C_7  and  C_8
REMARK    8  A    between atoms: C_8  and  S_9
REMARK    9  A    between atoms: S_9  and  C_10
REMARK   10  A    between atoms: C_10  and  C_11
REMARK   11  A    between atoms: C_11  and  C_13
REMARK                            x       y       z     vdW  Elec       q    Type
REMARK                         _______ _______ _______ _____ _____    ______ ____
ROOT
ATOM      1  C   UNL     1       6.892  -1.760  25.066  0.00  0.00    +0.069 C 
ENDROOT
BRANCH   1   2
ATOM      2  C   UNL     1       7.794  -0.603  24.641  0.00  0.00    +0.011 C 
BRANCH   2   3
ATOM      3  C   UNL     1       9.255  -0.828  25.040  0.00  0.00    +0.001 C 
BRANCH   3   4
ATOM      4  C   UNL     1      10.180  -0.541  23.854  0.00  0.00    +0.000 C 
BRANCH   4   5
ATOM      5  C   UNL     1       9.751  -1.290  22.593  0.00  0.00    -0.000 C 
BRANCH   5   6
ATOM      6  C   UNL     1       9.575  -0.323  21.419  0.00  0.00    -0.000 C 
BRANCH   6   8
ATOM      7  C   UNL     1       8.398   1.885  21.712  0.00  0.00    +0.004 C 
ATOM      8  C   UNL     1       9.710   1.132  21.868  0.00  0.00    -0.003 C 
ENDBRANCH   6   8
ENDBRANCH   5   6
ENDBRANCH   4   5
ENDBRANCH   3   4
ENDBRANCH   2   3
ENDBRANCH   1   2
BRANCH   1   9
ATOM      9  S   UNL     1       7.741  -2.701  26.386  0.00  0.00    -0.153 S 
BRANCH   9  10
ATOM     10  C   UNL     1       7.612  -4.381  25.717  0.00  0.00    +0.152 C 
BRANCH  10  11
ATOM     11  C   UNL     1       8.380  -4.520  24.428  0.00  0.00    +0.245 C 
ATOM     12  O   UNL     1       9.607  -4.368  24.414  0.00  0.00    -0.287 OA
BRANCH  11  13
ATOM     13  C   UNL     1       7.572  -4.865  23.191  0.00  0.00    +0.451 C 
ATOM     14  F   UNL     1       7.965  -6.037  22.623  0.00  0.00    -0.163 F 
ATOM     15  F   UNL     1       7.688  -3.909  22.228  0.00  0.00    -0.163 F 
ATOM     16  F   UNL     1       6.238  -4.985  23.433  0.00  0.00    -0.163 F 
ENDBRANCH  11  13
ENDBRANCH  10  11
ENDBRANCH   9  10
ENDBRANCH   1   9
TORSDOF 10
ENDMDL
MODEL 8
REMARK VINA RESULT:      -4.6      1.168      2.157
REMARK  Name = 
REMARK  11 active torsions:
REMARK  status: ('A' for Active; 'I' for Inactive)
REMARK    1  A    between atoms: C_1  and  C_2
REMARK    2  A    between atoms: C_2  and  C_3
REMARK    3  A    between atoms: C_3  and  C_4
REMARK    4  A    between atoms: C_4  and  C_5
REMARK    5  A    between atoms: C_5  and  C_6
REMARK    6  A    between atoms: C_6  and  C_7
REMARK    7  A    between atoms: C_7  and  C_8
REMARK    8  A    between atoms: C_8  and  S_9
REMARK    9  A    between atoms: S_9  and  C_10
REMARK   10  A    between atoms: C_10  and  C_11
REMARK   11  A    between atoms: C_11  and  C_13
REMARK                            x       y       z     vdW  Elec       q    Type
REMARK                         _______ _______ _______ _____ _____    ______ ____
ROOT
ATOM      1  C   UNL     1       7.447  -1.904  22.996  0.00  0.00    +0.069 C 
ENDROOT
BRANCH   1   2
ATOM      2  C   UNL     1       8.627  -2.770  23.432  0.00  0.00    +0.011 C 
BRANCH   2   3
ATOM      3  C   UNL     1       9.894  -1.945  23.678  0.00  0.00    +0.001 C 
BRANCH   3   4
ATOM      4  C   UNL     1       9.645  -0.907  24.775  0.00  0.00    +0.000 C 
BRANCH   4   5
ATOM      5  C   UNL     1      10.475   0.360  24.571  0.00  0.00    -0.000 C 
BRANCH   5   6
ATOM      6  C   UNL     1       9.571   1.591  24.463  0.00  0.00    -0.000 C 
BRANCH   6   8
ATOM      7  C   UNL     1       9.921   1.491  21.971  0.00  0.00    +0.004 C 
ATOM      8  C   UNL     1       8.908   1.680  23.090  0.00  0.00    -0.003 C 
ENDBRANCH   6   8
ENDBRANCH   5   6
ENDBRANCH   4   5
ENDBRANCH   3   4
ENDBRANCH   2   3
ENDBRANCH   1   2
BRANCH   1   9
ATOM      9  S   UNL     1       5.938  -2.516  23.830  0.00  0.00    -0.153 S 
BRANCH   9  10
ATOM     10  C   UNL     1       6.238  -4.304  23.766  0.00  0.00    +0.152 C 
BRANCH  10  11
ATOM     11  C   UNL     1       5.552  -4.935  22.582  0.00  0.00    +0.245 C 
ATOM     12  O   UNL     1       4.345  -4.747  22.388  0.00  0.00    -0.287 OA
BRANCH  11  13
ATOM     13  C   UNL     1       6.419  -5.775  21.663  0.00  0.00    +0.451 C 
ATOM     14  F   UNL     1       7.656  -5.239  21.482  0.00  0.00    -0.163 F 
ATOM     15  F   UNL     1       5.868  -5.904  20.425  0.00  0.00    -0.163 F 
ATOM     16  F   UNL     1       6.614  -7.044  22.116  0.00  0.00    -0.163 F 
ENDBRANCH  11  13
ENDBRANCH  10  11
ENDBRANCH   9  10
ENDBRANCH   1   9
TORSDOF 10
ENDMDL
MODEL 9
REMARK VINA RESULT:      -4.4      2.136      2.742
REMARK  Name = 
REMARK  11 active torsions:
REMARK  status: ('A' for Active; 'I' for Inactive)
REMARK    1  A    between atoms: C_1  and  C_2
REMARK    2  A    between atoms: C_2  and  C_3
REMARK    3  A    between atoms: C_3  and  C_4
REMARK    4  A    between atoms: C_4  and  C_5
REMARK    5  A    between atoms: C_5  and  C_6
REMARK    6  A    between atoms: C_6  and  C_7
REMARK    7  A    between atoms: C_7  and  C_8
REMARK    8  A    between atoms: C_8  and  S_9
REMARK    9  A    between atoms: S_9  and  C_10
REMARK   10  A    between atoms: C_10  and  C_11
REMARK   11  A    between atoms: C_11  and  C_13
REMARK                            x       y       z     vdW  Elec       q    Type
REMARK                         _______ _______ _______ _____ _____    ______ ____
ROOT
ATOM      1  C   UNL     1       8.458  -3.252  25.296  0.00  0.00    +0.069 C 
ENDROOT
BRANCH   1   2
ATOM      2  C   UNL     1       9.602  -3.090  24.296  0.00  0.00    +0.011 C 
BRANCH   2   3
ATOM      3  C   UNL     1       9.607  -1.708  23.638  0.00  0.00    +0.001 C 
BRANCH   3   4
ATOM      4  C   UNL     1       8.986  -1.783  22.241  0.00  0.00    +0.000 C 
BRANCH   4   5
ATOM      5  C   UNL     1       9.304  -0.547  21.399  0.00  0.00    -0.000 C 
BRANCH   5   6
ATOM      6  C   UNL     1      10.069   0.490  22.225  0.00  0.00    -0.000 C 
BRANCH   6   8
ATOM      7  C   UNL     1       8.042   1.845  21.592  0.00  0.00    +0.004 C 
ATOM      8  C   UNL     1       9.499   1.894  22.026  0.00  0.00    -0.003 C 
ENDBRANCH   6   8
ENDBRANCH   5   6
ENDBRANCH   4   5
ENDBRANCH   3   4
ENDBRANCH   2   3
ENDBRANCH   1   2
BRANCH   1   9
ATOM      9  S   UNL     1       8.054  -5.031  25.432  0.00  0.00    -0.153 S 
BRANCH   9  10
ATOM     10  C   UNL     1       6.451  -5.062  24.584  0.00  0.00    +0.152 C 
BRANCH  10  11
ATOM     11  C   UNL     1       6.578  -4.613  23.151  0.00  0.00    +0.245 C 
ATOM     12  O   UNL     1       7.426  -5.125  22.410  0.00  0.00    -0.287 OA
BRANCH  11  13
ATOM     13  C   UNL     1       5.614  -3.537  22.688  0.00  0.00    +0.451 C 
ATOM     14  F   UNL     1       4.313  -3.906  22.837  0.00  0.00    -0.163 F 
ATOM     15  F   UNL     1       5.784  -3.237  21.371  0.00  0.00    -0.163 F 
ATOM     16  F   UNL     1       5.758  -2.360  23.357  0.00  0.00    -0.163 F 
ENDBRANCH  11  13
ENDBRANCH  10  11
ENDBRANCH   9  10
ENDBRANCH   1   9
TORSDOF 10
ENDMDL
