MODEL 1
REMARK VINA RESULT:      -2.7      0.000      0.000
REMARK  Name = 
REMARK  0 active torsions:
REMARK  status: ('A' for Active; 'I' for Inactive)
REMARK                            x       y       z     vdW  Elec       q    Type
REMARK                         _______ _______ _______ _____ _____    ______ ____
ROOT
ATOM      1  N   UNL     1      10.280  -5.477  25.646  0.00  0.00    -0.314 N 
ATOM      2  H   UNL     1      10.831  -5.233  24.835  0.00  0.00    +0.146 HD
ATOM      3  H   UNL     1      10.745  -5.765  26.490  0.00  0.00    +0.146 HD
ATOM      4  C   UNL     1       8.940  -5.396  25.533  0.00  0.00    +0.294 C 
ATOM      5  O   UNL     1       8.379  -5.046  24.507  0.00  0.00    -0.253 OA
ATOM      6  N   UNL     1       8.276  -5.736  26.654  0.00  0.00    -0.314 N 
ATOM      7  H   UNL     1       7.267  -5.694  26.628  0.00  0.00    +0.146 HD
ATOM      8  H   UNL     1       8.736  -6.025  27.501  0.00  0.00    +0.146 HD
ENDROOT
TORSDOF 0
ENDMDL
MODEL 2
REMARK VINA RESULT:      -2.7      0.021      1.597
REMARK  Name = 
REMARK  0 active torsions:
REMARK  status: ('A' for Active; 'I' for Inactive)
REMARK                            x       y       z     vdW  Elec       q    Type
REMARK                         _______ _______ _______ _____ _____    ______ ____
ROOT
ATOM      1  N   UNL     1       8.261  -5.744  26.630  0.00  0.00    -0.314 N 
ATOM      2  H   UNL     1       7.252  -5.701  26.596  0.00  0.00    +0.146 HD
ATOM      3  H   UNL     1       8.715  -6.039  27.477  0.00  0.00    +0.146 HD
ATOM      4  C   UNL     1       8.934  -5.394  25.516  0.00  0.00    +0.294 C 
ATOM      5  O   UNL     1       8.380  -5.035  24.490  0.00  0.00    -0.253 OA
ATOM      6  N   UNL     1      10.272  -5.476  25.638  0.00  0.00    -0.314 N 
ATOM      7  H   UNL     1      10.829  -5.226  24.833  0.00  0.00    +0.146 HD
ATOM      8  H   UNL     1      10.731  -5.771  26.483  0.00  0.00    +0.146 HD
ENDROOT
TORSDOF 0
ENDMDL
MODEL 3
REMARK VINA RESULT:      -2.7     11.616     11.855
REMARK  Name = 
REMARK  0 active torsions:
REMARK  status: ('A' for Active; 'I' for Inactive)
REMARK                            x       y       z     vdW  Elec       q    Type
REMARK                         _______ _______ _______ _____ _____    ______ ____
ROOT
ATOM      1  N   UNL     1      12.769   6.174  24.032  0.00  0.00    -0.314 N 
ATOM      2  H   UNL     1      13.474   6.884  24.172  0.00  0.00    +0.146 HD
ATOM      3  H   UNL     1      12.027   6.075  24.704  0.00  0.00    +0.146 HD
ATOM      4  C   UNL     1      12.878   5.400  22.935  0.00  0.00    +0.294 C 
ATOM      5  O   UNL     1      13.779   5.523  22.121  0.00  0.00    -0.253 OA
ATOM      6  N   UNL     1      11.903   4.479  22.817  0.00  0.00    -0.314 N 
ATOM      7  H   UNL     1      11.933   3.870  22.011  0.00  0.00    +0.146 HD
ATOM      8  H   UNL     1      11.158   4.377  23.486  0.00  0.00    +0.146 HD
ENDROOT
TORSDOF 0
ENDMDL
MODEL 4
REMARK VINA RESULT:      -2.5      7.195      7.447
REMARK  Name = 
REMARK  0 active torsions:
REMARK  status: ('A' for Active; 'I' for Inactive)
REMARK                            x       y       z     vdW  Elec       q    Type
REMARK                         _______ _______ _______ _____ _____    ______ ____
ROOT
ATOM      1  N   UNL     1       9.519  -0.349  21.190  0.00  0.00    -0.314 N 
ATOM      2  H   UNL     1       9.694  -1.281  21.540  0.00  0.00    +0.146 HD
ATOM      3  H   UNL     1       9.093  -0.233  20.287  0.00  0.00    +0.146 HD
ATOM      4  C   UNL     1       9.878   0.686  21.974  0.00  0.00    +0.294 C 
ATOM      5  O   UNL     1      10.396   0.541  23.070  0.00  0.00    -0.253 OA
ATOM      6  N   UNL     1       9.614   1.893  21.440  0.00  0.00    -0.314 N 
ATOM      7  H   UNL     1       9.862   2.707  21.985  0.00  0.00    +0.146 HD
ATOM      8  H   UNL     1       9.187   2.014  20.537  0.00  0.00    +0.146 HD
ENDROOT
TORSDOF 0
ENDMDL
MODEL 5
REMARK VINA RESULT:      -2.5      7.186      7.421
REMARK  Name = 
REMARK  0 active torsions:
REMARK  status: ('A' for Active; 'I' for Inactive)
REMARK                            x       y       z     vdW  Elec       q    Type
REMARK                         _______ _______ _______ _____ _____    ______ ____
ROOT
ATOM      1  N   UNL     1       9.699   1.910  21.476  0.00  0.00    -0.314 N 
ATOM      2  H   UNL     1       9.965   2.706  22.038  0.00  0.00    +0.146 HD
ATOM      3  H   UNL     1       9.297   2.060  20.567  0.00  0.00    +0.146 HD
ATOM      4  C   UNL     1       9.906   0.686  21.997  0.00  0.00    +0.294 C 
ATOM      5  O   UNL     1      10.395   0.507  23.102  0.00  0.00    -0.253 OA
ATOM      6  N   UNL     1       9.527  -0.324  21.191  0.00  0.00    -0.314 N 
ATOM      7  H   UNL     1       9.660  -1.266  21.530  0.00  0.00    +0.146 HD
ATOM      8  H   UNL     1       9.124  -0.179  20.280  0.00  0.00    +0.146 HD
ENDROOT
TORSDOF 0
ENDMDL
MODEL 6
REMARK VINA RESULT:      -2.5     11.838     11.943
REMARK  Name = 
REMARK  0 active torsions:
REMARK  status: ('A' for Active; 'I' for Inactive)
REMARK                            x       y       z     vdW  Elec       q    Type
REMARK                         _______ _______ _______ _____ _____    ______ ____
ROOT
ATOM      1  N   UNL     1      11.439   5.469  22.961  0.00  0.00    -0.314 N 
ATOM      2  H   UNL     1      10.584   5.848  23.344  0.00  0.00    +0.146 HD
ATOM      3  H   UNL     1      11.414   4.991  22.077  0.00  0.00    +0.146 HD
ATOM      4  C   UNL     1      12.568   5.635  23.676  0.00  0.00    +0.294 C 
ATOM      5  O   UNL     1      12.595   6.217  24.750  0.00  0.00    -0.253 OA
ATOM      6  N   UNL     1      13.663   5.104  23.102  0.00  0.00    -0.314 N 
ATOM      7  H   UNL     1      14.540   5.200  23.594  0.00  0.00    +0.146 HD
ATOM      8  H   UNL     1      13.643   4.626  22.217  0.00  0.00    +0.146 HD
ENDROOT
TORSDOF 0
ENDMDL
MODEL 7
REMARK VINA RESULT:      -2.5      8.533      8.800
REMARK  Name = 
REMARK  0 active torsions:
REMARK  status: ('A' for Active; 'I' for Inactive)
REMARK                            x       y       z     vdW  Elec       q    Type
REMARK                         _______ _______ _______ _____ _____    ______ ____
ROOT
ATOM      1  N   UNL     1      10.113   2.205  21.795  0.00  0.00    -0.314 N 
ATOM      2  H   UNL     1       9.621   1.327  21.706  0.00  0.00    +0.146 HD
ATOM      3  H   UNL     1      10.306   2.749  20.972  0.00  0.00    +0.146 HD
ATOM      4  C   UNL     1      10.478   2.587  23.034  0.00  0.00    +0.294 C 
ATOM      5  O   UNL     1      10.241   1.925  24.032  0.00  0.00    -0.253 OA
ATOM      6  N   UNL     1      11.128   3.766  23.073  0.00  0.00    -0.314 N 
ATOM      7  H   UNL     1      11.426   4.103  23.978  0.00  0.00    +0.146 HD
ATOM      8  H   UNL     1      11.323   4.314  22.253  0.00  0.00    +0.146 HD
ENDROOT
TORSDOF 0
ENDMDL
MODEL 8
REMARK VINA RESULT:      -2.4      7.203      7.474
REMARK  Name = 
REMARK  0 active torsions:
REMARK  status: ('A' for Active; 'I' for Inactive)
REMARK                            x       y       z     vdW  Elec       q    Type
REMARK                         _______ _______ _______ _____ _____    ______ ____
ROOT
ATOM      1  N   UNL     1      10.347   0.589  23.206  0.00  0.00    -0.314 N 
ATOM      2  H   UNL     1      10.304  -0.372  23.514  0.00  0.00    +0.146 HD
ATOM      3  H   UNL     1      10.733   1.287  23.818  0.00  0.00    +0.146 HD
ATOM      4  C   UNL     1       9.876   0.867  21.975  0.00  0.00    +0.294 C 
ATOM      5  O   UNL     1       9.408   0.017  21.234  0.00  0.00    -0.253 OA
ATOM      6  N   UNL     1       9.967   2.167  21.635  0.00  0.00    -0.314 N 
ATOM      7  H   UNL     1       9.629   2.434  20.722  0.00  0.00    +0.146 HD
ATOM      8  H   UNL     1      10.353   2.869  22.244  0.00  0.00    +0.146 HD
ENDROOT
TORSDOF 0
ENDMDL
MODEL 9
REMARK VINA RESULT:      -2.4      4.756      4.858
REMARK  Name = 
REMARK  0 active torsions:
REMARK  status: ('A' for Active; 'I' for Inactive)
REMARK                            x       y       z     vdW  Elec       q    Type
REMARK                         _______ _______ _______ _____ _____    ______ ____
ROOT
ATOM      1  N   UNL     1       5.291  -7.465  28.433  0.00  0.00    -0.314 N 
ATOM      2  H   UNL     1       5.270  -7.497  27.423  0.00  0.00    +0.146 HD
ATOM      3  H   UNL     1       4.616  -7.996  28.957  0.00  0.00    +0.146 HD
ATOM      4  C   UNL     1       6.238  -6.701  29.011  0.00  0.00    +0.294 C 
ATOM      5  O   UNL     1       7.055  -6.059  28.372  0.00  0.00    -0.253 OA
ATOM      6  N   UNL     1       6.202  -6.710  30.357  0.00  0.00    -0.314 N 
ATOM      7  H   UNL     1       6.890  -6.155  30.845  0.00  0.00    +0.146 HD
ATOM      8  H   UNL     1       5.529  -7.240  30.886  0.00  0.00    +0.146 HD
ENDROOT
TORSDOF 0
ENDMDL
