MODEL 1
REMARK VINA RESULT:      -4.8      0.000      0.000
REMARK  Name = 
REMARK  4 active torsions:
REMARK  status: ('A' for Active; 'I' for Inactive)
REMARK    1  A    between atoms: N_1  and  C_2
REMARK    2  A    between atoms: C_2  and  C_3
REMARK    3  A    between atoms: C_6  and  S_9
REMARK    4  A    between atoms: S_9  and  N_10
REMARK                            x       y       z     vdW  Elec       q    Type
REMARK                         _______ _______ _______ _____ _____    ______ ____
ROOT
ATOM      1  C   UNL     1      10.020   0.513  23.331  0.00  0.00    -0.034 A 
ATOM      2  C   UNL     1       9.681   0.208  24.658  0.00  0.00    +0.007 A 
ATOM      3  C   UNL     1       9.381  -1.104  25.028  0.00  0.00    +0.029 A 
ATOM      4  C   UNL     1       9.433  -2.119  24.070  0.00  0.00    +0.105 A 
ATOM      5  C   UNL     1       9.783  -1.836  22.748  0.00  0.00    +0.029 A 
ATOM      6  C   UNL     1      10.084  -0.525  22.386  0.00  0.00    +0.007 A 
ENDROOT
BRANCH   4   7
ATOM      7  S   UNL     1       8.981  -3.768  24.515  0.00  0.00    +0.056 S 
ATOM      8  O   UNL     1      10.177  -4.559  24.696  0.00  0.00    -0.153 OA
ATOM      9  O   UNL     1       7.879  -4.206  23.690  0.00  0.00    -0.153 OA
BRANCH   7  10
ATOM     10  N   UNL     1       8.345  -3.540  26.052  0.00  0.00    -0.204 NA
ATOM     11  H   UNL     1       8.031  -4.432  26.433  0.00  0.00    +0.144 HD
ATOM     12  H   UNL     1       7.622  -2.822  26.022  0.00  0.00    +0.144 HD
ENDBRANCH   7  10
ENDBRANCH   4   7
BRANCH   1  13
ATOM     13  C   UNL     1      10.272   1.938  22.907  0.00  0.00    +0.113 C 
BRANCH  13  14
ATOM     14  N   UNL     1       9.781   2.167  21.554  0.00  0.00    -0.326 NA
ATOM     15  H   UNL     1      10.528   2.582  20.998  0.00  0.00    +0.119 HD
ATOM     16  H   UNL     1       9.557   1.274  21.120  0.00  0.00    +0.119 HD
ENDBRANCH  13  14
ENDBRANCH   1  13
TORSDOF 4
ENDMDL
MODEL 2
REMARK VINA RESULT:      -4.8      4.961      6.500
REMARK  Name = 
REMARK  4 active torsions:
REMARK  status: ('A' for Active; 'I' for Inactive)
REMARK    1  A    between atoms: N_1  and  C_2
REMARK    2  A    between atoms: C_2  and  C_3
REMARK    3  A    between atoms: C_6  and  S_9
REMARK    4  A    between atoms: S_9  and  N_10
REMARK                            x       y       z     vdW  Elec       q    Type
REMARK                         _______ _______ _______ _____ _____    ______ ____
ROOT
ATOM      1  C   UNL     1       5.166  -5.918  23.691  0.00  0.00    -0.034 A 
ATOM      2  C   UNL     1       6.197  -5.614  22.790  0.00  0.00    +0.007 A 
ATOM      3  C   UNL     1       7.429  -5.150  23.254  0.00  0.00    +0.029 A 
ATOM      4  C   UNL     1       7.636  -5.000  24.627  0.00  0.00    +0.105 A 
ATOM      5  C   UNL     1       6.625  -5.312  25.540  0.00  0.00    +0.029 A 
ATOM      6  C   UNL     1       5.398  -5.777  25.069  0.00  0.00    +0.007 A 
ENDROOT
BRANCH   4   7
ATOM      7  S   UNL     1       9.165  -4.342  25.218  0.00  0.00    +0.056 S 
ATOM      8  O   UNL     1       8.981  -3.833  26.558  0.00  0.00    -0.153 OA
ATOM      9  O   UNL     1       9.793  -3.568  24.173  0.00  0.00    -0.153 OA
BRANCH   7  10
ATOM     10  N   UNL     1      10.090  -5.735  25.380  0.00  0.00    -0.204 NA
ATOM     11  H   UNL     1       9.913  -6.361  24.595  0.00  0.00    +0.144 HD
ATOM     12  H   UNL     1       9.924  -6.154  26.295  0.00  0.00    +0.144 HD
ENDBRANCH   7  10
ENDBRANCH   4   7
BRANCH   1  13
ATOM     13  C   UNL     1       3.808  -6.348  23.194  0.00  0.00    +0.113 C 
BRANCH  13  14
ATOM     14  N   UNL     1       3.424  -7.623  23.786  0.00  0.00    -0.326 NA
ATOM     15  H   UNL     1       4.265  -8.171  23.963  0.00  0.00    +0.119 HD
ATOM     16  H   UNL     1       2.988  -7.458  24.691  0.00  0.00    +0.119 HD
ENDBRANCH  13  14
ENDBRANCH   1  13
TORSDOF 4
ENDMDL
MODEL 3
REMARK VINA RESULT:      -4.8      1.657      1.922
REMARK  Name = 
REMARK  4 active torsions:
REMARK  status: ('A' for Active; 'I' for Inactive)
REMARK    1  A    between atoms: N_1  and  C_2
REMARK    2  A    between atoms: C_2  and  C_3
REMARK    3  A    between atoms: C_6  and  S_9
REMARK    4  A    between atoms: S_9  and  N_10
REMARK                            x       y       z     vdW  Elec       q    Type
REMARK                         _______ _______ _______ _____ _____    ______ ____
ROOT
ATOM      1  C   UNL     1      10.532   2.046  23.288  0.00  0.00    -0.034 A 
ATOM      2  C   UNL     1      10.664   1.282  24.458  0.00  0.00    +0.007 A 
ATOM      3  C   UNL     1      10.246  -0.048  24.485  0.00  0.00    +0.029 A 
ATOM      4  C   UNL     1       9.703  -0.624  23.333  0.00  0.00    +0.105 A 
ATOM      5  C   UNL     1       9.577   0.118  22.156  0.00  0.00    +0.029 A 
ATOM      6  C   UNL     1       9.999   1.445  22.136  0.00  0.00    +0.007 A 
ENDROOT
BRANCH   4   7
ATOM      7  S   UNL     1       9.101  -2.284  23.382  0.00  0.00    +0.056 S 
ATOM      8  O   UNL     1      10.144  -3.156  23.872  0.00  0.00    -0.153 OA
ATOM      9  O   UNL     1       8.359  -2.564  22.175  0.00  0.00    -0.153 OA
BRANCH   7  10
ATOM     10  N   UNL     1       7.963  -2.193  24.613  0.00  0.00    -0.204 NA
ATOM     11  H   UNL     1       7.121  -2.703  24.345  0.00  0.00    +0.144 HD
ATOM     12  H   UNL     1       7.799  -1.217  24.859  0.00  0.00    +0.144 HD
ENDBRANCH   7  10
ENDBRANCH   4   7
BRANCH   1  13
ATOM     13  C   UNL     1      10.912   3.506  23.273  0.00  0.00    +0.113 C 
BRANCH  13  14
ATOM     14  N   UNL     1       9.724   4.348  23.344  0.00  0.00    -0.326 NA
ATOM     15  H   UNL     1       9.930   5.245  22.905  0.00  0.00    +0.119 HD
ATOM     16  H   UNL     1       8.976   3.923  22.800  0.00  0.00    +0.119 HD
ENDBRANCH  13  14
ENDBRANCH   1  13
TORSDOF 4
ENDMDL
MODEL 4
REMARK VINA RESULT:      -4.8      1.941      2.728
REMARK  Name = 
REMARK  4 active torsions:
REMARK  status: ('A' for Active; 'I' for Inactive)
REMARK    1  A    between atoms: N_1  and  C_2
REMARK    2  A    between atoms: C_2  and  C_3
REMARK    3  A    between atoms: C_6  and  S_9
REMARK    4  A    between atoms: S_9  and  N_10
REMARK                            x       y       z     vdW  Elec       q    Type
REMARK                         _______ _______ _______ _____ _____    ______ ____
ROOT
ATOM      1  C   UNL     1       9.640  -0.497  24.842  0.00  0.00    -0.034 A 
ATOM      2  C   UNL     1       9.942  -1.509  23.918  0.00  0.00    +0.007 A 
ATOM      3  C   UNL     1       9.561  -2.829  24.164  0.00  0.00    +0.029 A 
ATOM      4  C   UNL     1       8.862  -3.138  25.334  0.00  0.00    +0.105 A 
ATOM      5  C   UNL     1       8.540  -2.141  26.258  0.00  0.00    +0.029 A 
ATOM      6  C   UNL     1       8.922  -0.825  26.004  0.00  0.00    +0.007 A 
ENDROOT
BRANCH   4   7
ATOM      7  S   UNL     1       8.443  -4.817  25.688  0.00  0.00    +0.056 S 
ATOM      8  O   UNL     1       7.461  -5.277  24.732  0.00  0.00    -0.153 OA
ATOM      9  O   UNL     1       8.275  -4.983  27.113  0.00  0.00    -0.153 OA
BRANCH   7  10
ATOM     10  N   UNL     1       9.871  -5.610  25.296  0.00  0.00    -0.204 NA
ATOM     11  H   UNL     1       9.756  -6.115  24.418  0.00  0.00    +0.144 HD
ATOM     12  H   UNL     1      10.166  -6.194  26.078  0.00  0.00    +0.144 HD
ENDBRANCH   7  10
ENDBRANCH   4   7
BRANCH   1  13
ATOM     13  C   UNL     1      10.114   0.917  24.619  0.00  0.00    +0.113 C 
BRANCH  13  14
ATOM     14  N   UNL     1       9.101   1.873  25.050  0.00  0.00    -0.326 NA
ATOM     15  H   UNL     1       9.549   2.772  25.223  0.00  0.00    +0.119 HD
ATOM     16  H   UNL     1       8.434   2.022  24.296  0.00  0.00    +0.119 HD
ENDBRANCH  13  14
ENDBRANCH   1  13
TORSDOF 4
ENDMDL
MODEL 5
REMARK VINA RESULT:      -4.7      1.054      1.890
REMARK  Name = 
REMARK  4 active torsions:
REMARK  status: ('A' for Active; 'I' for Inactive)
REMARK    1  A    between atoms: N_1  and  C_2
REMARK    2  A    between atoms: C_2  and  C_3
REMARK    3  A    between atoms: C_6  and  S_9
REMARK    4  A    between atoms: S_9  and  N_10
REMARK                            x       y       z     vdW  Elec       q    Type
REMARK                         _______ _______ _______ _____ _____    ______ ____
ROOT
ATOM      1  C   UNL     1       9.901   0.362  23.374  0.00  0.00    -0.034 A 
ATOM      2  C   UNL     1      10.109  -0.749  22.542  0.00  0.00    +0.007 A 
ATOM      3  C   UNL     1       9.837  -2.038  23.001  0.00  0.00    +0.029 A 
ATOM      4  C   UNL     1       9.344  -2.219  24.295  0.00  0.00    +0.105 A 
ATOM      5  C   UNL     1       9.118  -1.124  25.133  0.00  0.00    +0.029 A 
ATOM      6  C   UNL     1       9.389   0.161  24.666  0.00  0.00    +0.007 A 
ENDROOT
BRANCH   4   7
ATOM      7  S   UNL     1       9.069  -3.852  24.910  0.00  0.00    +0.056 S 
ATOM      8  O   UNL     1       8.381  -3.777  26.179  0.00  0.00    -0.153 OA
ATOM      9  O   UNL     1      10.260  -4.647  24.719  0.00  0.00    -0.153 OA
BRANCH   7  10
ATOM     10  N   UNL     1       7.942  -4.440  23.812  0.00  0.00    -0.204 NA
ATOM     11  H   UNL     1       7.106  -3.856  23.828  0.00  0.00    +0.144 HD
ATOM     12  H   UNL     1       7.765  -5.427  23.995  0.00  0.00    +0.144 HD
ENDBRANCH   7  10
ENDBRANCH   4   7
BRANCH   1  13
ATOM     13  C   UNL     1      10.263   1.751  22.911  0.00  0.00    +0.113 C 
BRANCH  13  14
ATOM     14  N   UNL     1       9.780   1.984  21.556  0.00  0.00    -0.326 NA
ATOM     15  H   UNL     1      10.367   2.690  21.114  0.00  0.00    +0.119 HD
ATOM     16  H   UNL     1       9.886   1.133  21.008  0.00  0.00    +0.119 HD
ENDBRANCH  13  14
ENDBRANCH   1  13
TORSDOF 4
ENDMDL
MODEL 6
REMARK VINA RESULT:      -4.5      3.167      5.385
REMARK  Name = 
REMARK  4 active torsions:
REMARK  status: ('A' for Active; 'I' for Inactive)
REMARK    1  A    between atoms: N_1  and  C_2
REMARK    2  A    between atoms: C_2  and  C_3
REMARK    3  A    between atoms: C_6  and  S_9
REMARK    4  A    between atoms: S_9  and  N_10
REMARK                            x       y       z     vdW  Elec       q    Type
REMARK                         _______ _______ _______ _____ _____    ______ ____
ROOT
ATOM      1  C   UNL     1       7.725  -4.221  25.457  0.00  0.00    -0.034 A 
ATOM      2  C   UNL     1       7.827  -4.320  24.061  0.00  0.00    +0.007 A 
ATOM      3  C   UNL     1       8.374  -3.275  23.315  0.00  0.00    +0.029 A 
ATOM      4  C   UNL     1       8.833  -2.129  23.969  0.00  0.00    +0.105 A 
ATOM      5  C   UNL     1       8.753  -2.019  25.359  0.00  0.00    +0.029 A 
ATOM      6  C   UNL     1       8.208  -3.067  26.097  0.00  0.00    +0.007 A 
ENDROOT
BRANCH   4   7
ATOM      7  S   UNL     1       9.457  -0.772  23.026  0.00  0.00    +0.056 S 
ATOM      8  O   UNL     1      10.549  -0.153  23.742  0.00  0.00    -0.153 OA
ATOM      9  O   UNL     1       8.354  -0.011  22.485  0.00  0.00    -0.153 OA
BRANCH   7  10
ATOM     10  N   UNL     1      10.156  -1.563  21.719  0.00  0.00    -0.204 NA
ATOM     11  H   UNL     1      10.147  -2.570  21.879  0.00  0.00    +0.144 HD
ATOM     12  H   UNL     1      11.083  -1.177  21.539  0.00  0.00    +0.144 HD
ENDBRANCH   7  10
ENDBRANCH   4   7
BRANCH   1  13
ATOM     13  C   UNL     1       7.067  -5.313  26.262  0.00  0.00    +0.113 C 
BRANCH  13  14
ATOM     14  N   UNL     1       7.936  -5.746  27.349  0.00  0.00    -0.326 NA
ATOM     15  H   UNL     1       7.778  -5.144  28.157  0.00  0.00    +0.119 HD
ATOM     16  H   UNL     1       7.678  -6.688  27.634  0.00  0.00    +0.119 HD
ENDBRANCH  13  14
ENDBRANCH   1  13
TORSDOF 4
ENDMDL
MODEL 7
REMARK VINA RESULT:      -4.5      5.385      7.444
REMARK  Name = 
REMARK  4 active torsions:
REMARK  status: ('A' for Active; 'I' for Inactive)
REMARK    1  A    between atoms: N_1  and  C_2
REMARK    2  A    between atoms: C_2  and  C_3
REMARK    3  A    between atoms: C_6  and  S_9
REMARK    4  A    between atoms: S_9  and  N_10
REMARK                            x       y       z     vdW  Elec       q    Type
REMARK                         _______ _______ _______ _____ _____    ______ ____
ROOT
ATOM      1  C   UNL     1       5.075  -6.364  26.294  0.00  0.00    -0.034 A 
ATOM      2  C   UNL     1       4.471  -6.845  25.122  0.00  0.00    +0.007 A 
ATOM      3  C   UNL     1       4.913  -6.417  23.870  0.00  0.00    +0.029 A 
ATOM      4  C   UNL     1       5.974  -5.512  23.787  0.00  0.00    +0.105 A 
ATOM      5  C   UNL     1       6.597  -5.033  24.941  0.00  0.00    +0.029 A 
ATOM      6  C   UNL     1       6.151  -5.467  26.189  0.00  0.00    +0.007 A 
ENDROOT
BRANCH   4   7
ATOM      7  S   UNL     1       6.490  -4.908  22.209  0.00  0.00    +0.056 S 
ATOM      8  O   UNL     1       5.403  -4.178  21.597  0.00  0.00    -0.153 OA
ATOM      9  O   UNL     1       7.221  -5.941  21.511  0.00  0.00    -0.153 OA
BRANCH   7  10
ATOM     10  N   UNL     1       7.628  -3.754  22.646  0.00  0.00    -0.204 NA
ATOM     11  H   UNL     1       8.550  -4.184  22.714  0.00  0.00    +0.144 HD
ATOM     12  H   UNL     1       7.327  -3.278  23.497  0.00  0.00    +0.144 HD
ENDBRANCH   7  10
ENDBRANCH   4   7
BRANCH   1  13
ATOM     13  C   UNL     1       4.553  -6.763  27.651  0.00  0.00    +0.113 C 
BRANCH  13  14
ATOM     14  N   UNL     1       5.566  -7.502  28.394  0.00  0.00    -0.326 NA
ATOM     15  H   UNL     1       5.197  -7.728  29.318  0.00  0.00    +0.119 HD
ATOM     16  H   UNL     1       5.747  -8.389  27.929  0.00  0.00    +0.119 HD
ENDBRANCH  13  14
ENDBRANCH   1  13
TORSDOF 4
ENDMDL
MODEL 8
REMARK VINA RESULT:      -4.5      5.052      6.214
REMARK  Name = 
REMARK  4 active torsions:
REMARK  status: ('A' for Active; 'I' for Inactive)
REMARK    1  A    between atoms: N_1  and  C_2
REMARK    2  A    between atoms: C_2  and  C_3
REMARK    3  A    between atoms: C_6  and  S_9
REMARK    4  A    between atoms: S_9  and  N_10
REMARK                            x       y       z     vdW  Elec       q    Type
REMARK                         _______ _______ _______ _____ _____    ______ ____
ROOT
ATOM      1  C   UNL     1       9.729   0.522  22.897  0.00  0.00    -0.034 A 
ATOM      2  C   UNL     1       8.935   1.062  21.874  0.00  0.00    +0.007 A 
ATOM      3  C   UNL     1       8.419   2.354  21.986  0.00  0.00    +0.029 A 
ATOM      4  C   UNL     1       8.709   3.116  23.120  0.00  0.00    +0.105 A 
ATOM      5  C   UNL     1       9.510   2.600  24.141  0.00  0.00    +0.029 A 
ATOM      6  C   UNL     1      10.024   1.310  24.022  0.00  0.00    +0.007 A 
ENDROOT
BRANCH   4   7
ATOM      7  S   UNL     1       7.998   4.723  23.302  0.00  0.00    +0.056 S 
ATOM      8  O   UNL     1       9.052   5.692  23.499  0.00  0.00    -0.153 OA
ATOM      9  O   UNL     1       6.844   4.645  24.167  0.00  0.00    -0.153 OA
BRANCH   7  10
ATOM     10  N   UNL     1       7.400   5.003  21.758  0.00  0.00    -0.204 NA
ATOM     11  H   UNL     1       7.442   6.000  21.546  0.00  0.00    +0.144 HD
ATOM     12  H   UNL     1       6.468   4.598  21.671  0.00  0.00    +0.144 HD
ENDBRANCH   7  10
ENDBRANCH   4   7
BRANCH   1  13
ATOM     13  C   UNL     1      10.228  -0.899  22.818  0.00  0.00    +0.113 C 
BRANCH  13  14
ATOM     14  N   UNL     1      10.076  -1.423  21.466  0.00  0.00    -0.326 NA
ATOM     15  H   UNL     1      10.342  -0.698  20.801  0.00  0.00    +0.119 HD
ATOM     16  H   UNL     1      10.723  -2.197  21.329  0.00  0.00    +0.119 HD
ENDBRANCH  13  14
ENDBRANCH   1  13
TORSDOF 4
ENDMDL
MODEL 9
REMARK VINA RESULT:      -4.4      3.520      5.135
REMARK  Name = 
REMARK  4 active torsions:
REMARK  status: ('A' for Active; 'I' for Inactive)
REMARK    1  A    between atoms: N_1  and  C_2
REMARK    2  A    between atoms: C_2  and  C_3
REMARK    3  A    between atoms: C_6  and  S_9
REMARK    4  A    between atoms: S_9  and  N_10
REMARK                            x       y       z     vdW  Elec       q    Type
REMARK                         _______ _______ _______ _____ _____    ______ ____
ROOT
ATOM      1  C   UNL     1       8.585  -2.624  23.594  0.00  0.00    -0.034 A 
ATOM      2  C   UNL     1       7.569  -1.710  23.273  0.00  0.00    +0.007 A 
ATOM      3  C   UNL     1       7.858  -0.352  23.130  0.00  0.00    +0.029 A 
ATOM      4  C   UNL     1       9.172   0.094  23.297  0.00  0.00    +0.105 A 
ATOM      5  C   UNL     1      10.197  -0.803  23.602  0.00  0.00    +0.029 A 
ATOM      6  C   UNL     1       9.902  -2.158  23.740  0.00  0.00    +0.007 A 
ENDROOT
BRANCH   4   7
ATOM      7  S   UNL     1       9.531   1.821  23.192  0.00  0.00    +0.056 S 
ATOM      8  O   UNL     1      10.762   2.096  23.898  0.00  0.00    -0.153 OA
ATOM      9  O   UNL     1       8.323   2.580  23.414  0.00  0.00    -0.153 OA
BRANCH   7  10
ATOM     10  N   UNL     1       9.890   1.991  21.560  0.00  0.00    -0.204 NA
ATOM     11  H   UNL     1       9.031   1.965  21.012  0.00  0.00    +0.144 HD
ATOM     12  H   UNL     1      10.582   1.293  21.286  0.00  0.00    +0.144 HD
ENDBRANCH   7  10
ENDBRANCH   4   7
BRANCH   1  13
ATOM     13  C   UNL     1       8.268  -4.080  23.824  0.00  0.00    +0.113 C 
BRANCH  13  14
ATOM     14  N   UNL     1       9.358  -4.738  24.533  0.00  0.00    -0.326 NA
ATOM     15  H   UNL     1       9.308  -4.487  25.520  0.00  0.00    +0.119 HD
ATOM     16  H   UNL     1       9.233  -5.747  24.483  0.00  0.00    +0.119 HD
ENDBRANCH  13  14
ENDBRANCH   1  13
TORSDOF 4
ENDMDL
