MODEL 1
REMARK VINA RESULT:      -7.9      0.000      0.000
REMARK  Name = 
REMARK  5 active torsions:
REMARK  status: ('A' for Active; 'I' for Inactive)
REMARK    1  A    between atoms: C_2  and  C_15
REMARK    2  A    between atoms: C_5  and  C_12
REMARK    3  A    between atoms: C_8  and  C_9
REMARK    4  A    between atoms: C_9  and  O_10
REMARK    5  A    between atoms: C_12  and  O_13
REMARK                            x       y       z     vdW  Elec       q    Type
REMARK                         _______ _______ _______ _____ _____    ______ ____
ROOT
ATOM      1  C   UNK     1       7.872  -4.027  23.467  0.00  0.00    +0.135 C 
ATOM      2  C   UNK     1       7.772  -4.741  24.777  0.00  0.00    +0.073 C 
ATOM      3  C   UNK     1       6.730  -5.413  25.321  0.00  0.00    +0.123 C 
ATOM      4  N   UNK     1       5.439  -5.680  24.918  0.00  0.00    -0.251 NA
ATOM      5  C   UNK     1       5.113  -5.873  23.671  0.00  0.00    +0.134 C 
ATOM      6  C   UNK     1       5.971  -5.688  22.458  0.00  0.00    +0.132 C 
ATOM      7  S   UNK     1       6.398  -3.925  22.423  0.00  0.00    -0.140 S 
ENDROOT
BRANCH   1   8
ATOM      8  C   UNK     1       8.603  -2.697  23.442  0.00  0.00    +0.078 A 
ATOM      9  N   UNK     1       8.242  -1.908  22.370  0.00  0.00    -0.225 NA
ATOM     10  C   UNK     1       8.543  -0.713  22.794  0.00  0.00    +0.178 A 
ATOM     11  S   UNK     1       7.579   0.736  22.829  0.00  0.00    -0.054 S 
ATOM     12  C   UNK     1       8.682   1.384  24.044  0.00  0.00    +0.013 A 
ATOM     13  C   UNK     1       9.041   2.823  24.100  0.00  0.00    +0.044 C 
ATOM     14  C   UNK     1      10.434   2.710  23.508  0.00  0.00    +0.011 C 
ATOM     15  C   UNK     1      10.988   1.394  24.115  0.00  0.00    +0.055 C 
ATOM     16  C   UNK     1       9.729   0.564  24.302  0.00  0.00    +0.035 A 
ATOM     17  N   UNK     1       9.514  -0.700  23.752  0.00  0.00    -0.297 N 
ATOM     18  C   UNK     1       9.460  -1.991  24.292  0.00  0.00    +0.118 A 
ENDBRANCH   1   8
BRANCH   2  19
ATOM     19  C   UNK     1       9.048  -4.967  25.540  0.00  0.00    +0.336 C 
ATOM     20  O   UNK     1       9.180  -4.646  26.715  0.00  0.00    -0.245 OA
BRANCH  19  21
ATOM     21  O   UNK     1      10.057  -5.624  24.928  0.00  0.00    -0.477 OA
ATOM     22  H   UNK     1      10.192  -6.591  25.007  0.00  0.00    +0.295 HD
ENDBRANCH  19  21
ENDBRANCH   2  19
BRANCH   5  23
ATOM     23  C   UNK     1       3.676  -6.358  23.405  0.00  0.00    +0.352 C 
ATOM     24  O   UNK     1       2.841  -5.684  22.838  0.00  0.00    -0.244 OA
BRANCH  23  25
ATOM     25  O   UNK     1       3.519  -7.617  23.833  0.00  0.00    -0.476 OA
ATOM     26  H   UNK     1       3.572  -8.232  23.056  0.00  0.00    +0.295 HD
ENDBRANCH  23  25
ENDBRANCH   5  23
TORSDOF 5
ENDMDL
MODEL 2
REMARK VINA RESULT:      -7.8      1.363      1.672
REMARK  Name = 
REMARK  5 active torsions:
REMARK  status: ('A' for Active; 'I' for Inactive)
REMARK    1  A    between atoms: C_2  and  C_15
REMARK    2  A    between atoms: C_5  and  C_12
REMARK    3  A    between atoms: C_8  and  C_9
REMARK    4  A    between atoms: C_9  and  O_10
REMARK    5  A    between atoms: C_12  and  O_13
REMARK                            x       y       z     vdW  Elec       q    Type
REMARK                         _______ _______ _______ _____ _____    ______ ____
ROOT
ATOM      1  C   UNK     1       7.100  -4.438  23.760  0.00  0.00    +0.135 C 
ATOM      2  C   UNK     1       7.415  -4.976  25.119  0.00  0.00    +0.073 C 
ATOM      3  C   UNK     1       6.635  -5.677  25.976  0.00  0.00    +0.123 C 
ATOM      4  N   UNK     1       5.335  -6.136  25.941  0.00  0.00    -0.251 NA
ATOM      5  C   UNK     1       4.752  -6.528  24.844  0.00  0.00    +0.134 C 
ATOM      6  C   UNK     1       5.263  -6.416  23.442  0.00  0.00    +0.132 C 
ATOM      7  S   UNK     1       5.421  -4.638  23.118  0.00  0.00    -0.140 S 
ENDROOT
BRANCH   1   8
ATOM      8  C   UNK     1       7.613  -3.052  23.413  0.00  0.00    +0.078 A 
ATOM      9  N   UNK     1       7.196  -2.088  24.308  0.00  0.00    -0.225 NA
ATOM     10  C   UNK     1       8.102  -1.163  24.158  0.00  0.00    +0.178 A 
ATOM     11  S   UNK     1       9.067  -0.342  25.351  0.00  0.00    -0.054 S 
ATOM     12  C   UNK     1      10.191   0.103  24.065  0.00  0.00    +0.013 A 
ATOM     13  C   UNK     1      10.903   1.406  24.051  0.00  0.00    +0.044 C 
ATOM     14  C   UNK     1      10.070   2.084  22.978  0.00  0.00    +0.011 C 
ATOM     15  C   UNK     1       9.791   0.950  21.956  0.00  0.00    +0.055 C 
ATOM     16  C   UNK     1       9.775  -0.289  22.837  0.00  0.00    +0.035 A 
ATOM     17  N   UNK     1       8.712  -1.186  22.938  0.00  0.00    -0.297 N 
ATOM     18  C   UNK     1       8.512  -2.500  22.496  0.00  0.00    +0.118 A 
ENDBRANCH   1   8
BRANCH   2  19
ATOM     19  C   UNK     1       8.854  -4.957  25.555  0.00  0.00    +0.336 C 
ATOM     20  O   UNK     1       9.215  -4.464  26.616  0.00  0.00    -0.245 OA
BRANCH  19  21
ATOM     21  O   UNK     1       9.769  -5.580  24.781  0.00  0.00    -0.477 OA
ATOM     22  H   UNK     1      10.183  -5.160  24.000  0.00  0.00    +0.295 HD
ENDBRANCH  19  21
ENDBRANCH   2  19
BRANCH   5  23
ATOM     23  C   UNK     1       3.374  -7.198  25.001  0.00  0.00    +0.352 C 
ATOM     24  O   UNK     1       2.617  -6.954  25.917  0.00  0.00    -0.244 OA
BRANCH  23  25
ATOM     25  O   UNK     1       3.132  -8.021  23.972  0.00  0.00    -0.476 OA
ATOM     26  H   UNK     1       3.206  -8.959  24.283  0.00  0.00    +0.295 HD
ENDBRANCH  23  25
ENDBRANCH   5  23
TORSDOF 5
ENDMDL
MODEL 3
REMARK VINA RESULT:      -7.4      2.832      3.627
REMARK  Name = 
REMARK  5 active torsions:
REMARK  status: ('A' for Active; 'I' for Inactive)
REMARK    1  A    between atoms: C_2  and  C_15
REMARK    2  A    between atoms: C_5  and  C_12
REMARK    3  A    between atoms: C_8  and  C_9
REMARK    4  A    between atoms: C_9  and  O_10
REMARK    5  A    between atoms: C_12  and  O_13
REMARK                            x       y       z     vdW  Elec       q    Type
REMARK                         _______ _______ _______ _____ _____    ______ ____
ROOT
ATOM      1  C   UNK     1       6.572  -3.644  25.410  0.00  0.00    +0.135 C 
ATOM      2  C   UNK     1       7.745  -4.547  25.624  0.00  0.00    +0.073 C 
ATOM      3  C   UNK     1       8.023  -5.376  26.658  0.00  0.00    +0.123 C 
ATOM      4  N   UNK     1       7.386  -5.692  27.840  0.00  0.00    -0.251 NA
ATOM      5  C   UNK     1       6.089  -5.730  27.956  0.00  0.00    +0.134 C 
ATOM      6  C   UNK     1       5.064  -5.299  26.953  0.00  0.00    +0.132 C 
ATOM      7  S   UNK     1       5.327  -3.519  26.717  0.00  0.00    -0.140 S 
ENDROOT
BRANCH   1   8
ATOM      8  C   UNK     1       6.837  -2.268  24.829  0.00  0.00    +0.078 A 
ATOM      9  N   UNK     1       7.853  -1.599  25.481  0.00  0.00    -0.225 NA
ATOM     10  C   UNK     1       8.251  -0.752  24.573  0.00  0.00    +0.178 A 
ATOM     11  S   UNK     1       9.853  -0.427  23.976  0.00  0.00    -0.054 S 
ATOM     12  C   UNK     1       9.120   0.301  22.545  0.00  0.00    +0.013 A 
ATOM     13  C   UNK     1       9.713   1.479  21.865  0.00  0.00    +0.044 C 
ATOM     14  C   UNK     1       8.738   2.525  22.376  0.00  0.00    +0.011 C 
ATOM     15  C   UNK     1       7.370   1.793  22.357  0.00  0.00    +0.055 C 
ATOM     16  C   UNK     1       7.768   0.347  22.607  0.00  0.00    +0.035 A 
ATOM     17  N   UNK     1       7.293  -0.445  23.652  0.00  0.00    -0.297 N 
ATOM     18  C   UNK     1       6.415  -1.534  23.716  0.00  0.00    +0.118 A 
ENDBRANCH   1   8
BRANCH   2  19
ATOM     19  C   UNK     1       8.668  -4.771  24.459  0.00  0.00    +0.336 C 
ATOM     20  O   UNK     1       8.372  -5.487  23.511  0.00  0.00    -0.245 OA
BRANCH  19  21
ATOM     21  O   UNK     1       9.835  -4.091  24.421  0.00  0.00    -0.477 OA
ATOM     22  H   UNK     1      10.666  -4.475  24.074  0.00  0.00    +0.295 HD
ENDBRANCH  19  21
ENDBRANCH   2  19
BRANCH   5  23
ATOM     23  C   UNK     1       5.535  -6.293  29.278  0.00  0.00    +0.352 C 
ATOM     24  O   UNK     1       4.723  -7.192  29.328  0.00  0.00    -0.244 OA
BRANCH  23  25
ATOM     25  O   UNK     1       6.116  -5.691  30.324  0.00  0.00    -0.476 OA
ATOM     26  H   UNK     1       5.413  -5.292  30.899  0.00  0.00    +0.295 HD
ENDBRANCH  23  25
ENDBRANCH   5  23
TORSDOF 5
ENDMDL
MODEL 4
REMARK VINA RESULT:      -7.3      2.470      3.825
REMARK  Name = 
REMARK  5 active torsions:
REMARK  status: ('A' for Active; 'I' for Inactive)
REMARK    1  A    between atoms: C_2  and  C_15
REMARK    2  A    between atoms: C_5  and  C_12
REMARK    3  A    between atoms: C_8  and  C_9
REMARK    4  A    between atoms: C_9  and  O_10
REMARK    5  A    between atoms: C_12  and  O_13
REMARK                            x       y       z     vdW  Elec       q    Type
REMARK                         _______ _______ _______ _____ _____    ______ ____
ROOT
ATOM      1  C   UNK     1       5.787  -3.289  25.013  0.00  0.00    +0.135 C 
ATOM      2  C   UNK     1       5.481  -4.623  24.411  0.00  0.00    +0.073 C 
ATOM      3  C   UNK     1       5.525  -5.857  24.968  0.00  0.00    +0.123 C 
ATOM      4  N   UNK     1       5.851  -6.339  26.219  0.00  0.00    -0.251 NA
ATOM      5  C   UNK     1       5.606  -5.681  27.316  0.00  0.00    +0.134 C 
ATOM      6  C   UNK     1       5.109  -4.276  27.454  0.00  0.00    +0.132 C 
ATOM      7  S   UNK     1       6.394  -3.228  26.716  0.00  0.00    -0.140 S 
ENDROOT
BRANCH   1   8
ATOM      8  C   UNK     1       6.555  -2.292  24.165  0.00  0.00    +0.078 A 
ATOM      9  N   UNK     1       6.115  -0.995  24.333  0.00  0.00    -0.225 NA
ATOM     10  C   UNK     1       7.158  -0.302  23.973  0.00  0.00    +0.178 A 
ATOM     11  S   UNK     1       7.978   0.992  24.799  0.00  0.00    -0.054 S 
ATOM     12  C   UNK     1       9.387   0.684  23.782  0.00  0.00    +0.013 A 
ATOM     13  C   UNK     1      10.270   1.777  23.302  0.00  0.00    +0.044 C 
ATOM     14  C   UNK     1       9.774   1.826  21.868  0.00  0.00    +0.011 C 
ATOM     15  C   UNK     1       9.540   0.335  21.507  0.00  0.00    +0.055 C 
ATOM     16  C   UNK     1       9.169  -0.273  22.849  0.00  0.00    +0.035 A 
ATOM     17  N   UNK     1       7.988  -0.964  23.117  0.00  0.00    -0.297 N 
ATOM     18  C   UNK     1       7.689  -2.313  23.347  0.00  0.00    +0.118 A 
ENDBRANCH   1   8
BRANCH   2  19
ATOM     19  C   UNK     1       4.812  -4.638  23.064  0.00  0.00    +0.336 C 
ATOM     20  O   UNK     1       5.442  -4.612  22.014  0.00  0.00    -0.245 OA
BRANCH  19  21
ATOM     21  O   UNK     1       3.469  -4.767  23.014  0.00  0.00    -0.477 OA
ATOM     22  H   UNK     1       2.907  -4.822  23.814  0.00  0.00    +0.295 HD
ENDBRANCH  19  21
ENDBRANCH   2  19
BRANCH   5  23
ATOM     23  C   UNK     1       5.844  -6.437  28.636  0.00  0.00    +0.352 C 
ATOM     24  O   UNK     1       6.400  -5.943  29.594  0.00  0.00    -0.244 OA
BRANCH  23  25
ATOM     25  O   UNK     1       5.308  -7.663  28.579  0.00  0.00    -0.476 OA
ATOM     26  H   UNK     1       4.360  -7.616  28.866  0.00  0.00    +0.295 HD
ENDBRANCH  23  25
ENDBRANCH   5  23
TORSDOF 5
ENDMDL
MODEL 5
REMARK VINA RESULT:      -7.2      3.065      4.735
REMARK  Name = 
REMARK  5 active torsions:
REMARK  status: ('A' for Active; 'I' for Inactive)
REMARK    1  A    between atoms: C_2  and  C_15
REMARK    2  A    between atoms: C_5  and  C_12
REMARK    3  A    between atoms: C_8  and  C_9
REMARK    4  A    between atoms: C_9  and  O_10
REMARK    5  A    between atoms: C_12  and  O_13
REMARK                            x       y       z     vdW  Elec       q    Type
REMARK                         _______ _______ _______ _____ _____    ______ ____
ROOT
ATOM      1  C   UNK     1       8.210  -0.697  24.513  0.00  0.00    +0.135 C 
ATOM      2  C   UNK     1       9.014  -1.305  23.409  0.00  0.00    +0.073 C 
ATOM      3  C   UNK     1       9.588  -2.529  23.327  0.00  0.00    +0.123 C 
ATOM      4  N   UNK     1       9.660  -3.619  24.169  0.00  0.00    -0.251 NA
ATOM      5  C   UNK     1       8.693  -3.955  24.975  0.00  0.00    +0.134 C 
ATOM      6  C   UNK     1       7.442  -3.190  25.278  0.00  0.00    +0.132 C 
ATOM      7  S   UNK     1       7.989  -1.638  26.042  0.00  0.00    -0.140 S 
ENDROOT
BRANCH   1   8
ATOM      8  C   UNK     1       8.460   0.762  24.847  0.00  0.00    +0.078 A 
ATOM      9  N   UNK     1       9.796   1.103  24.785  0.00  0.00    -0.225 NA
ATOM     10  C   UNK     1       9.741   2.390  24.587  0.00  0.00    +0.178 A 
ATOM     11  S   UNK     1      10.524   3.369  23.379  0.00  0.00    -0.054 S 
ATOM     12  C   UNK     1       9.325   4.627  23.690  0.00  0.00    +0.013 A 
ATOM     13  C   UNK     1       9.663   6.071  23.639  0.00  0.00    +0.044 C 
ATOM     14  C   UNK     1       9.699   6.328  25.134  0.00  0.00    +0.011 C 
ATOM     15  C   UNK     1       8.528   5.471  25.684  0.00  0.00    +0.055 C 
ATOM     16  C   UNK     1       8.478   4.314  24.700  0.00  0.00    +0.035 A 
ATOM     17  N   UNK     1       8.591   2.967  25.040  0.00  0.00    -0.297 N 
ATOM     18  C   UNK     1       7.683   1.901  25.079  0.00  0.00    +0.118 A 
ENDBRANCH   1   8
BRANCH   2  19
ATOM     19  C   UNK     1       9.033  -0.586  22.088  0.00  0.00    +0.336 C 
ATOM     20  O   UNK     1       8.322   0.384  21.855  0.00  0.00    -0.245 OA
BRANCH  19  21
ATOM     21  O   UNK     1       9.928  -0.977  21.155  0.00  0.00    -0.477 OA
ATOM     22  H   UNK     1      10.274  -1.891  21.096  0.00  0.00    +0.295 HD
ENDBRANCH  19  21
ENDBRANCH   2  19
BRANCH   5  23
ATOM     23  C   UNK     1       8.843  -5.305  25.700  0.00  0.00    +0.352 C 
ATOM     24  O   UNK     1       8.012  -5.743  26.468  0.00  0.00    -0.244 OA
BRANCH  23  25
ATOM     25  O   UNK     1       9.968  -5.922  25.316  0.00  0.00    -0.476 OA
ATOM     26  H   UNK     1      10.224  -5.596  24.415  0.00  0.00    +0.295 HD
ENDBRANCH  23  25
ENDBRANCH   5  23
TORSDOF 5
ENDMDL
MODEL 6
REMARK VINA RESULT:      -6.9      2.822      4.094
REMARK  Name = 
REMARK  5 active torsions:
REMARK  status: ('A' for Active; 'I' for Inactive)
REMARK    1  A    between atoms: C_2  and  C_15
REMARK    2  A    between atoms: C_5  and  C_12
REMARK    3  A    between atoms: C_8  and  C_9
REMARK    4  A    between atoms: C_9  and  O_10
REMARK    5  A    between atoms: C_12  and  O_13
REMARK                            x       y       z     vdW  Elec       q    Type
REMARK                         _______ _______ _______ _____ _____    ______ ____
ROOT
ATOM      1  C   UNK     1       7.466  -1.255  23.353  0.00  0.00    +0.135 C 
ATOM      2  C   UNK     1       8.870  -1.687  23.635  0.00  0.00    +0.073 C 
ATOM      3  C   UNK     1       9.328  -2.683  24.430  0.00  0.00    +0.123 C 
ATOM      4  N   UNK     1       8.728  -3.622  25.243  0.00  0.00    -0.251 NA
ATOM      5  C   UNK     1       7.574  -4.162  24.967  0.00  0.00    +0.134 C 
ATOM      6  C   UNK     1       6.622  -3.787  23.874  0.00  0.00    +0.132 C 
ATOM      7  S   UNK     1       6.116  -2.081  24.230  0.00  0.00    -0.140 S 
ENDROOT
BRANCH   1   8
ATOM      8  C   UNK     1       7.187   0.235  23.281  0.00  0.00    +0.078 A 
ATOM      9  N   UNK     1       7.197   0.841  24.521  0.00  0.00    -0.225 NA
ATOM     10  C   UNK     1       7.457   2.082  24.217  0.00  0.00    +0.178 A 
ATOM     11  S   UNK     1       8.666   3.158  24.856  0.00  0.00    -0.054 S 
ATOM     12  C   UNK     1       8.477   4.152  23.410  0.00  0.00    +0.013 A 
ATOM     13  C   UNK     1       8.578   5.633  23.448  0.00  0.00    +0.044 C 
ATOM     14  C   UNK     1       7.096   5.943  23.341  0.00  0.00    +0.011 C 
ATOM     15  C   UNK     1       6.568   4.883  22.338  0.00  0.00    +0.055 C 
ATOM     16  C   UNK     1       7.499   3.707  22.584  0.00  0.00    +0.035 A 
ATOM     17  N   UNK     1       7.091   2.425  22.949  0.00  0.00    -0.297 N 
ATOM     18  C   UNK     1       7.050   1.197  22.276  0.00  0.00    +0.118 A 
ENDBRANCH   1   8
BRANCH   2  19
ATOM     19  C   UNK     1       9.957  -1.114  22.768  0.00  0.00    +0.336 C 
ATOM     20  O   UNK     1      10.695  -0.213  23.145  0.00  0.00    -0.245 OA
BRANCH  19  21
ATOM     21  O   UNK     1      10.178  -1.673  21.559  0.00  0.00    -0.477 OA
ATOM     22  H   UNK     1      10.995  -2.166  21.338  0.00  0.00    +0.295 HD
ENDBRANCH  19  21
ENDBRANCH   2  19
BRANCH   5  23
ATOM     23  C   UNK     1       7.135  -5.335  25.863  0.00  0.00    +0.352 C 
ATOM     24  O   UNK     1       5.993  -5.739  25.915  0.00  0.00    -0.244 OA
BRANCH  23  25
ATOM     25  O   UNK     1       8.188  -5.853  26.507  0.00  0.00    -0.476 OA
ATOM     26  H   UNK     1       7.871  -6.552  27.136  0.00  0.00    +0.295 HD
ENDBRANCH  23  25
ENDBRANCH   5  23
TORSDOF 5
ENDMDL
MODEL 7
REMARK VINA RESULT:      -6.9      1.794      2.277
REMARK  Name = 
REMARK  5 active torsions:
REMARK  status: ('A' for Active; 'I' for Inactive)
REMARK    1  A    between atoms: C_2  and  C_15
REMARK    2  A    between atoms: C_5  and  C_12
REMARK    3  A    between atoms: C_8  and  C_9
REMARK    4  A    between atoms: C_9  and  O_10
REMARK    5  A    between atoms: C_12  and  O_13
REMARK                            x       y       z     vdW  Elec       q    Type
REMARK                         _______ _______ _______ _____ _____    ______ ____
ROOT
ATOM      1  C   UNK     1       6.647  -4.978  25.035  0.00  0.00    +0.135 C 
ATOM      2  C   UNK     1       5.950  -5.276  26.324  0.00  0.00    +0.073 C 
ATOM      3  C   UNK     1       4.663  -5.629  26.553  0.00  0.00    +0.123 C 
ATOM      4  N   UNK     1       3.561  -5.834  25.749  0.00  0.00    -0.251 NA
ATOM      5  C   UNK     1       3.646  -6.328  24.546  0.00  0.00    +0.134 C 
ATOM      6  C   UNK     1       4.885  -6.603  23.751  0.00  0.00    +0.132 C 
ATOM      7  S   UNK     1       5.678  -4.989  23.506  0.00  0.00    -0.140 S 
ENDROOT
BRANCH   1   8
ATOM      8  C   UNK     1       7.619  -3.813  25.010  0.00  0.00    +0.078 A 
ATOM      9  N   UNK     1       8.619  -3.971  24.072  0.00  0.00    -0.225 NA
ATOM     10  C   UNK     1       8.987  -2.739  23.855  0.00  0.00    +0.178 A 
ATOM     11  S   UNK     1       9.171  -1.877  22.354  0.00  0.00    -0.054 S 
ATOM     12  C   UNK     1       9.070  -0.369  23.264  0.00  0.00    +0.013 A 
ATOM     13  C   UNK     1       9.857   0.834  22.891  0.00  0.00    +0.044 C 
ATOM     14  C   UNK     1      10.908   0.739  23.983  0.00  0.00    +0.011 C 
ATOM     15  C   UNK     1      10.108   0.266  25.225  0.00  0.00    +0.055 C 
ATOM     16  C   UNK     1       8.994  -0.560  24.603  0.00  0.00    +0.035 A 
ATOM     17  N   UNK     1       8.728  -1.897  24.896  0.00  0.00    -0.297 N 
ATOM     18  C   UNK     1       7.704  -2.547  25.597  0.00  0.00    +0.118 A 
ENDBRANCH   1   8
BRANCH   2  19
ATOM     19  C   UNK     1       6.804  -5.437  27.551  0.00  0.00    +0.336 C 
ATOM     20  O   UNK     1       6.403  -5.161  28.675  0.00  0.00    -0.245 OA
BRANCH  19  21
ATOM     21  O   UNK     1       8.032  -5.982  27.414  0.00  0.00    -0.477 OA
ATOM     22  H   UNK     1       8.685  -6.019  28.143  0.00  0.00    +0.295 HD
ENDBRANCH  19  21
ENDBRANCH   2  19
BRANCH   5  23
ATOM     23  C   UNK     1       2.316  -6.683  23.855  0.00  0.00    +0.352 C 
ATOM     24  O   UNK     1       1.320  -5.997  23.939  0.00  0.00    -0.244 OA
BRANCH  23  25
ATOM     25  O   UNK     1       2.449  -7.800  23.127  0.00  0.00    -0.476 OA
ATOM     26  H   UNK     1       3.406  -7.926  22.900  0.00  0.00    +0.295 HD
ENDBRANCH  23  25
ENDBRANCH   5  23
TORSDOF 5
ENDMDL
MODEL 8
REMARK VINA RESULT:      -6.8      3.101      4.265
REMARK  Name = 
REMARK  5 active torsions:
REMARK  status: ('A' for Active; 'I' for Inactive)
REMARK    1  A    between atoms: C_2  and  C_15
REMARK    2  A    between atoms: C_5  and  C_12
REMARK    3  A    between atoms: C_8  and  C_9
REMARK    4  A    between atoms: C_9  and  O_10
REMARK    5  A    between atoms: C_12  and  O_13
REMARK                            x       y       z     vdW  Elec       q    Type
REMARK                         _______ _______ _______ _____ _____    ______ ____
ROOT
ATOM      1  C   UNK     1       8.199  -0.806  24.061  0.00  0.00    +0.135 C 
ATOM      2  C   UNK     1       9.244  -1.809  23.693  0.00  0.00    +0.073 C 
ATOM      3  C   UNK     1       9.569  -2.981  24.289  0.00  0.00    +0.123 C 
ATOM      4  N   UNK     1       9.104  -3.663  25.394  0.00  0.00    -0.251 NA
ATOM      5  C   UNK     1       7.855  -3.642  25.764  0.00  0.00    +0.134 C 
ATOM      6  C   UNK     1       6.749  -2.794  25.217  0.00  0.00    +0.132 C 
ATOM      7  S   UNK     1       7.229  -1.079  25.564  0.00  0.00    -0.140 S 
ENDROOT
BRANCH   1   8
ATOM      8  C   UNK     1       8.562   0.664  23.952  0.00  0.00    +0.078 A 
ATOM      9  N   UNK     1       8.297   1.190  22.704  0.00  0.00    -0.225 NA
ATOM     10  C   UNK     1       8.178   2.462  22.962  0.00  0.00    +0.178 A 
ATOM     11  S   UNK     1       6.909   3.574  22.534  0.00  0.00    -0.054 S 
ATOM     12  C   UNK     1       7.478   4.643  23.818  0.00  0.00    +0.013 A 
ATOM     13  C   UNK     1       7.446   6.121  23.689  0.00  0.00    +0.044 C 
ATOM     14  C   UNK     1       8.926   6.338  23.432  0.00  0.00    +0.011 C 
ATOM     15  C   UNK     1       9.617   5.311  24.368  0.00  0.00    +0.055 C 
ATOM     16  C   UNK     1       8.596   4.187  24.432  0.00  0.00    +0.035 A 
ATOM     17  N   UNK     1       8.844   2.859  24.084  0.00  0.00    -0.297 N 
ATOM     18  C   UNK     1       8.976   1.676  24.823  0.00  0.00    +0.118 A 
ENDBRANCH   1   8
BRANCH   2  19
ATOM     19  C   UNK     1       9.910  -1.656  22.353  0.00  0.00    +0.336 C 
ATOM     20  O   UNK     1      11.118  -1.781  22.199  0.00  0.00    -0.245 OA
BRANCH  19  21
ATOM     21  O   UNK     1       9.133  -1.452  21.268  0.00  0.00    -0.477 OA
ATOM     22  H   UNK     1       9.018  -2.118  20.559  0.00  0.00    +0.295 HD
ENDBRANCH  19  21
ENDBRANCH   2  19
BRANCH   5  23
ATOM     23  C   UNK     1       7.459  -4.610  26.894  0.00  0.00    +0.352 C 
ATOM     24  O   UNK     1       6.612  -4.352  27.723  0.00  0.00    -0.244 OA
BRANCH  23  25
ATOM     25  O   UNK     1       8.133  -5.762  26.783  0.00  0.00    -0.476 OA
ATOM     26  H   UNK     1       8.242  -6.161  27.684  0.00  0.00    +0.295 HD
ENDBRANCH  23  25
ENDBRANCH   5  23
TORSDOF 5
ENDMDL
MODEL 9
REMARK VINA RESULT:      -6.7      3.911      7.745
REMARK  Name = 
REMARK  5 active torsions:
REMARK  status: ('A' for Active; 'I' for Inactive)
REMARK    1  A    between atoms: C_2  and  C_15
REMARK    2  A    between atoms: C_5  and  C_12
REMARK    3  A    between atoms: C_8  and  C_9
REMARK    4  A    between atoms: C_9  and  O_10
REMARK    5  A    between atoms: C_12  and  O_13
REMARK                            x       y       z     vdW  Elec       q    Type
REMARK                         _______ _______ _______ _____ _____    ______ ____
ROOT
ATOM      1  C   UNK     1       8.322   0.227  24.083  0.00  0.00    +0.135 C 
ATOM      2  C   UNK     1       8.906   0.496  22.732  0.00  0.00    +0.073 C 
ATOM      3  C   UNK     1       8.937   1.644  22.015  0.00  0.00    +0.123 C 
ATOM      4  N   UNK     1       8.471   2.926  22.224  0.00  0.00    -0.251 NA
ATOM      5  C   UNK     1       8.434   3.481  23.402  0.00  0.00    +0.134 C 
ATOM      6  C   UNK     1       8.702   2.840  24.728  0.00  0.00    +0.132 C 
ATOM      7  S   UNK     1       7.431   1.560  24.921  0.00  0.00    -0.140 S 
ENDROOT
BRANCH   1   8
ATOM      8  C   UNK     1       7.580  -1.082  24.282  0.00  0.00    +0.078 A 
ATOM      9  N   UNK     1       6.390  -1.134  23.586  0.00  0.00    -0.225 NA
ATOM     10  C   UNK     1       6.199  -2.418  23.465  0.00  0.00    +0.178 A 
ATOM     11  S   UNK     1       5.847  -3.367  22.049  0.00  0.00    -0.054 S 
ATOM     12  C   UNK     1       6.396  -4.795  22.929  0.00  0.00    +0.013 A 
ATOM     13  C   UNK     1       5.764  -6.126  22.748  0.00  0.00    +0.044 C 
ATOM     14  C   UNK     1       4.972  -6.155  24.043  0.00  0.00    +0.011 C 
ATOM     15  C   UNK     1       5.928  -5.500  25.075  0.00  0.00    +0.055 C 
ATOM     16  C   UNK     1       6.725  -4.532  24.216  0.00  0.00    +0.035 A 
ATOM     17  N   UNK     1       6.815  -3.158  24.432  0.00  0.00    -0.297 N 
ATOM     18  C   UNK     1       7.840  -2.317  24.885  0.00  0.00    +0.118 A 
ENDBRANCH   1   8
BRANCH   2  19
ATOM     19  C   UNK     1       9.790  -0.564  22.137  0.00  0.00    +0.336 C 
ATOM     20  O   UNK     1      10.653  -1.143  22.783  0.00  0.00    -0.245 OA
BRANCH  19  21
ATOM     21  O   UNK     1       9.566  -0.946  20.861  0.00  0.00    -0.477 OA
ATOM     22  H   UNK     1       9.326  -0.318  20.149  0.00  0.00    +0.295 HD
ENDBRANCH  19  21
ENDBRANCH   2  19
BRANCH   5  23
ATOM     23  C   UNK     1       8.079   4.979  23.443  0.00  0.00    +0.352 C 
ATOM     24  O   UNK     1       7.120   5.418  24.041  0.00  0.00    -0.244 OA
BRANCH  23  25
ATOM     25  O   UNK     1       8.998   5.697  22.785  0.00  0.00    -0.476 OA
ATOM     26  H   UNK     1       9.517   5.094  22.193  0.00  0.00    +0.295 HD
ENDBRANCH  23  25
ENDBRANCH   5  23
TORSDOF 5
ENDMDL
