MODEL 1
REMARK VINA RESULT:      -5.7      0.000      0.000
REMARK  Name = 
REMARK  16 active torsions:
REMARK  status: ('A' for Active; 'I' for Inactive)
REMARK    1  A    between atoms: C_2  and  C_3
REMARK    2  A    between atoms: C_2  and  C_7
REMARK    3  A    between atoms: C_2  and  C_12
REMARK    4  A    between atoms: C_3  and  C_4
REMARK    5  A    between atoms: C_4  and  C_5
REMARK    6  A    between atoms: C_5  and  C_6
REMARK    7  A    between atoms: C_7  and  N_8
REMARK    8  A    between atoms: N_8  and  O_9
REMARK    9  A    between atoms: N_14  and  C_15
REMARK   10  A    between atoms: C_15  and  C_17
REMARK   11  A    between atoms: C_15  and  C_22
REMARK   12  A    between atoms: N_19  and  C_20
REMARK   13  A    between atoms: N_19  and  C_21
REMARK   14  A    between atoms: C_22  and  C_23
REMARK   15  A    between atoms: C_22  and  C_24
REMARK   16  A    between atoms: C_22  and  C_25
REMARK                            x       y       z     vdW  Elec       q    Type
REMARK                         _______ _______ _______ _____ _____    ______ ____
ROOT
ATOM      1  C   UNL     1       9.247  -1.807  23.036  0.00  0.00    +0.218 C 
ATOM      2  N   UNL     1       8.073  -2.326  23.531  0.00  0.00    -0.303 N 
ATOM      3  H   UNL     1       7.242  -1.747  23.590  0.00  0.00    +0.149 HD
ATOM      4  O   UNL     1      10.199  -2.523  22.720  0.00  0.00    -0.275 OA
ENDROOT
BRANCH   1   5
ATOM      5  C   UNL     1       9.310  -0.283  22.917  0.00  0.00    +0.095 C 
BRANCH   5   6
ATOM      6  C   UNL     1      10.578   0.162  23.682  0.00  0.00    +0.152 C 
BRANCH   6   7
ATOM      7  N   UNL     1      10.370   1.279  24.604  0.00  0.00    -0.186 N 
ATOM      8  C   UNL     1      10.370   2.581  24.135  0.00  0.00    +0.352 C 
ATOM      9  O   UNL     1      10.882   2.969  23.088  0.00  0.00    -0.277 OA
BRANCH   7  10
ATOM     10  O   UNL     1       9.268   1.045  25.469  0.00  0.00    -0.293 OA
ATOM     11  H   UNL     1       9.159   1.917  25.890  0.00  0.00    +0.242 HD
ENDBRANCH   7  10
ENDBRANCH   6   7
ENDBRANCH   5   6
BRANCH   5  12
ATOM     12  C   UNL     1       9.374   0.185  21.449  0.00  0.00    +0.014 C 
BRANCH  12  13
ATOM     13  C   UNL     1       8.494   1.397  21.135  0.00  0.00    +0.001 C 
BRANCH  13  14
ATOM     14  C   UNL     1       7.384   1.569  22.175  0.00  0.00    -0.003 C 
ATOM     15  C   UNL     1       6.969   3.026  22.308  0.00  0.00    +0.004 C 
ENDBRANCH  13  14
ENDBRANCH  12  13
ENDBRANCH   5  12
ENDBRANCH   1   5
BRANCH   2  16
ATOM     16  C   UNL     1       7.906  -3.765  23.834  0.00  0.00    +0.164 C 
BRANCH  16  17
ATOM     17  C   UNL     1       6.435  -4.178  23.522  0.00  0.00    +0.236 C 
ATOM     18  N   UNL     1       6.193  -5.394  22.878  0.00  0.00    -0.306 N 
ATOM     19  C   UNL     1       7.125  -6.057  21.976  0.00  0.00    +0.131 C 
ATOM     20  C   UNL     1       4.827  -5.896  22.818  0.00  0.00    +0.131 C 
ATOM     21  O   UNL     1       5.505  -3.476  23.940  0.00  0.00    -0.274 OA
ENDBRANCH  16  17
BRANCH  16  22
ATOM     22  C   UNL     1       8.315  -4.082  25.319  0.00  0.00    -0.011 C 
ATOM     23  C   UNL     1       8.355  -2.808  26.188  0.00  0.00    +0.013 C 
ATOM     24  C   UNL     1       9.717  -4.733  25.357  0.00  0.00    +0.013 C 
ATOM     25  C   UNL     1       7.343  -5.082  25.979  0.00  0.00    +0.013 C 
ENDBRANCH  16  22
ENDBRANCH   2  16
TORSDOF 10
ENDMDL
MODEL 2
REMARK VINA RESULT:      -5.6      1.486      2.313
REMARK  Name = 
REMARK  16 active torsions:
REMARK  status: ('A' for Active; 'I' for Inactive)
REMARK    1  A    between atoms: C_2  and  C_3
REMARK    2  A    between atoms: C_2  and  C_7
REMARK    3  A    between atoms: C_2  and  C_12
REMARK    4  A    between atoms: C_3  and  C_4
REMARK    5  A    between atoms: C_4  and  C_5
REMARK    6  A    between atoms: C_5  and  C_6
REMARK    7  A    between atoms: C_7  and  N_8
REMARK    8  A    between atoms: N_8  and  O_9
REMARK    9  A    between atoms: N_14  and  C_15
REMARK   10  A    between atoms: C_15  and  C_17
REMARK   11  A    between atoms: C_15  and  C_22
REMARK   12  A    between atoms: N_19  and  C_20
REMARK   13  A    between atoms: N_19  and  C_21
REMARK   14  A    between atoms: C_22  and  C_23
REMARK   15  A    between atoms: C_22  and  C_24
REMARK   16  A    between atoms: C_22  and  C_25
REMARK                            x       y       z     vdW  Elec       q    Type
REMARK                         _______ _______ _______ _____ _____    ______ ____
ROOT
ATOM      1  C   UNL     1       9.483  -1.849  23.041  0.00  0.00    +0.218 C 
ATOM      2  N   UNL     1       8.242  -2.305  23.422  0.00  0.00    -0.303 N 
ATOM      3  H   UNL     1       7.434  -1.696  23.367  0.00  0.00    +0.149 HD
ATOM      4  O   UNL     1      10.436  -2.610  22.861  0.00  0.00    -0.275 OA
ENDROOT
BRANCH   1   5
ATOM      5  C   UNL     1       9.618  -0.334  22.874  0.00  0.00    +0.095 C 
BRANCH   5   6
ATOM      6  C   UNL     1       8.381   0.129  22.070  0.00  0.00    +0.152 C 
BRANCH   6   7
ATOM      7  N   UNL     1       7.312   0.712  22.882  0.00  0.00    -0.186 N 
ATOM      8  C   UNL     1       6.742   1.920  22.524  0.00  0.00    +0.352 C 
ATOM      9  O   UNL     1       7.253   2.771  21.800  0.00  0.00    -0.277 OA
BRANCH   7  10
ATOM     10  O   UNL     1       6.319  -0.249  23.207  0.00  0.00    -0.293 OA
ATOM     11  H   UNL     1       6.839  -0.916  23.691  0.00  0.00    +0.242 HD
ENDBRANCH   7  10
ENDBRANCH   6   7
ENDBRANCH   5   6
BRANCH   5  12
ATOM     12  C   UNL     1       9.685   0.397  24.230  0.00  0.00    +0.014 C 
BRANCH  12  13
ATOM     13  C   UNL     1      10.744   1.500  24.301  0.00  0.00    +0.001 C 
BRANCH  13  14
ATOM     14  C   UNL     1      10.213   2.823  23.744  0.00  0.00    -0.003 C 
ATOM     15  C   UNL     1      11.350   3.756  23.350  0.00  0.00    +0.004 C 
ENDBRANCH  13  14
ENDBRANCH  12  13
ENDBRANCH   5  12
ENDBRANCH   1   5
BRANCH   2  16
ATOM     16  C   UNL     1       7.987  -3.724  23.757  0.00  0.00    +0.164 C 
BRANCH  16  17
ATOM     17  C   UNL     1       6.516  -4.075  23.375  0.00  0.00    +0.236 C 
ATOM     18  N   UNL     1       6.244  -5.315  22.791  0.00  0.00    -0.306 N 
ATOM     19  C   UNL     1       7.189  -6.084  21.992  0.00  0.00    +0.131 C 
ATOM     20  C   UNL     1       4.857  -5.743  22.672  0.00  0.00    +0.131 C 
ATOM     21  O   UNL     1       5.605  -3.298  23.689  0.00  0.00    -0.274 OA
ENDBRANCH  16  17
BRANCH  16  22
ATOM     22  C   UNL     1       8.298  -4.013  25.271  0.00  0.00    -0.011 C 
ATOM     23  C   UNL     1       8.388  -2.713  26.097  0.00  0.00    +0.013 C 
ATOM     24  C   UNL     1       9.644  -4.760  25.404  0.00  0.00    +0.013 C 
ATOM     25  C   UNL     1       7.224  -4.915  25.914  0.00  0.00    +0.013 C 
ENDBRANCH  16  22
ENDBRANCH   2  16
TORSDOF 10
ENDMDL
MODEL 3
REMARK VINA RESULT:      -5.6      1.765      2.388
REMARK  Name = 
REMARK  16 active torsions:
REMARK  status: ('A' for Active; 'I' for Inactive)
REMARK    1  A    between atoms: C_2  and  C_3
REMARK    2  A    between atoms: C_2  and  C_7
REMARK    3  A    between atoms: C_2  and  C_12
REMARK    4  A    between atoms: C_3  and  C_4
REMARK    5  A    between atoms: C_4  and  C_5
REMARK    6  A    between atoms: C_5  and  C_6
REMARK    7  A    between atoms: C_7  and  N_8
REMARK    8  A    between atoms: N_8  and  O_9
REMARK    9  A    between atoms: N_14  and  C_15
REMARK   10  A    between atoms: C_15  and  C_17
REMARK   11  A    between atoms: C_15  and  C_22
REMARK   12  A    between atoms: N_19  and  C_20
REMARK   13  A    between atoms: N_19  and  C_21
REMARK   14  A    between atoms: C_22  and  C_23
REMARK   15  A    between atoms: C_22  and  C_24
REMARK   16  A    between atoms: C_22  and  C_25
REMARK                            x       y       z     vdW  Elec       q    Type
REMARK                         _______ _______ _______ _____ _____    ______ ____
ROOT
ATOM      1  C   UNL     1       9.446  -1.694  23.193  0.00  0.00    +0.218 C 
ATOM      2  N   UNL     1       8.273  -2.222  23.683  0.00  0.00    -0.303 N 
ATOM      3  H   UNL     1       7.471  -1.624  23.845  0.00  0.00    +0.149 HD
ATOM      4  O   UNL     1      10.353  -2.405  22.756  0.00  0.00    -0.275 OA
ENDROOT
BRANCH   1   5
ATOM      5  C   UNL     1       9.566  -0.170  23.240  0.00  0.00    +0.095 C 
BRANCH   5   6
ATOM      6  C   UNL     1       8.300   0.390  22.549  0.00  0.00    +0.152 C 
BRANCH   6   7
ATOM      7  N   UNL     1       8.547   1.521  21.655  0.00  0.00    -0.186 N 
ATOM      8  C   UNL     1       7.778   2.667  21.749  0.00  0.00    +0.352 C 
ATOM      9  O   UNL     1       6.660   2.745  22.252  0.00  0.00    -0.277 OA
BRANCH   7  10
ATOM     10  O   UNL     1       9.930   1.835  21.578  0.00  0.00    -0.293 OA
ATOM     11  H   UNL     1      10.321   0.962  21.390  0.00  0.00    +0.242 HD
ENDBRANCH   7  10
ENDBRANCH   6   7
ENDBRANCH   5   6
BRANCH   5  12
ATOM     12  C   UNL     1       9.672   0.361  24.683  0.00  0.00    +0.014 C 
BRANCH  12  13
ATOM     13  C   UNL     1       8.500   1.245  25.118  0.00  0.00    +0.001 C 
BRANCH  13  14
ATOM     14  C   UNL     1       7.682   0.582  26.230  0.00  0.00    -0.003 C 
ATOM     15  C   UNL     1       6.327   0.115  25.719  0.00  0.00    +0.004 C 
ENDBRANCH  13  14
ENDBRANCH  12  13
ENDBRANCH   5  12
ENDBRANCH   1   5
BRANCH   2  16
ATOM     16  C   UNL     1       8.060  -3.679  23.834  0.00  0.00    +0.164 C 
BRANCH  16  17
ATOM     17  C   UNL     1       6.589  -4.016  23.440  0.00  0.00    +0.236 C 
ATOM     18  N   UNL     1       6.318  -5.229  22.803  0.00  0.00    -0.306 N 
ATOM     19  C   UNL     1       7.263  -5.960  21.969  0.00  0.00    +0.131 C 
ATOM     20  C   UNL     1       4.932  -5.655  22.669  0.00  0.00    +0.131 C 
ATOM     21  O   UNL     1       5.677  -3.256  23.791  0.00  0.00    -0.274 OA
ENDBRANCH  16  17
BRANCH  16  22
ATOM     22  C   UNL     1       8.416  -4.156  25.290  0.00  0.00    -0.011 C 
ATOM     23  C   UNL     1       8.431  -2.983  26.290  0.00  0.00    +0.013 C 
ATOM     24  C   UNL     1       9.812  -4.819  25.306  0.00  0.00    +0.013 C 
ATOM     25  C   UNL     1       7.416  -5.213  25.805  0.00  0.00    +0.013 C 
ENDBRANCH  16  22
ENDBRANCH   2  16
TORSDOF 10
ENDMDL
MODEL 4
REMARK VINA RESULT:      -5.6      2.089      6.887
REMARK  Name = 
REMARK  16 active torsions:
REMARK  status: ('A' for Active; 'I' for Inactive)
REMARK    1  A    between atoms: C_2  and  C_3
REMARK    2  A    between atoms: C_2  and  C_7
REMARK    3  A    between atoms: C_2  and  C_12
REMARK    4  A    between atoms: C_3  and  C_4
REMARK    5  A    between atoms: C_4  and  C_5
REMARK    6  A    between atoms: C_5  and  C_6
REMARK    7  A    between atoms: C_7  and  N_8
REMARK    8  A    between atoms: N_8  and  O_9
REMARK    9  A    between atoms: N_14  and  C_15
REMARK   10  A    between atoms: C_15  and  C_17
REMARK   11  A    between atoms: C_15  and  C_22
REMARK   12  A    between atoms: N_19  and  C_20
REMARK   13  A    between atoms: N_19  and  C_21
REMARK   14  A    between atoms: C_22  and  C_23
REMARK   15  A    between atoms: C_22  and  C_24
REMARK   16  A    between atoms: C_22  and  C_25
REMARK                            x       y       z     vdW  Elec       q    Type
REMARK                         _______ _______ _______ _____ _____    ______ ____
ROOT
ATOM      1  C   UNL     1       6.936  -1.843  24.442  0.00  0.00    +0.218 C 
ATOM      2  N   UNL     1       7.447  -1.054  23.437  0.00  0.00    -0.303 N 
ATOM      3  H   UNL     1       7.177  -1.215  22.473  0.00  0.00    +0.149 HD
ATOM      4  O   UNL     1       7.039  -1.538  25.632  0.00  0.00    -0.275 OA
ENDROOT
BRANCH   1   5
ATOM      5  C   UNL     1       6.246  -3.134  23.997  0.00  0.00    +0.095 C 
BRANCH   5   6
ATOM      6  C   UNL     1       7.225  -3.840  23.029  0.00  0.00    +0.152 C 
BRANCH   6   7
ATOM      7  N   UNL     1       6.639  -4.217  21.743  0.00  0.00    -0.186 N 
ATOM      8  C   UNL     1       6.391  -5.546  21.450  0.00  0.00    +0.352 C 
ATOM      9  O   UNL     1       6.927  -6.513  21.984  0.00  0.00    -0.277 OA
BRANCH   7  10
ATOM     10  O   UNL     1       5.522  -3.403  21.418  0.00  0.00    -0.293 OA
ATOM     11  H   UNL     1       5.951  -2.554  21.204  0.00  0.00    +0.242 HD
ENDBRANCH   7  10
ENDBRANCH   6   7
ENDBRANCH   5   6
BRANCH   5  12
ATOM     12  C   UNL     1       5.908  -4.053  25.188  0.00  0.00    +0.014 C 
BRANCH  12  13
ATOM     13  C   UNL     1       6.859  -5.242  25.357  0.00  0.00    +0.001 C 
BRANCH  13  14
ATOM     14  C   UNL     1       7.643  -5.149  26.669  0.00  0.00    -0.003 C 
ATOM     15  C   UNL     1       9.005  -4.506  26.457  0.00  0.00    +0.004 C 
ENDBRANCH  13  14
ENDBRANCH  12  13
ENDBRANCH   5  12
ENDBRANCH   1   5
BRANCH   2  16
ATOM     16  C   UNL     1       8.259   0.152  23.709  0.00  0.00    +0.164 C 
BRANCH  16  17
ATOM     17  C   UNL     1       7.476   1.409  23.218  0.00  0.00    +0.236 C 
ATOM     18  N   UNL     1       7.730   2.644  23.818  0.00  0.00    -0.306 N 
ATOM     19  C   UNL     1       8.201   2.824  25.185  0.00  0.00    +0.131 C 
ATOM     20  C   UNL     1       7.196   3.848  23.195  0.00  0.00    +0.131 C 
ATOM     21  O   UNL     1       6.725   1.311  22.239  0.00  0.00    -0.274 OA
ENDBRANCH  16  17
BRANCH  16  22
ATOM     22  C   UNL     1       9.682   0.037  23.050  0.00  0.00    -0.011 C 
ATOM     23  C   UNL     1       9.966  -1.391  22.543  0.00  0.00    +0.013 C 
ATOM     24  C   UNL     1      10.776   0.408  24.077  0.00  0.00    +0.013 C 
ATOM     25  C   UNL     1       9.842   1.008  21.861  0.00  0.00    +0.013 C 
ENDBRANCH  16  22
ENDBRANCH   2  16
TORSDOF 10
ENDMDL
MODEL 5
REMARK VINA RESULT:      -5.5      2.240      6.552
REMARK  Name = 
REMARK  16 active torsions:
REMARK  status: ('A' for Active; 'I' for Inactive)
REMARK    1  A    between atoms: C_2  and  C_3
REMARK    2  A    between atoms: C_2  and  C_7
REMARK    3  A    between atoms: C_2  and  C_12
REMARK    4  A    between atoms: C_3  and  C_4
REMARK    5  A    between atoms: C_4  and  C_5
REMARK    6  A    between atoms: C_5  and  C_6
REMARK    7  A    between atoms: C_7  and  N_8
REMARK    8  A    between atoms: N_8  and  O_9
REMARK    9  A    between atoms: N_14  and  C_15
REMARK   10  A    between atoms: C_15  and  C_17
REMARK   11  A    between atoms: C_15  and  C_22
REMARK   12  A    between atoms: N_19  and  C_20
REMARK   13  A    between atoms: N_19  and  C_21
REMARK   14  A    between atoms: C_22  and  C_23
REMARK   15  A    between atoms: C_22  and  C_24
REMARK   16  A    between atoms: C_22  and  C_25
REMARK                            x       y       z     vdW  Elec       q    Type
REMARK                         _______ _______ _______ _____ _____    ______ ____
ROOT
ATOM      1  C   UNL     1       8.083  -1.521  25.082  0.00  0.00    +0.218 C 
ATOM      2  N   UNL     1       7.997  -0.730  23.960  0.00  0.00    -0.303 N 
ATOM      3  H   UNL     1       7.470  -1.042  23.153  0.00  0.00    +0.149 HD
ATOM      4  O   UNL     1       8.500  -1.090  26.159  0.00  0.00    -0.275 OA
ENDROOT
BRANCH   1   5
ATOM      5  C   UNL     1       7.650  -2.978  24.911  0.00  0.00    +0.095 C 
BRANCH   5   6
ATOM      6  C   UNL     1       7.915  -3.675  26.267  0.00  0.00    +0.152 C 
BRANCH   6   7
ATOM      7  N   UNL     1       8.243  -5.097  26.164  0.00  0.00    -0.186 N 
ATOM      8  C   UNL     1       9.454  -5.497  25.629  0.00  0.00    +0.352 C 
ATOM      9  O   UNL     1      10.169  -4.830  24.886  0.00  0.00    -0.277 OA
BRANCH   7  10
ATOM     10  O   UNL     1       7.962  -5.787  27.372  0.00  0.00    -0.293 OA
ATOM     11  H   UNL     1       8.829  -5.769  27.817  0.00  0.00    +0.242 HD
ENDBRANCH   7  10
ENDBRANCH   6   7
ENDBRANCH   5   6
BRANCH   5  12
ATOM     12  C   UNL     1       6.163  -3.101  24.523  0.00  0.00    +0.014 C 
BRANCH  12  13
ATOM     13  C   UNL     1       5.895  -4.027  23.334  0.00  0.00    +0.001 C 
BRANCH  13  14
ATOM     14  C   UNL     1       7.200  -4.503  22.690  0.00  0.00    -0.003 C 
ATOM     15  C   UNL     1       6.947  -5.605  21.672  0.00  0.00    +0.004 C 
ENDBRANCH  13  14
ENDBRANCH  12  13
ENDBRANCH   5  12
ENDBRANCH   1   5
BRANCH   2  16
ATOM     16  C   UNL     1       8.507   0.660  23.927  0.00  0.00    +0.164 C 
BRANCH  16  17
ATOM     17  C   UNL     1       7.444   1.569  23.236  0.00  0.00    +0.236 C 
ATOM     18  N   UNL     1       7.312   2.895  23.653  0.00  0.00    -0.306 N 
ATOM     19  C   UNL     1       7.626   3.382  24.990  0.00  0.00    +0.131 C 
ATOM     20  C   UNL     1       6.512   3.807  22.847  0.00  0.00    +0.131 C 
ATOM     21  O   UNL     1       6.813   1.134  22.263  0.00  0.00    -0.274 OA
ENDBRANCH  16  17
BRANCH  16  22
ATOM     22  C   UNL     1       9.909   0.732  23.220  0.00  0.00    -0.011 C 
ATOM     23  C   UNL     1      10.167  -0.501  22.329  0.00  0.00    +0.013 C 
ATOM     24  C   UNL     1      11.035   0.805  24.276  0.00  0.00    +0.013 C 
ATOM     25  C   UNL     1      10.042   1.994  22.341  0.00  0.00    +0.013 C 
ENDBRANCH  16  22
ENDBRANCH   2  16
TORSDOF 10
ENDMDL
MODEL 6
REMARK VINA RESULT:      -5.5      1.809      2.585
REMARK  Name = 
REMARK  16 active torsions:
REMARK  status: ('A' for Active; 'I' for Inactive)
REMARK    1  A    between atoms: C_2  and  C_3
REMARK    2  A    between atoms: C_2  and  C_7
REMARK    3  A    between atoms: C_2  and  C_12
REMARK    4  A    between atoms: C_3  and  C_4
REMARK    5  A    between atoms: C_4  and  C_5
REMARK    6  A    between atoms: C_5  and  C_6
REMARK    7  A    between atoms: C_7  and  N_8
REMARK    8  A    between atoms: N_8  and  O_9
REMARK    9  A    between atoms: N_14  and  C_15
REMARK   10  A    between atoms: C_15  and  C_17
REMARK   11  A    between atoms: C_15  and  C_22
REMARK   12  A    between atoms: N_19  and  C_20
REMARK   13  A    between atoms: N_19  and  C_21
REMARK   14  A    between atoms: C_22  and  C_23
REMARK   15  A    between atoms: C_22  and  C_24
REMARK   16  A    between atoms: C_22  and  C_25
REMARK                            x       y       z     vdW  Elec       q    Type
REMARK                         _______ _______ _______ _____ _____    ______ ____
ROOT
ATOM      1  C   UNL     1       9.270  -2.243  24.060  0.00  0.00    +0.218 C 
ATOM      2  N   UNL     1       7.973  -2.621  24.321  0.00  0.00    -0.303 N 
ATOM      3  H   UNL     1       7.223  -1.941  24.276  0.00  0.00    +0.149 HD
ATOM      4  O   UNL     1      10.167  -3.065  23.865  0.00  0.00    -0.275 OA
ENDROOT
BRANCH   1   5
ATOM      5  C   UNL     1       9.540  -0.737  24.046  0.00  0.00    +0.095 C 
BRANCH   5   6
ATOM      6  C   UNL     1       8.553  -0.126  23.022  0.00  0.00    +0.152 C 
BRANCH   6   7
ATOM      7  N   UNL     1       9.181   0.384  21.804  0.00  0.00    -0.186 N 
ATOM      8  C   UNL     1       9.945   1.537  21.841  0.00  0.00    +0.352 C 
ATOM      9  O   UNL     1       9.884   2.413  22.700  0.00  0.00    -0.277 OA
BRANCH   7  10
ATOM     10  O   UNL     1       9.843  -0.647  21.086  0.00  0.00    -0.293 OA
ATOM     11  H   UNL     1       9.807  -1.385  21.721  0.00  0.00    +0.242 HD
ENDBRANCH   7  10
ENDBRANCH   6   7
ENDBRANCH   5   6
BRANCH   5  12
ATOM     12  C   UNL     1       9.341  -0.097  25.434  0.00  0.00    +0.014 C 
BRANCH  12  13
ATOM     13  C   UNL     1       8.212   0.936  25.498  0.00  0.00    +0.001 C 
BRANCH  13  14
ATOM     14  C   UNL     1       7.075   0.467  26.409  0.00  0.00    -0.003 C 
ATOM     15  C   UNL     1       5.811   0.174  25.615  0.00  0.00    +0.004 C 
ENDBRANCH  13  14
ENDBRANCH  12  13
ENDBRANCH   5  12
ENDBRANCH   1   5
BRANCH   2  16
ATOM     16  C   UNL     1       7.581  -4.036  24.504  0.00  0.00    +0.164 C 
BRANCH  16  17
ATOM     17  C   UNL     1       6.242  -4.290  23.745  0.00  0.00    +0.236 C 
ATOM     18  N   UNL     1       6.138  -5.401  22.906  0.00  0.00    -0.306 N 
ATOM     19  C   UNL     1       7.256  -6.030  22.216  0.00  0.00    +0.131 C 
ATOM     20  C   UNL     1       4.823  -5.779  22.404  0.00  0.00    +0.131 C 
ATOM     21  O   UNL     1       5.265  -3.567  23.980  0.00  0.00    -0.274 OA
ENDBRANCH  16  17
BRANCH  16  22
ATOM     22  C   UNL     1       7.485  -4.404  26.030  0.00  0.00    -0.011 C 
ATOM     23  C   UNL     1       6.552  -5.608  26.273  0.00  0.00    +0.013 C 
ATOM     24  C   UNL     1       6.937  -3.202  26.833  0.00  0.00    +0.013 C 
ATOM     25  C   UNL     1       8.868  -4.742  26.625  0.00  0.00    +0.013 C 
ENDBRANCH  16  22
ENDBRANCH   2  16
TORSDOF 10
ENDMDL
MODEL 7
REMARK VINA RESULT:      -5.4      2.108      6.646
REMARK  Name = 
REMARK  16 active torsions:
REMARK  status: ('A' for Active; 'I' for Inactive)
REMARK    1  A    between atoms: C_2  and  C_3
REMARK    2  A    between atoms: C_2  and  C_7
REMARK    3  A    between atoms: C_2  and  C_12
REMARK    4  A    between atoms: C_3  and  C_4
REMARK    5  A    between atoms: C_4  and  C_5
REMARK    6  A    between atoms: C_5  and  C_6
REMARK    7  A    between atoms: C_7  and  N_8
REMARK    8  A    between atoms: N_8  and  O_9
REMARK    9  A    between atoms: N_14  and  C_15
REMARK   10  A    between atoms: C_15  and  C_17
REMARK   11  A    between atoms: C_15  and  C_22
REMARK   12  A    between atoms: N_19  and  C_20
REMARK   13  A    between atoms: N_19  and  C_21
REMARK   14  A    between atoms: C_22  and  C_23
REMARK   15  A    between atoms: C_22  and  C_24
REMARK   16  A    between atoms: C_22  and  C_25
REMARK                            x       y       z     vdW  Elec       q    Type
REMARK                         _______ _______ _______ _____ _____    ______ ____
ROOT
ATOM      1  C   UNL     1       5.930  -2.009  24.125  0.00  0.00    +0.218 C 
ATOM      2  N   UNL     1       7.083  -1.438  23.638  0.00  0.00    -0.303 N 
ATOM      3  H   UNL     1       7.558  -1.845  22.840  0.00  0.00    +0.149 HD
ATOM      4  O   UNL     1       5.195  -1.424  24.923  0.00  0.00    -0.275 OA
ENDROOT
BRANCH   1   5
ATOM      5  C   UNL     1       5.623  -3.425  23.634  0.00  0.00    +0.095 C 
BRANCH   5   6
ATOM      6  C   UNL     1       6.863  -3.887  22.832  0.00  0.00    +0.152 C 
BRANCH   6   7
ATOM      7  N   UNL     1       6.563  -4.416  21.502  0.00  0.00    -0.186 N 
ATOM      8  C   UNL     1       6.363  -5.773  21.319  0.00  0.00    +0.352 C 
ATOM      9  O   UNL     1       6.756  -6.666  22.064  0.00  0.00    -0.277 OA
BRANCH   7  10
ATOM     10  O   UNL     1       5.554  -3.657  20.852  0.00  0.00    -0.293 OA
ATOM     11  H   UNL     1       4.746  -3.998  21.275  0.00  0.00    +0.242 HD
ENDBRANCH   7  10
ENDBRANCH   6   7
ENDBRANCH   5   6
BRANCH   5  12
ATOM     12  C   UNL     1       5.340  -4.396  24.797  0.00  0.00    +0.014 C 
BRANCH  12  13
ATOM     13  C   UNL     1       6.579  -5.121  25.329  0.00  0.00    +0.001 C 
BRANCH  13  14
ATOM     14  C   UNL     1       7.176  -4.397  26.538  0.00  0.00    -0.003 C 
ATOM     15  C   UNL     1       8.693  -4.322  26.448  0.00  0.00    +0.004 C 
ENDBRANCH  13  14
ENDBRANCH  12  13
ENDBRANCH   5  12
ENDBRANCH   1   5
BRANCH   2  16
ATOM     16  C   UNL     1       7.589  -0.133  24.121  0.00  0.00    +0.164 C 
BRANCH  16  17
ATOM     17  C   UNL     1       7.652   0.859  22.919  0.00  0.00    +0.236 C 
ATOM     18  N   UNL     1       6.975   2.077  23.009  0.00  0.00    -0.306 N 
ATOM     19  C   UNL     1       5.785   2.311  23.818  0.00  0.00    +0.131 C 
ATOM     20  C   UNL     1       7.241   3.102  22.008  0.00  0.00    +0.131 C 
ATOM     21  O   UNL     1       8.383   0.599  21.955  0.00  0.00    -0.274 OA
ENDBRANCH  16  17
BRANCH  16  22
ATOM     22  C   UNL     1       8.979  -0.296  24.838  0.00  0.00    -0.011 C 
ATOM     23  C   UNL     1       9.834   0.983  24.730  0.00  0.00    +0.013 C 
ATOM     24  C   UNL     1       9.772  -1.460  24.203  0.00  0.00    +0.013 C 
ATOM     25  C   UNL     1       8.814  -0.636  26.335  0.00  0.00    +0.013 C 
ENDBRANCH  16  22
ENDBRANCH   2  16
TORSDOF 10
ENDMDL
MODEL 8
REMARK VINA RESULT:      -5.4      1.398      2.141
REMARK  Name = 
REMARK  16 active torsions:
REMARK  status: ('A' for Active; 'I' for Inactive)
REMARK    1  A    between atoms: C_2  and  C_3
REMARK    2  A    between atoms: C_2  and  C_7
REMARK    3  A    between atoms: C_2  and  C_12
REMARK    4  A    between atoms: C_3  and  C_4
REMARK    5  A    between atoms: C_4  and  C_5
REMARK    6  A    between atoms: C_5  and  C_6
REMARK    7  A    between atoms: C_7  and  N_8
REMARK    8  A    between atoms: N_8  and  O_9
REMARK    9  A    between atoms: N_14  and  C_15
REMARK   10  A    between atoms: C_15  and  C_17
REMARK   11  A    between atoms: C_15  and  C_22
REMARK   12  A    between atoms: N_19  and  C_20
REMARK   13  A    between atoms: N_19  and  C_21
REMARK   14  A    between atoms: C_22  and  C_23
REMARK   15  A    between atoms: C_22  and  C_24
REMARK   16  A    between atoms: C_22  and  C_25
REMARK                            x       y       z     vdW  Elec       q    Type
REMARK                         _______ _______ _______ _____ _____    ______ ____
ROOT
ATOM      1  C   UNL     1       8.924  -1.896  23.289  0.00  0.00    +0.218 C 
ATOM      2  N   UNL     1       7.869  -2.514  23.920  0.00  0.00    -0.303 N 
ATOM      3  H   UNL     1       7.045  -1.983  24.179  0.00  0.00    +0.149 HD
ATOM      4  O   UNL     1       9.827  -2.534  22.744  0.00  0.00    -0.275 OA
ENDROOT
BRANCH   1   5
ATOM      5  C   UNL     1       8.921  -0.367  23.320  0.00  0.00    +0.095 C 
BRANCH   5   6
ATOM      6  C   UNL     1       8.852   0.039  24.811  0.00  0.00    +0.152 C 
BRANCH   6   7
ATOM      7  N   UNL     1       7.761   0.958  25.139  0.00  0.00    -0.186 N 
ATOM      8  C   UNL     1       6.557   0.470  25.616  0.00  0.00    +0.352 C 
ATOM      9  O   UNL     1       6.135  -0.673  25.469  0.00  0.00    -0.277 OA
BRANCH   7  10
ATOM     10  O   UNL     1       8.217   2.053  25.919  0.00  0.00    -0.293 OA
ATOM     11  H   UNL     1       9.002   2.340  25.418  0.00  0.00    +0.242 HD
ENDBRANCH   7  10
ENDBRANCH   6   7
ENDBRANCH   5   6
BRANCH   5  12
ATOM     12  C   UNL     1      10.178   0.231  22.656  0.00  0.00    +0.014 C 
BRANCH  12  13
ATOM     13  C   UNL     1       9.950   1.583  21.974  0.00  0.00    +0.001 C 
BRANCH  13  14
ATOM     14  C   UNL     1       8.495   1.744  21.525  0.00  0.00    -0.003 C 
ATOM     15  C   UNL     1       7.859   2.982  22.138  0.00  0.00    +0.004 C 
ENDBRANCH  13  14
ENDBRANCH  12  13
ENDBRANCH   5  12
ENDBRANCH   1   5
BRANCH   2  16
ATOM     16  C   UNL     1       7.799  -3.982  24.096  0.00  0.00    +0.164 C 
BRANCH  16  17
ATOM     17  C   UNL     1       6.329  -4.448  23.859  0.00  0.00    +0.236 C 
ATOM     18  N   UNL     1       6.095  -5.591  23.091  0.00  0.00    -0.306 N 
ATOM     19  C   UNL     1       6.975  -6.080  22.037  0.00  0.00    +0.131 C 
ATOM     20  C   UNL     1       4.758  -6.168  23.083  0.00  0.00    +0.131 C 
ATOM     21  O   UNL     1       5.406  -3.863  24.439  0.00  0.00    -0.274 OA
ENDBRANCH  16  17
BRANCH  16  22
ATOM     22  C   UNL     1       8.343  -4.410  25.508  0.00  0.00    -0.011 C 
ATOM     23  C   UNL     1       7.449  -5.479  26.169  0.00  0.00    +0.013 C 
ATOM     24  C   UNL     1       8.402  -3.185  26.448  0.00  0.00    +0.013 C 
ATOM     25  C   UNL     1       9.778  -4.972  25.421  0.00  0.00    +0.013 C 
ENDBRANCH  16  22
ENDBRANCH   2  16
TORSDOF 10
ENDMDL
MODEL 9
REMARK VINA RESULT:      -5.3      2.259      6.624
REMARK  Name = 
REMARK  16 active torsions:
REMARK  status: ('A' for Active; 'I' for Inactive)
REMARK    1  A    between atoms: C_2  and  C_3
REMARK    2  A    between atoms: C_2  and  C_7
REMARK    3  A    between atoms: C_2  and  C_12
REMARK    4  A    between atoms: C_3  and  C_4
REMARK    5  A    between atoms: C_4  and  C_5
REMARK    6  A    between atoms: C_5  and  C_6
REMARK    7  A    between atoms: C_7  and  N_8
REMARK    8  A    between atoms: N_8  and  O_9
REMARK    9  A    between atoms: N_14  and  C_15
REMARK   10  A    between atoms: C_15  and  C_17
REMARK   11  A    between atoms: C_15  and  C_22
REMARK   12  A    between atoms: N_19  and  C_20
REMARK   13  A    between atoms: N_19  and  C_21
REMARK   14  A    between atoms: C_22  and  C_23
REMARK   15  A    between atoms: C_22  and  C_24
REMARK   16  A    between atoms: C_22  and  C_25
REMARK                            x       y       z     vdW  Elec       q    Type
REMARK                         _______ _______ _______ _____ _____    ______ ____
ROOT
ATOM      1  C   UNL     1       8.332  -2.706  23.619  0.00  0.00    +0.218 C 
ATOM      2  N   UNL     1       8.211  -1.621  24.456  0.00  0.00    -0.303 N 
ATOM      3  H   UNL     1       8.348  -1.727  25.455  0.00  0.00    +0.149 HD
ATOM      4  O   UNL     1       8.414  -2.585  22.395  0.00  0.00    -0.275 OA
ENDROOT
BRANCH   1   5
ATOM      5  C   UNL     1       8.337  -4.078  24.296  0.00  0.00    +0.095 C 
BRANCH   5   6
ATOM      6  C   UNL     1       7.507  -3.928  25.593  0.00  0.00    +0.152 C 
BRANCH   6   7
ATOM      7  N   UNL     1       8.061  -4.631  26.752  0.00  0.00    -0.186 N 
ATOM      8  C   UNL     1       7.418  -5.742  27.266  0.00  0.00    +0.352 C 
ATOM      9  O   UNL     1       6.234  -6.028  27.109  0.00  0.00    -0.277 OA
BRANCH   7  10
ATOM     10  O   UNL     1       9.454  -4.864  26.605  0.00  0.00    -0.293 OA
ATOM     11  H   UNL     1       9.498  -5.836  26.658  0.00  0.00    +0.242 HD
ENDBRANCH   7  10
ENDBRANCH   6   7
ENDBRANCH   5   6
BRANCH   5  12
ATOM     12  C   UNL     1       7.734  -5.174  23.395  0.00  0.00    +0.014 C 
BRANCH  12  13
ATOM     13  C   UNL     1       6.239  -5.421  23.615  0.00  0.00    +0.001 C 
BRANCH  13  14
ATOM     14  C   UNL     1       5.484  -5.505  22.286  0.00  0.00    -0.003 C 
ATOM     15  C   UNL     1       6.435  -5.729  21.120  0.00  0.00    +0.004 C 
ENDBRANCH  13  14
ENDBRANCH  12  13
ENDBRANCH   5  12
ENDBRANCH   1   5
BRANCH   2  16
ATOM     16  C   UNL     1       8.053  -0.240  23.948  0.00  0.00    +0.164 C 
BRANCH  16  17
ATOM     17  C   UNL     1       9.398   0.526  24.143  0.00  0.00    +0.236 C 
ATOM     18  N   UNL     1       9.723   1.559  23.262  0.00  0.00    -0.306 N 
ATOM     19  C   UNL     1       9.263   1.653  21.882  0.00  0.00    +0.131 C 
ATOM     20  C   UNL     1      10.840   2.435  23.591  0.00  0.00    +0.131 C 
ATOM     21  O   UNL     1      10.100   0.278  25.131  0.00  0.00    -0.274 OA
ENDBRANCH  16  17
BRANCH  16  22
ATOM     22  C   UNL     1       6.844   0.485  24.646  0.00  0.00    -0.011 C 
ATOM     23  C   UNL     1       5.757  -0.514  25.094  0.00  0.00    +0.013 C 
ATOM     24  C   UNL     1       6.196   1.495  23.673  0.00  0.00    +0.013 C 
ATOM     25  C   UNL     1       7.296   1.287  25.884  0.00  0.00    +0.013 C 
ENDBRANCH  16  22
ENDBRANCH   2  16
TORSDOF 10
ENDMDL
