MODEL 1
REMARK VINA RESULT:      -6.2      0.000      0.000
REMARK  Name = 
REMARK  11 active torsions:
REMARK  status: ('A' for Active; 'I' for Inactive)
REMARK    1  A    between atoms: C_2  and  N_27
REMARK    2  A    between atoms: C_7  and  O_8
REMARK    3  A    between atoms: O_8  and  C_9
REMARK    4  A    between atoms: C_10  and  O_11
REMARK    5  A    between atoms: O_11  and  C_12
REMARK    6  A    between atoms: C_13  and  O_14
REMARK    7  A    between atoms: O_14  and  C_15
REMARK    8  A    between atoms: C_20  and  O_21
REMARK    9  A    between atoms: O_21  and  C_22
REMARK   10  A    between atoms: C_28  and  C_30
REMARK   11  A    between atoms: C_30  and  S_31
REMARK                            x       y       z     vdW  Elec       q    Type
REMARK                         _______ _______ _______ _____ _____    ______ ____
ROOT
ATOM      1  C   UNL     1       6.392  -0.041  24.645  0.00  0.00    +0.104 C 
ATOM      2  C   UNL     1       7.288  -1.002  23.830  0.00  0.00    -0.016 A 
ATOM      3  C   UNL     1       7.633  -2.383  24.412  0.00  0.00    -0.009 A 
ATOM      4  C   UNL     1       8.879  -2.925  24.332  0.00  0.00    +0.012 A 
ATOM      5  C   UNL     1       9.993  -2.399  23.555  0.00  0.00    +0.050 A 
ATOM      6  C   UNL     1      10.232  -1.073  23.508  0.00  0.00    +0.167 A 
ATOM      7  C   UNL     1       9.356  -0.635  22.370  0.00  0.00    +0.221 A 
ATOM      8  O   UNL     1       9.760  -0.370  21.248  0.00  0.00    -0.284 OA
ATOM      9  C   UNL     1       6.715  -3.267  25.274  0.00  0.00    +0.031 A 
ATOM     10  C   UNL     1       6.367  -4.636  25.028  0.00  0.00    +0.173 A 
ATOM     11  C   UNL     1       5.749  -5.430  26.050  0.00  0.00    +0.204 A 
ATOM     12  C   UNL     1       5.497  -4.872  27.322  0.00  0.00    +0.165 A 
ATOM     13  C   UNL     1       5.776  -3.533  27.534  0.00  0.00    +0.054 A 
ATOM     14  C   UNL     1       6.323  -2.736  26.521  0.00  0.00    -0.032 A 
ATOM     15  C   UNL     1       6.340  -1.264  26.783  0.00  0.00    +0.038 C 
ATOM     16  C   UNL     1       7.957  -0.366  22.823  0.00  0.00    +0.060 A 
ATOM     17  C   UNL     1       5.476  -0.631  25.702  0.00  0.00    +0.032 C 
ENDROOT
BRANCH   1  18
ATOM     18  N   UNL     1       5.662   0.931  23.827  0.00  0.00    -0.308 N 
ATOM     19  H   UNL     1       5.085   0.627  23.054  0.00  0.00    +0.149 HD
ATOM     20  C   UNL     1       5.824   2.292  24.074  0.00  0.00    +0.223 C 
ATOM     21  O   UNL     1       6.482   2.713  25.025  0.00  0.00    -0.275 OA
BRANCH  20  22
ATOM     22  C   UNL     1       5.105   3.235  23.142  0.00  0.00    +0.161 C 
BRANCH  22  23
ATOM     23  S   UNL     1       5.970   4.816  22.957  0.00  0.00    -0.169 S 
ATOM     24  H   UNL     1       5.180   5.300  21.985  0.00  0.00    +0.102 HD
ENDBRANCH  22  23
ENDBRANCH  20  22
ENDBRANCH   1  18
BRANCH   6  25
ATOM     25  O   UNL     1      10.209  -0.190  24.573  0.00  0.00    -0.491 OA
ATOM     26  C   UNL     1      10.924   1.024  24.411  0.00  0.00    +0.277 C 
ENDBRANCH   6  25
BRANCH  12  27
ATOM     27  O   UNL     1       4.933  -5.679  28.283  0.00  0.00    -0.491 OA
ATOM     28  C   UNL     1       5.723  -5.983  29.433  0.00  0.00    +0.277 C 
ENDBRANCH  12  27
BRANCH  11  29
ATOM     29  O   UNL     1       5.375  -6.752  26.000  0.00  0.00    -0.488 OA
ATOM     30  C   UNL     1       4.191  -7.166  25.351  0.00  0.00    +0.277 C 
ENDBRANCH  11  29
BRANCH  10  31
ATOM     31  O   UNL     1       6.713  -5.284  23.860  0.00  0.00    -0.491 OA
ATOM     32  C   UNL     1       5.810  -5.097  22.772  0.00  0.00    +0.277 C 
ENDBRANCH  10  31
TORSDOF 7
ENDMDL
MODEL 2
REMARK VINA RESULT:      -6.0      3.040      7.132
REMARK  Name = 
REMARK  11 active torsions:
REMARK  status: ('A' for Active; 'I' for Inactive)
REMARK    1  A    between atoms: C_2  and  N_27
REMARK    2  A    between atoms: C_7  and  O_8
REMARK    3  A    between atoms: O_8  and  C_9
REMARK    4  A    between atoms: C_10  and  O_11
REMARK    5  A    between atoms: O_11  and  C_12
REMARK    6  A    between atoms: C_13  and  O_14
REMARK    7  A    between atoms: O_14  and  C_15
REMARK    8  A    between atoms: C_20  and  O_21
REMARK    9  A    between atoms: O_21  and  C_22
REMARK   10  A    between atoms: C_28  and  C_30
REMARK   11  A    between atoms: C_30  and  S_31
REMARK                            x       y       z     vdW  Elec       q    Type
REMARK                         _______ _______ _______ _____ _____    ______ ____
ROOT
ATOM      1  C   UNL     1       6.296  -3.401  25.918  0.00  0.00    +0.104 C 
ATOM      2  C   UNL     1       6.777  -3.665  24.473  0.00  0.00    -0.016 A 
ATOM      3  C   UNL     1       6.863  -2.490  23.483  0.00  0.00    -0.009 A 
ATOM      4  C   UNL     1       6.456  -2.588  22.188  0.00  0.00    +0.012 A 
ATOM      5  C   UNL     1       6.068  -3.813  21.503  0.00  0.00    +0.050 A 
ATOM      6  C   UNL     1       5.319  -4.742  22.130  0.00  0.00    +0.167 A 
ATOM      7  C   UNL     1       6.362  -5.572  22.821  0.00  0.00    +0.221 A 
ATOM      8  O   UNL     1       6.737  -6.671  22.439  0.00  0.00    -0.284 OA
ATOM      9  C   UNL     1       7.255  -1.041  23.817  0.00  0.00    +0.031 A 
ATOM     10  C   UNL     1       8.280  -0.263  23.184  0.00  0.00    +0.173 A 
ATOM     11  C   UNL     1       8.351   1.155  23.380  0.00  0.00    +0.204 A 
ATOM     12  C   UNL     1       7.392   1.806  24.187  0.00  0.00    +0.165 A 
ATOM     13  C   UNL     1       6.443   1.043  24.847  0.00  0.00    +0.054 A 
ATOM     14  C   UNL     1       6.407  -0.350  24.708  0.00  0.00    -0.032 A 
ATOM     15  C   UNL     1       5.514  -1.079  25.659  0.00  0.00    +0.038 C 
ATOM     16  C   UNL     1       6.744  -4.989  24.144  0.00  0.00    +0.060 A 
ATOM     17  C   UNL     1       6.416  -1.993  26.473  0.00  0.00    +0.032 C 
ENDROOT
BRANCH   1  18
ATOM     18  N   UNL     1       6.785  -4.375  26.897  0.00  0.00    -0.308 N 
ATOM     19  H   UNL     1       7.766  -4.618  26.938  0.00  0.00    +0.149 HD
ATOM     20  C   UNL     1       5.876  -5.026  27.727  0.00  0.00    +0.223 C 
ATOM     21  O   UNL     1       4.680  -4.740  27.743  0.00  0.00    -0.275 OA
BRANCH  20  22
ATOM     22  C   UNL     1       6.443  -6.075  28.653  0.00  0.00    +0.161 C 
BRANCH  22  23
ATOM     23  S   UNL     1       5.693  -6.017  30.301  0.00  0.00    -0.169 S 
ATOM     24  H   UNL     1       4.427  -5.864  29.877  0.00  0.00    +0.102 HD
ENDBRANCH  22  23
ENDBRANCH  20  22
ENDBRANCH   1  18
BRANCH   6  25
ATOM     25  O   UNL     1       4.206  -4.514  22.919  0.00  0.00    -0.491 OA
ATOM     26  C   UNL     1       3.334  -5.611  23.126  0.00  0.00    +0.277 C 
ENDBRANCH   6  25
BRANCH  12  27
ATOM     27  O   UNL     1       7.477   3.172  24.321  0.00  0.00    -0.491 OA
ATOM     28  C   UNL     1       7.879   3.686  25.590  0.00  0.00    +0.277 C 
ENDBRANCH  12  27
BRANCH  11  29
ATOM     29  O   UNL     1       9.240   2.053  22.838  0.00  0.00    -0.488 OA
ATOM     30  C   UNL     1      10.546   2.209  23.350  0.00  0.00    +0.277 C 
ENDBRANCH  11  29
BRANCH  10  31
ATOM     31  O   UNL     1       9.161  -0.810  22.272  0.00  0.00    -0.491 OA
ATOM     32  C   UNL     1      10.260  -1.518  22.842  0.00  0.00    +0.277 C 
ENDBRANCH  10  31
TORSDOF 7
ENDMDL
MODEL 3
REMARK VINA RESULT:      -6.0      1.345      1.459
REMARK  Name = 
REMARK  11 active torsions:
REMARK  status: ('A' for Active; 'I' for Inactive)
REMARK    1  A    between atoms: C_2  and  N_27
REMARK    2  A    between atoms: C_7  and  O_8
REMARK    3  A    between atoms: O_8  and  C_9
REMARK    4  A    between atoms: C_10  and  O_11
REMARK    5  A    between atoms: O_11  and  C_12
REMARK    6  A    between atoms: C_13  and  O_14
REMARK    7  A    between atoms: O_14  and  C_15
REMARK    8  A    between atoms: C_20  and  O_21
REMARK    9  A    between atoms: O_21  and  C_22
REMARK   10  A    between atoms: C_28  and  C_30
REMARK   11  A    between atoms: C_30  and  S_31
REMARK                            x       y       z     vdW  Elec       q    Type
REMARK                         _______ _______ _______ _____ _____    ______ ____
ROOT
ATOM      1  C   UNL     1       6.597  -0.152  25.261  0.00  0.00    +0.104 C 
ATOM      2  C   UNL     1       7.127  -0.701  23.917  0.00  0.00    -0.016 A 
ATOM      3  C   UNL     1       7.421  -2.205  23.783  0.00  0.00    -0.009 A 
ATOM      4  C   UNL     1       8.526  -2.685  23.148  0.00  0.00    +0.012 A 
ATOM      5  C   UNL     1       9.469  -1.901  22.362  0.00  0.00    +0.050 A 
ATOM      6  C   UNL     1       9.862  -0.680  22.778  0.00  0.00    +0.167 A 
ATOM      7  C   UNL     1       8.794   0.206  22.202  0.00  0.00    +0.221 A 
ATOM      8  O   UNL     1       8.937   0.907  21.213  0.00  0.00    -0.284 OA
ATOM      9  C   UNL     1       6.640  -3.351  24.446  0.00  0.00    +0.031 A 
ATOM     10  C   UNL     1       6.064  -4.488  23.788  0.00  0.00    +0.173 A 
ATOM     11  C   UNL     1       5.622  -5.625  24.542  0.00  0.00    +0.204 A 
ATOM     12  C   UNL     1       5.770  -5.643  25.946  0.00  0.00    +0.165 A 
ATOM     13  C   UNL     1       6.268  -4.518  26.581  0.00  0.00    +0.054 A 
ATOM     14  C   UNL     1       6.645  -3.381  25.857  0.00  0.00    -0.032 A 
ATOM     15  C   UNL     1       6.920  -2.153  26.662  0.00  0.00    +0.038 C 
ATOM     16  C   UNL     1       7.601   0.285  23.099  0.00  0.00    +0.060 A 
ATOM     17  C   UNL     1       5.905  -1.113  26.211  0.00  0.00    +0.032 C 
ENDROOT
BRANCH   1  18
ATOM     18  N   UNL     1       5.821   1.084  25.136  0.00  0.00    -0.308 N 
ATOM     19  H   UNL     1       5.033   1.138  24.504  0.00  0.00    +0.149 HD
ATOM     20  C   UNL     1       6.220   2.217  25.841  0.00  0.00    +0.223 C 
ATOM     21  O   UNL     1       7.145   2.194  26.651  0.00  0.00    -0.275 OA
BRANCH  20  22
ATOM     22  C   UNL     1       5.420   3.475  25.601  0.00  0.00    +0.161 C 
BRANCH  22  23
ATOM     23  S   UNL     1       4.040   3.206  24.459  0.00  0.00    -0.169 S 
ATOM     24  H   UNL     1       4.153   1.869  24.409  0.00  0.00    +0.102 HD
ENDBRANCH  22  23
ENDBRANCH  20  22
ENDBRANCH   1  18
BRANCH   6  25
ATOM     25  O   UNL     1      10.222  -0.320  24.064  0.00  0.00    -0.491 OA
ATOM     26  C   UNL     1      10.955   0.885  24.208  0.00  0.00    +0.277 C 
ENDBRANCH   6  25
BRANCH  12  27
ATOM     27  O   UNL     1       5.364  -6.767  26.626  0.00  0.00    -0.491 OA
ATOM     28  C   UNL     1       5.149  -6.644  28.032  0.00  0.00    +0.277 C 
ENDBRANCH  12  27
BRANCH  11  29
ATOM     29  O   UNL     1       5.076  -6.800  24.081  0.00  0.00    -0.488 OA
ATOM     30  C   UNL     1       3.707  -6.907  23.757  0.00  0.00    +0.277 C 
ENDBRANCH  11  29
BRANCH  10  31
ATOM     31  O   UNL     1       6.019  -4.597  22.413  0.00  0.00    -0.491 OA
ATOM     32  C   UNL     1       6.938  -5.531  21.849  0.00  0.00    +0.277 C 
ENDBRANCH  10  31
TORSDOF 7
ENDMDL
MODEL 4
REMARK VINA RESULT:      -5.8      3.139      7.760
REMARK  Name = 
REMARK  11 active torsions:
REMARK  status: ('A' for Active; 'I' for Inactive)
REMARK    1  A    between atoms: C_2  and  N_27
REMARK    2  A    between atoms: C_7  and  O_8
REMARK    3  A    between atoms: O_8  and  C_9
REMARK    4  A    between atoms: C_10  and  O_11
REMARK    5  A    between atoms: O_11  and  C_12
REMARK    6  A    between atoms: C_13  and  O_14
REMARK    7  A    between atoms: O_14  and  C_15
REMARK    8  A    between atoms: C_20  and  O_21
REMARK    9  A    between atoms: O_21  and  C_22
REMARK   10  A    between atoms: C_28  and  C_30
REMARK   11  A    between atoms: C_30  and  S_31
REMARK                            x       y       z     vdW  Elec       q    Type
REMARK                         _______ _______ _______ _____ _____    ______ ____
ROOT
ATOM      1  C   UNL     1       7.769  -1.855  23.417  0.00  0.00    +0.104 C 
ATOM      2  C   UNL     1       6.543  -1.195  24.089  0.00  0.00    -0.016 A 
ATOM      3  C   UNL     1       6.693   0.197  24.725  0.00  0.00    -0.009 A 
ATOM      4  C   UNL     1       6.137   0.523  25.924  0.00  0.00    +0.012 A 
ATOM      5  C   UNL     1       5.194  -0.291  26.678  0.00  0.00    +0.050 A 
ATOM      6  C   UNL     1       5.359  -1.626  26.769  0.00  0.00    +0.167 A 
ATOM      7  C   UNL     1       4.649  -2.115  25.540  0.00  0.00    +0.221 A 
ATOM      8  O   UNL     1       3.540  -2.627  25.539  0.00  0.00    -0.284 OA
ATOM      9  C   UNL     1       7.582   1.344  24.214  0.00  0.00    +0.031 A 
ATOM     10  C   UNL     1       7.168   2.687  23.931  0.00  0.00    +0.173 A 
ATOM     11  C   UNL     1       8.135   3.729  23.746  0.00  0.00    +0.204 A 
ATOM     12  C   UNL     1       9.513   3.443  23.863  0.00  0.00    +0.165 A 
ATOM     13  C   UNL     1       9.910   2.133  24.074  0.00  0.00    +0.054 A 
ATOM     14  C   UNL     1       8.972   1.101  24.195  0.00  0.00    -0.032 A 
ATOM     15  C   UNL     1       9.520  -0.289  24.161  0.00  0.00    +0.038 C 
ATOM     16  C   UNL     1       5.541  -2.088  24.341  0.00  0.00    +0.060 A 
ATOM     17  C   UNL     1       8.902  -0.961  22.944  0.00  0.00    +0.032 C 
ENDROOT
BRANCH   1  18
ATOM     18  N   UNL     1       7.428  -2.832  22.379  0.00  0.00    -0.308 N 
ATOM     19  H   UNL     1       7.024  -2.533  21.502  0.00  0.00    +0.149 HD
ATOM     20  C   UNL     1       7.593  -4.190  22.637  0.00  0.00    +0.223 C 
ATOM     21  O   UNL     1       8.115  -4.603  23.672  0.00  0.00    -0.275 OA
BRANCH  20  22
ATOM     22  C   UNL     1       7.145  -5.139  21.553  0.00  0.00    +0.161 C 
BRANCH  22  23
ATOM     23  S   UNL     1       5.607  -5.998  21.981  0.00  0.00    -0.169 S 
ATOM     24  H   UNL     1       5.385  -5.332  23.126  0.00  0.00    +0.102 HD
ENDBRANCH  22  23
ENDBRANCH  20  22
ENDBRANCH   1  18
BRANCH   6  25
ATOM     25  O   UNL     1       6.543  -2.300  27.009  0.00  0.00    -0.491 OA
ATOM     26  C   UNL     1       6.459  -3.707  27.155  0.00  0.00    +0.277 C 
ENDBRANCH   6  25
BRANCH  12  27
ATOM     27  O   UNL     1      10.406   4.478  23.712  0.00  0.00    -0.491 OA
ATOM     28  C   UNL     1      11.737   4.148  23.318  0.00  0.00    +0.277 C 
ENDBRANCH  12  27
BRANCH  11  29
ATOM     29  O   UNL     1       7.922   5.064  23.495  0.00  0.00    -0.488 OA
ATOM     30  C   UNL     1       7.565   5.533  22.213  0.00  0.00    +0.277 C 
ENDBRANCH  11  29
BRANCH  10  31
ATOM     31  O   UNL     1       5.841   3.065  23.942  0.00  0.00    -0.491 OA
ATOM     32  C   UNL     1       5.162   2.935  22.695  0.00  0.00    +0.277 C 
ENDBRANCH  10  31
TORSDOF 7
ENDMDL
MODEL 5
REMARK VINA RESULT:      -5.7      1.650      1.865
REMARK  Name = 
REMARK  11 active torsions:
REMARK  status: ('A' for Active; 'I' for Inactive)
REMARK    1  A    between atoms: C_2  and  N_27
REMARK    2  A    between atoms: C_7  and  O_8
REMARK    3  A    between atoms: O_8  and  C_9
REMARK    4  A    between atoms: C_10  and  O_11
REMARK    5  A    between atoms: O_11  and  C_12
REMARK    6  A    between atoms: C_13  and  O_14
REMARK    7  A    between atoms: O_14  and  C_15
REMARK    8  A    between atoms: C_20  and  O_21
REMARK    9  A    between atoms: O_21  and  C_22
REMARK   10  A    between atoms: C_28  and  C_30
REMARK   11  A    between atoms: C_30  and  S_31
REMARK                            x       y       z     vdW  Elec       q    Type
REMARK                         _______ _______ _______ _____ _____    ______ ____
ROOT
ATOM      1  C   UNL     1       7.222   0.683  25.325  0.00  0.00    +0.104 C 
ATOM      2  C   UNL     1       7.480   0.149  23.898  0.00  0.00    -0.016 A 
ATOM      3  C   UNL     1       7.939  -1.308  23.712  0.00  0.00    -0.009 A 
ATOM      4  C   UNL     1       8.912  -1.665  22.828  0.00  0.00    +0.012 A 
ATOM      5  C   UNL     1       9.516  -0.800  21.825  0.00  0.00    +0.050 A 
ATOM      6  C   UNL     1       9.823   0.480  22.117  0.00  0.00    +0.167 A 
ATOM      7  C   UNL     1       8.535   1.189  21.814  0.00  0.00    +0.221 A 
ATOM      8  O   UNL     1       8.333   1.858  20.812  0.00  0.00    -0.284 OA
ATOM      9  C   UNL     1       7.511  -2.516  24.560  0.00  0.00    +0.031 A 
ATOM     10  C   UNL     1       6.957  -3.748  24.079  0.00  0.00    +0.173 A 
ATOM     11  C   UNL     1       6.875  -4.898  24.931  0.00  0.00    +0.204 A 
ATOM     12  C   UNL     1       7.363  -4.833  26.255  0.00  0.00    +0.165 A 
ATOM     13  C   UNL     1       7.838  -3.624  26.735  0.00  0.00    +0.054 A 
ATOM     14  C   UNL     1       7.864  -2.482  25.926  0.00  0.00    -0.032 A 
ATOM     15  C   UNL     1       8.153  -1.192  26.625  0.00  0.00    +0.038 C 
ATOM     16  C   UNL     1       7.598   1.151  22.977  0.00  0.00    +0.060 A 
ATOM     17  C   UNL     1       6.924  -0.317  26.428  0.00  0.00    +0.032 C 
ENDROOT
BRANCH   1  18
ATOM     18  N   UNL     1       6.274   1.798  25.383  0.00  0.00    -0.308 N 
ATOM     19  H   UNL     1       5.297   1.657  25.165  0.00  0.00    +0.149 HD
ATOM     20  C   UNL     1       6.741   3.079  25.669  0.00  0.00    +0.223 C 
ATOM     21  O   UNL     1       7.911   3.297  25.979  0.00  0.00    -0.275 OA
BRANCH  20  22
ATOM     22  C   UNL     1       5.720   4.190  25.632  0.00  0.00    +0.161 C 
BRANCH  22  23
ATOM     23  S   UNL     1       5.812   5.159  24.104  0.00  0.00    -0.169 S 
ATOM     24  H   UNL     1       4.485   5.258  23.917  0.00  0.00    +0.102 HD
ENDBRANCH  22  23
ENDBRANCH  20  22
ENDBRANCH   1  18
BRANCH   6  25
ATOM     25  O   UNL     1      10.433   0.942  23.269  0.00  0.00    -0.491 OA
ATOM     26  C   UNL     1      10.652   2.340  23.359  0.00  0.00    +0.277 C 
ENDBRANCH   6  25
BRANCH  12  27
ATOM     27  O   UNL     1       7.295  -5.969  27.027  0.00  0.00    -0.491 OA
ATOM     28  C   UNL     1       6.444  -5.937  28.173  0.00  0.00    +0.277 C 
ENDBRANCH  12  27
BRANCH  11  29
ATOM     29  O   UNL     1       6.403  -6.155  24.634  0.00  0.00    -0.488 OA
ATOM     30  C   UNL     1       5.021  -6.438  24.586  0.00  0.00    +0.277 C 
ENDBRANCH  11  29
BRANCH  10  31
ATOM     31  O   UNL     1       6.594  -3.924  22.759  0.00  0.00    -0.491 OA
ATOM     32  C   UNL     1       5.318  -3.393  22.405  0.00  0.00    +0.277 C 
ENDBRANCH  10  31
TORSDOF 7
ENDMDL
MODEL 6
REMARK VINA RESULT:      -5.7      3.517      7.238
REMARK  Name = 
REMARK  11 active torsions:
REMARK  status: ('A' for Active; 'I' for Inactive)
REMARK    1  A    between atoms: C_2  and  N_27
REMARK    2  A    between atoms: C_7  and  O_8
REMARK    3  A    between atoms: O_8  and  C_9
REMARK    4  A    between atoms: C_10  and  O_11
REMARK    5  A    between atoms: O_11  and  C_12
REMARK    6  A    between atoms: C_13  and  O_14
REMARK    7  A    between atoms: O_14  and  C_15
REMARK    8  A    between atoms: C_20  and  O_21
REMARK    9  A    between atoms: O_21  and  C_22
REMARK   10  A    between atoms: C_28  and  C_30
REMARK   11  A    between atoms: C_30  and  S_31
REMARK                            x       y       z     vdW  Elec       q    Type
REMARK                         _______ _______ _______ _____ _____    ______ ____
ROOT
ATOM      1  C   UNL     1       4.179  -3.946  26.832  0.00  0.00    +0.104 C 
ATOM      2  C   UNL     1       4.752  -4.858  25.723  0.00  0.00    -0.016 A 
ATOM      3  C   UNL     1       5.633  -4.240  24.623  0.00  0.00    -0.009 A 
ATOM      4  C   UNL     1       5.519  -4.581  23.310  0.00  0.00    +0.012 A 
ATOM      5  C   UNL     1       4.715  -5.672  22.777  0.00  0.00    +0.050 A 
ATOM      6  C   UNL     1       3.484  -5.922  23.266  0.00  0.00    +0.167 A 
ATOM      7  C   UNL     1       3.784  -6.834  24.421  0.00  0.00    +0.221 A 
ATOM      8  O   UNL     1       3.616  -8.044  24.408  0.00  0.00    -0.284 OA
ATOM      9  C   UNL     1       6.628  -3.080  24.794  0.00  0.00    +0.031 A 
ATOM     10  C   UNL     1       8.014  -3.079  24.423  0.00  0.00    +0.173 A 
ATOM     11  C   UNL     1       8.755  -1.852  24.361  0.00  0.00    +0.204 A 
ATOM     12  C   UNL     1       8.116  -0.626  24.644  0.00  0.00    +0.165 A 
ATOM     13  C   UNL     1       6.796  -0.639  25.063  0.00  0.00    +0.054 A 
ATOM     14  C   UNL     1       6.085  -1.838  25.185  0.00  0.00    -0.032 A 
ATOM     15  C   UNL     1       4.766  -1.749  25.884  0.00  0.00    +0.038 C 
ATOM     16  C   UNL     1       4.118  -6.065  25.658  0.00  0.00    +0.060 A 
ATOM     17  C   UNL     1       4.880  -2.630  27.119  0.00  0.00    +0.032 C 
ENDROOT
BRANCH   1  18
ATOM     18  N   UNL     1       3.883  -4.646  28.085  0.00  0.00    -0.308 N 
ATOM     19  H   UNL     1       4.583  -5.220  28.534  0.00  0.00    +0.149 HD
ATOM     20  C   UNL     1       2.598  -4.577  28.619  0.00  0.00    +0.223 C 
ATOM     21  O   UNL     1       1.723  -3.862  28.133  0.00  0.00    -0.275 OA
BRANCH  20  22
ATOM     22  C   UNL     1       2.345  -5.387  29.867  0.00  0.00    +0.161 C 
BRANCH  22  23
ATOM     23  S   UNL     1       3.122  -7.023  29.796  0.00  0.00    -0.169 S 
ATOM     24  H   UNL     1       2.359  -7.501  28.800  0.00  0.00    +0.102 HD
ENDBRANCH  22  23
ENDBRANCH  20  22
ENDBRANCH   1  18
BRANCH   6  25
ATOM     25  O   UNL     1       2.506  -4.989  23.559  0.00  0.00    -0.491 OA
ATOM     26  C   UNL     1       1.176  -5.323  23.198  0.00  0.00    +0.277 C 
ENDBRANCH   6  25
BRANCH  12  27
ATOM     27  O   UNL     1       8.855   0.529  24.540  0.00  0.00    -0.491 OA
ATOM     28  C   UNL     1       8.438   1.494  23.573  0.00  0.00    +0.277 C 
ENDBRANCH  12  27
BRANCH  11  29
ATOM     29  O   UNL     1      10.069  -1.661  24.004  0.00  0.00    -0.488 OA
ATOM     30  C   UNL     1      10.477  -1.644  22.653  0.00  0.00    +0.277 C 
ENDBRANCH  11  29
BRANCH  10  31
ATOM     31  O   UNL     1       8.662  -4.220  23.997  0.00  0.00    -0.491 OA
ATOM     32  C   UNL     1       9.230  -5.018  25.033  0.00  0.00    +0.277 C 
ENDBRANCH  10  31
TORSDOF 7
ENDMDL
MODEL 7
REMARK VINA RESULT:      -5.7      3.299      7.834
REMARK  Name = 
REMARK  11 active torsions:
REMARK  status: ('A' for Active; 'I' for Inactive)
REMARK    1  A    between atoms: C_2  and  N_27
REMARK    2  A    between atoms: C_7  and  O_8
REMARK    3  A    between atoms: O_8  and  C_9
REMARK    4  A    between atoms: C_10  and  O_11
REMARK    5  A    between atoms: O_11  and  C_12
REMARK    6  A    between atoms: C_13  and  O_14
REMARK    7  A    between atoms: O_14  and  C_15
REMARK    8  A    between atoms: C_20  and  O_21
REMARK    9  A    between atoms: O_21  and  C_22
REMARK   10  A    between atoms: C_28  and  C_30
REMARK   11  A    between atoms: C_30  and  S_31
REMARK                            x       y       z     vdW  Elec       q    Type
REMARK                         _______ _______ _______ _____ _____    ______ ____
ROOT
ATOM      1  C   UNL     1       6.621  -0.041  24.975  0.00  0.00    +0.104 C 
ATOM      2  C   UNL     1       8.088  -0.180  24.508  0.00  0.00    -0.016 A 
ATOM      3  C   UNL     1       8.707   0.926  23.637  0.00  0.00    -0.009 A 
ATOM      4  C   UNL     1       9.500   0.660  22.562  0.00  0.00    +0.012 A 
ATOM      5  C   UNL     1      10.025  -0.646  22.189  0.00  0.00    +0.050 A 
ATOM      6  C   UNL     1       9.253  -1.748  22.281  0.00  0.00    +0.167 A 
ATOM      7  C   UNL     1       9.477  -2.171  23.704  0.00  0.00    +0.221 A 
ATOM      8  O   UNL     1      10.194  -3.099  24.045  0.00  0.00    -0.284 OA
ATOM      9  C   UNL     1       8.420   2.434  23.734  0.00  0.00    +0.031 A 
ATOM     10  C   UNL     1       9.387   3.482  23.884  0.00  0.00    +0.173 A 
ATOM     11  C   UNL     1       9.023   4.852  23.668  0.00  0.00    +0.204 A 
ATOM     12  C   UNL     1       7.705   5.181  23.282  0.00  0.00    +0.165 A 
ATOM     13  C   UNL     1       6.759   4.172  23.202  0.00  0.00    +0.054 A 
ATOM     14  C   UNL     1       7.094   2.839  23.471  0.00  0.00    -0.032 A 
ATOM     15  C   UNL     1       5.947   1.890  23.602  0.00  0.00    +0.038 C 
ATOM     16  C   UNL     1       8.562  -1.454  24.643  0.00  0.00    +0.060 A 
ATOM     17  C   UNL     1       6.006   1.346  25.021  0.00  0.00    +0.032 C 
ENDROOT
BRANCH   1  18
ATOM     18  N   UNL     1       6.316  -0.772  26.208  0.00  0.00    -0.308 N 
ATOM     19  H   UNL     1       6.877  -0.639  27.039  0.00  0.00    +0.149 HD
ATOM     20  C   UNL     1       5.289  -1.713  26.210  0.00  0.00    +0.223 C 
ATOM     21  O   UNL     1       4.554  -1.884  25.239  0.00  0.00    -0.275 OA
BRANCH  20  22
ATOM     22  C   UNL     1       5.086  -2.483  27.492  0.00  0.00    +0.161 C 
BRANCH  22  23
ATOM     23  S   UNL     1       5.765  -4.160  27.403  0.00  0.00    -0.169 S 
ATOM     24  H   UNL     1       6.612  -3.919  26.389  0.00  0.00    +0.102 HD
ENDBRANCH  22  23
ENDBRANCH  20  22
ENDBRANCH   1  18
BRANCH   6  25
ATOM     25  O   UNL     1       7.933  -1.869  21.887  0.00  0.00    -0.491 OA
ATOM     26  C   UNL     1       7.344  -3.152  22.013  0.00  0.00    +0.277 C 
ENDBRANCH   6  25
BRANCH  12  27
ATOM     27  O   UNL     1       7.407   6.503  23.053  0.00  0.00    -0.491 OA
ATOM     28  C   UNL     1       6.731   6.825  21.837  0.00  0.00    +0.277 C 
ENDBRANCH  12  27
BRANCH  11  29
ATOM     29  O   UNL     1       9.816   5.973  23.740  0.00  0.00    -0.488 OA
ATOM     30  C   UNL     1      10.132   6.582  24.973  0.00  0.00    +0.277 C 
ENDBRANCH  11  29
BRANCH  10  31
ATOM     31  O   UNL     1      10.722   3.223  24.118  0.00  0.00    -0.491 OA
ATOM     32  C   UNL     1      11.621   3.737  23.137  0.00  0.00    +0.277 C 
ENDBRANCH  10  31
TORSDOF 7
ENDMDL
MODEL 8
REMARK VINA RESULT:      -5.6      1.777      1.901
REMARK  Name = 
REMARK  11 active torsions:
REMARK  status: ('A' for Active; 'I' for Inactive)
REMARK    1  A    between atoms: C_2  and  N_27
REMARK    2  A    between atoms: C_7  and  O_8
REMARK    3  A    between atoms: O_8  and  C_9
REMARK    4  A    between atoms: C_10  and  O_11
REMARK    5  A    between atoms: O_11  and  C_12
REMARK    6  A    between atoms: C_13  and  O_14
REMARK    7  A    between atoms: O_14  and  C_15
REMARK    8  A    between atoms: C_20  and  O_21
REMARK    9  A    between atoms: O_21  and  C_22
REMARK   10  A    between atoms: C_28  and  C_30
REMARK   11  A    between atoms: C_30  and  S_31
REMARK                            x       y       z     vdW  Elec       q    Type
REMARK                         _______ _______ _______ _____ _____    ______ ____
ROOT
ATOM      1  C   UNL     1       6.240   0.601  24.770  0.00  0.00    +0.104 C 
ATOM      2  C   UNL     1       6.844  -0.256  23.633  0.00  0.00    -0.016 A 
ATOM      3  C   UNL     1       6.728  -1.788  23.704  0.00  0.00    -0.009 A 
ATOM      4  C   UNL     1       7.755  -2.620  23.379  0.00  0.00    +0.012 A 
ATOM      5  C   UNL     1       9.012  -2.225  22.758  0.00  0.00    +0.050 A 
ATOM      6  C   UNL     1       9.642  -1.096  23.140  0.00  0.00    +0.167 A 
ATOM      7  C   UNL     1       8.995  -0.063  22.263  0.00  0.00    +0.221 A 
ATOM      8  O   UNL     1       9.514   0.427  21.272  0.00  0.00    -0.284 OA
ATOM      9  C   UNL     1       5.545  -2.589  24.274  0.00  0.00    +0.031 A 
ATOM     10  C   UNL     1       4.813  -3.627  23.609  0.00  0.00    +0.173 A 
ATOM     11  C   UNL     1       3.935  -4.491  24.343  0.00  0.00    +0.204 A 
ATOM     12  C   UNL     1       3.800  -4.341  25.740  0.00  0.00    +0.165 A 
ATOM     13  C   UNL     1       4.460  -3.297  26.368  0.00  0.00    +0.054 A 
ATOM     14  C   UNL     1       5.271  -2.412  25.647  0.00  0.00    -0.032 A 
ATOM     15  C   UNL     1       5.718  -1.189  26.381  0.00  0.00    +0.038 C 
ATOM     16  C   UNL     1       7.722   0.447  22.859  0.00  0.00    +0.060 A 
ATOM     17  C   UNL     1       5.139  -0.004  25.622  0.00  0.00    +0.032 C 
ENDROOT
BRANCH   1  18
ATOM     18  N   UNL     1       5.878   1.961  24.364  0.00  0.00    -0.308 N 
ATOM     19  H   UNL     1       5.184   2.118  23.646  0.00  0.00    +0.149 HD
ATOM     20  C   UNL     1       6.552   3.044  24.922  0.00  0.00    +0.223 C 
ATOM     21  O   UNL     1       7.376   2.910  25.826  0.00  0.00    -0.275 OA
BRANCH  20  22
ATOM     22  C   UNL     1       6.182   4.410  24.397  0.00  0.00    +0.161 C 
BRANCH  22  23
ATOM     23  S   UNL     1       6.829   4.706  22.731  0.00  0.00    -0.169 S 
ATOM     24  H   UNL     1       7.849   3.836  22.816  0.00  0.00    +0.102 HD
ENDBRANCH  22  23
ENDBRANCH  20  22
ENDBRANCH   1  18
BRANCH   6  25
ATOM     25  O   UNL     1       9.834  -0.654  24.437  0.00  0.00    -0.491 OA
ATOM     26  C   UNL     1      10.748   0.414  24.619  0.00  0.00    +0.277 C 
ENDBRANCH   6  25
BRANCH  12  27
ATOM     27  O   UNL     1       2.974  -5.212  26.409  0.00  0.00    -0.491 OA
ATOM     28  C   UNL     1       1.825  -4.666  27.056  0.00  0.00    +0.277 C 
ENDBRANCH  12  27
BRANCH  11  29
ATOM     29  O   UNL     1       3.183  -5.544  23.879  0.00  0.00    -0.488 OA
ATOM     30  C   UNL     1       1.944  -5.345  23.231  0.00  0.00    +0.277 C 
ENDBRANCH  11  29
BRANCH  10  31
ATOM     31  O   UNL     1       5.004  -3.921  22.274  0.00  0.00    -0.491 OA
ATOM     32  C   UNL     1       5.773  -5.095  22.017  0.00  0.00    +0.277 C 
ENDBRANCH  10  31
TORSDOF 7
ENDMDL
MODEL 9
REMARK VINA RESULT:      -5.6      2.874      5.487
REMARK  Name = 
REMARK  11 active torsions:
REMARK  status: ('A' for Active; 'I' for Inactive)
REMARK    1  A    between atoms: C_2  and  N_27
REMARK    2  A    between atoms: C_7  and  O_8
REMARK    3  A    between atoms: O_8  and  C_9
REMARK    4  A    between atoms: C_10  and  O_11
REMARK    5  A    between atoms: O_11  and  C_12
REMARK    6  A    between atoms: C_13  and  O_14
REMARK    7  A    between atoms: O_14  and  C_15
REMARK    8  A    between atoms: C_20  and  O_21
REMARK    9  A    between atoms: O_21  and  C_22
REMARK   10  A    between atoms: C_28  and  C_30
REMARK   11  A    between atoms: C_30  and  S_31
REMARK                            x       y       z     vdW  Elec       q    Type
REMARK                         _______ _______ _______ _____ _____    ______ ____
ROOT
ATOM      1  C   UNL     1       8.643   2.244  22.617  0.00  0.00    +0.104 C 
ATOM      2  C   UNL     1       7.720   2.241  23.857  0.00  0.00    -0.016 A 
ATOM      3  C   UNL     1       6.994   0.943  24.250  0.00  0.00    -0.009 A 
ATOM      4  C   UNL     1       5.695   0.920  24.656  0.00  0.00    +0.012 A 
ATOM      5  C   UNL     1       4.871   2.083  24.954  0.00  0.00    +0.050 A 
ATOM      6  C   UNL     1       4.930   3.184  24.177  0.00  0.00    +0.167 A 
ATOM      7  C   UNL     1       6.064   3.947  24.799  0.00  0.00    +0.221 A 
ATOM      8  O   UNL     1       5.928   4.921  25.523  0.00  0.00    -0.284 OA
ATOM      9  C   UNL     1       7.539  -0.488  24.106  0.00  0.00    +0.031 A 
ATOM     10  C   UNL     1       7.627  -1.479  25.140  0.00  0.00    +0.173 A 
ATOM     11  C   UNL     1       7.875  -2.854  24.817  0.00  0.00    +0.204 A 
ATOM     12  C   UNL     1       8.014  -3.250  23.469  0.00  0.00    +0.165 A 
ATOM     13  C   UNL     1       7.992  -2.281  22.480  0.00  0.00    +0.054 A 
ATOM     14  C   UNL     1       7.811  -0.928  22.793  0.00  0.00    -0.032 A 
ATOM     15  C   UNL     1       8.061   0.040  21.682  0.00  0.00    +0.038 C 
ATOM     16  C   UNL     1       7.387   3.501  24.265  0.00  0.00    +0.060 A 
ATOM     17  C   UNL     1       9.214   0.921  22.138  0.00  0.00    +0.032 C 
ENDROOT
BRANCH   1  18
ATOM     18  N   UNL     1       9.694   3.264  22.658  0.00  0.00    -0.308 N 
ATOM     19  H   UNL     1       9.617   4.107  22.105  0.00  0.00    +0.149 HD
ATOM     20  C   UNL     1      10.844   3.032  23.409  0.00  0.00    +0.223 C 
ATOM     21  O   UNL     1      10.969   2.042  24.128  0.00  0.00    -0.275 OA
BRANCH  20  22
ATOM     22  C   UNL     1      11.917   4.091  23.339  0.00  0.00    +0.161 C 
BRANCH  22  23
ATOM     23  S   UNL     1      11.273   5.749  23.686  0.00  0.00    -0.169 S 
ATOM     24  H   UNL     1      12.174   6.058  24.633  0.00  0.00    +0.102 HD
ENDBRANCH  22  23
ENDBRANCH  20  22
ENDBRANCH   1  18
BRANCH   6  25
ATOM     25  O   UNL     1       4.953   3.221  22.795  0.00  0.00    -0.491 OA
ATOM     26  C   UNL     1       3.712   3.424  22.140  0.00  0.00    +0.277 C 
ENDBRANCH   6  25
BRANCH  12  27
ATOM     27  O   UNL     1       8.217  -4.584  23.203  0.00  0.00    -0.491 OA
ATOM     28  C   UNL     1       7.210  -5.267  22.456  0.00  0.00    +0.277 C 
ENDBRANCH  12  27
BRANCH  11  29
ATOM     29  O   UNL     1       7.964  -3.932  25.666  0.00  0.00    -0.488 OA
ATOM     30  C   UNL     1       9.104  -4.156  26.466  0.00  0.00    +0.277 C 
ENDBRANCH  11  29
BRANCH  10  31
ATOM     31  O   UNL     1       7.360  -1.188  26.462  0.00  0.00    -0.491 OA
ATOM     32  C   UNL     1       8.433  -0.575  27.175  0.00  0.00    +0.277 C 
ENDBRANCH  10  31
TORSDOF 7
ENDMDL
