MODEL 1
REMARK VINA RESULT:      -7.0      0.000      0.000
REMARK  Name = 
REMARK  7 active torsions:
REMARK  status: ('A' for Active; 'I' for Inactive)
REMARK    1  A    between atoms: N_1  and  S_2
REMARK    2  A    between atoms: S_2  and  C_5
REMARK    3  A    between atoms: C_7  and  C_23
REMARK    4  A    between atoms: C_9  and  N_10
REMARK    5  A    between atoms: C_15  and  O_16
REMARK    6  A    between atoms: O_16  and  C_17
REMARK    7  A    between atoms: C_23  and  O_24
REMARK                            x       y       z     vdW  Elec       q    Type
REMARK                         _______ _______ _______ _____ _____    ______ ____
ROOT
ATOM      1  C   UNL     1       7.845  -4.122  24.682  0.00  0.00    +0.150 A 
ATOM      2  C   UNL     1       8.082  -2.762  24.384  0.00  0.00    +0.176 A 
ATOM      3  C   UNL     1       7.786  -2.298  23.049  0.00  0.00    +0.075 A 
ATOM      4  C   UNL     1       7.185  -3.192  22.130  0.00  0.00    +0.042 A 
ATOM      5  C   UNL     1       6.881  -4.506  22.482  0.00  0.00    +0.063 A 
ATOM      6  C   UNL     1       7.207  -4.959  23.749  0.00  0.00    +0.047 A 
ENDROOT
BRANCH   3   7
ATOM      7  N   UNL     1       8.199  -1.045  22.594  0.00  0.00    -0.327 N 
ATOM      8  C   UNL     1       7.228   0.037  22.428  0.00  0.00    +0.105 C 
ATOM      9  C   UNL     1       8.056   1.197  21.848  0.00  0.00    +0.020 C 
ATOM     10  C   UNL     1       9.452   0.629  21.600  0.00  0.00    +0.020 C 
ATOM     11  C   UNL     1       9.231  -0.875  21.570  0.00  0.00    +0.105 C 
ENDBRANCH   3   7
BRANCH   1  12
ATOM     12  S   UNL     1       8.416  -5.002  26.103  0.00  0.00    +0.060 S 
ATOM     13  O   UNL     1       9.053  -4.125  27.058  0.00  0.00    -0.153 OA
ATOM     14  O   UNL     1       7.394  -5.948  26.479  0.00  0.00    -0.153 OA
BRANCH  12  15
ATOM     15  N   UNL     1       9.698  -5.919  25.524  0.00  0.00    -0.203 NA
ATOM     16  H   UNL     1       9.567  -6.046  24.517  0.00  0.00    +0.144 HD
ATOM     17  H   UNL     1      10.590  -5.485  25.762  0.00  0.00    +0.144 HD
ENDBRANCH  12  15
ENDBRANCH   1  12
BRANCH   5  18
ATOM     18  C   UNL     1       6.350  -5.501  21.514  0.00  0.00    +0.337 C 
ATOM     19  O   UNL     1       5.967  -5.188  20.396  0.00  0.00    -0.245 OA
BRANCH  18  20
ATOM     20  O   UNL     1       6.361  -6.769  21.962  0.00  0.00    -0.477 OA
ATOM     21  H   UNL     1       5.944  -6.904  22.831  0.00  0.00    +0.295 HD
ENDBRANCH  18  20
ENDBRANCH   5  18
BRANCH   2  22
ATOM     22  O   UNL     1       8.874  -1.907  25.128  0.00  0.00    -0.452 OA
BRANCH  22  23
ATOM     23  C   UNL     1       8.431  -0.788  25.806  0.00  0.00    +0.129 A 
ATOM     24  C   UNL     1       7.425  -1.051  26.753  0.00  0.00    +0.046 A 
ATOM     25  C   UNL     1       6.672  -0.018  27.324  0.00  0.00    +0.004 A 
ATOM     26  C   UNL     1       6.889   1.294  26.919  0.00  0.00    +0.000 A 
ATOM     27  C   UNL     1       7.927   1.572  26.035  0.00  0.00    +0.004 A 
ATOM     28  C   UNL     1       8.734   0.541  25.531  0.00  0.00    +0.046 A 
ENDBRANCH  22  23
ENDBRANCH   2  22
TORSDOF 7
ENDMDL
MODEL 2
REMARK VINA RESULT:      -6.8      2.204      4.680
REMARK  Name = 
REMARK  7 active torsions:
REMARK  status: ('A' for Active; 'I' for Inactive)
REMARK    1  A    between atoms: N_1  and  S_2
REMARK    2  A    between atoms: S_2  and  C_5
REMARK    3  A    between atoms: C_7  and  C_23
REMARK    4  A    between atoms: C_9  and  N_10
REMARK    5  A    between atoms: C_15  and  O_16
REMARK    6  A    between atoms: O_16  and  C_17
REMARK    7  A    between atoms: C_23  and  O_24
REMARK                            x       y       z     vdW  Elec       q    Type
REMARK                         _______ _______ _______ _____ _____    ______ ____
ROOT
ATOM      1  C   UNL     1       6.600  -4.118  23.576  0.00  0.00    +0.150 A 
ATOM      2  C   UNL     1       6.738  -2.755  23.924  0.00  0.00    +0.176 A 
ATOM      3  C   UNL     1       6.764  -2.412  25.325  0.00  0.00    +0.075 A 
ATOM      4  C   UNL     1       6.750  -3.451  26.287  0.00  0.00    +0.042 A 
ATOM      5  C   UNL     1       6.704  -4.793  25.911  0.00  0.00    +0.063 A 
ATOM      6  C   UNL     1       6.634  -5.116  24.566  0.00  0.00    +0.047 A 
ENDROOT
BRANCH   3   7
ATOM      7  N   UNL     1       6.662  -1.090  25.764  0.00  0.00    -0.327 N 
ATOM      8  C   UNL     1       7.741  -0.487  26.547  0.00  0.00    +0.105 C 
ATOM      9  C   UNL     1       7.214   0.918  26.888  0.00  0.00    +0.020 C 
ATOM     10  C   UNL     1       5.779   0.963  26.368  0.00  0.00    +0.020 C 
ATOM     11  C   UNL     1       5.402  -0.503  26.220  0.00  0.00    +0.105 C 
ENDBRANCH   3   7
BRANCH   1  12
ATOM     12  S   UNL     1       6.218  -4.762  21.977  0.00  0.00    +0.060 S 
ATOM     13  O   UNL     1       5.621  -3.762  21.123  0.00  0.00    -0.153 OA
ATOM     14  O   UNL     1       7.326  -5.583  21.553  0.00  0.00    -0.153 OA
BRANCH  12  15
ATOM     15  N   UNL     1       4.946  -5.820  22.260  0.00  0.00    -0.203 NA
ATOM     16  H   UNL     1       5.109  -6.278  23.160  0.00  0.00    +0.144 HD
ATOM     17  H   UNL     1       4.051  -5.332  22.214  0.00  0.00    +0.144 HD
ENDBRANCH  12  15
ENDBRANCH   1  12
BRANCH   5  18
ATOM     18  C   UNL     1       6.580  -5.903  26.890  0.00  0.00    +0.337 C 
ATOM     19  O   UNL     1       5.646  -6.693  26.871  0.00  0.00    -0.245 OA
BRANCH  18  20
ATOM     20  O   UNL     1       7.594  -5.982  27.770  0.00  0.00    -0.477 OA
ATOM     21  H   UNL     1       8.200  -6.732  27.636  0.00  0.00    +0.295 HD
ENDBRANCH  18  20
ENDBRANCH   5  18
BRANCH   2  22
ATOM     22  O   UNL     1       6.516  -1.688  23.073  0.00  0.00    -0.452 OA
BRANCH  22  23
ATOM     23  C   UNL     1       7.488  -0.840  22.580  0.00  0.00    +0.129 A 
ATOM     24  C   UNL     1       8.630  -1.497  22.090  0.00  0.00    +0.046 A 
ATOM     25  C   UNL     1       9.813  -0.800  21.815  0.00  0.00    +0.004 A 
ATOM     26  C   UNL     1       9.879   0.565  22.069  0.00  0.00    +0.000 A 
ATOM     27  C   UNL     1       8.735   1.237  22.488  0.00  0.00    +0.004 A 
ATOM     28  C   UNL     1       7.529   0.546  22.681  0.00  0.00    +0.046 A 
ENDBRANCH  22  23
ENDBRANCH   2  22
TORSDOF 7
ENDMDL
MODEL 3
REMARK VINA RESULT:      -6.6      1.908      2.875
REMARK  Name = 
REMARK  7 active torsions:
REMARK  status: ('A' for Active; 'I' for Inactive)
REMARK    1  A    between atoms: N_1  and  S_2
REMARK    2  A    between atoms: S_2  and  C_5
REMARK    3  A    between atoms: C_7  and  C_23
REMARK    4  A    between atoms: C_9  and  N_10
REMARK    5  A    between atoms: C_15  and  O_16
REMARK    6  A    between atoms: O_16  and  C_17
REMARK    7  A    between atoms: C_23  and  O_24
REMARK                            x       y       z     vdW  Elec       q    Type
REMARK                         _______ _______ _______ _____ _____    ______ ____
ROOT
ATOM      1  C   UNL     1       7.689  -3.962  24.922  0.00  0.00    +0.150 A 
ATOM      2  C   UNL     1       7.575  -2.565  25.094  0.00  0.00    +0.176 A 
ATOM      3  C   UNL     1       6.489  -1.885  24.429  0.00  0.00    +0.075 A 
ATOM      4  C   UNL     1       5.534  -2.651  23.717  0.00  0.00    +0.042 A 
ATOM      5  C   UNL     1       5.622  -4.039  23.639  0.00  0.00    +0.063 A 
ATOM      6  C   UNL     1       6.690  -4.683  24.242  0.00  0.00    +0.047 A 
ENDROOT
BRANCH   3   7
ATOM      7  N   UNL     1       6.429  -0.493  24.348  0.00  0.00    -0.327 N 
ATOM      8  C   UNL     1       5.530   0.260  25.224  0.00  0.00    +0.105 C 
ATOM      9  C   UNL     1       5.705   1.720  24.773  0.00  0.00    +0.020 C 
ATOM     10  C   UNL     1       6.621   1.673  23.552  0.00  0.00    +0.020 C 
ATOM     11  C   UNL     1       6.519   0.231  23.080  0.00  0.00    +0.105 C 
ENDBRANCH   3   7
BRANCH   1  12
ATOM     12  S   UNL     1       9.080  -4.965  25.343  0.00  0.00    +0.060 S 
ATOM     13  O   UNL     1       8.734  -6.365  25.410  0.00  0.00    -0.153 OA
ATOM     14  O   UNL     1      10.217  -4.480  24.598  0.00  0.00    -0.153 OA
BRANCH  12  15
ATOM     15  N   UNL     1       9.387  -4.578  26.948  0.00  0.00    -0.203 NA
ATOM     16  H   UNL     1      10.398  -4.635  27.099  0.00  0.00    +0.144 HD
ATOM     17  H   UNL     1       8.997  -3.665  27.181  0.00  0.00    +0.144 HD
ENDBRANCH  12  15
ENDBRANCH   1  12
BRANCH   5  18
ATOM     18  C   UNL     1       4.701  -4.864  22.815  0.00  0.00    +0.337 C 
ATOM     19  O   UNL     1       3.494  -4.888  23.006  0.00  0.00    -0.245 OA
BRANCH  18  20
ATOM     20  O   UNL     1       5.306  -5.548  21.827  0.00  0.00    -0.477 OA
ATOM     21  H   UNL     1       4.742  -6.195  21.367  0.00  0.00    +0.295 HD
ENDBRANCH  18  20
ENDBRANCH   5  18
BRANCH   2  22
ATOM     22  O   UNL     1       8.578  -1.733  25.557  0.00  0.00    -0.452 OA
BRANCH  22  23
ATOM     23  C   UNL     1       9.407  -0.960  24.769  0.00  0.00    +0.129 A 
ATOM     24  C   UNL     1       9.652   0.326  25.281  0.00  0.00    +0.046 A 
ATOM     25  C   UNL     1      10.231   1.328  24.493  0.00  0.00    +0.004 A 
ATOM     26  C   UNL     1      10.535   1.065  23.163  0.00  0.00    +0.000 A 
ATOM     27  C   UNL     1      10.361  -0.224  22.666  0.00  0.00    +0.004 A 
ATOM     28  C   UNL     1       9.858  -1.246  23.485  0.00  0.00    +0.046 A 
ENDBRANCH  22  23
ENDBRANCH   2  22
TORSDOF 7
ENDMDL
MODEL 4
REMARK VINA RESULT:      -6.4      2.342      3.765
REMARK  Name = 
REMARK  7 active torsions:
REMARK  status: ('A' for Active; 'I' for Inactive)
REMARK    1  A    between atoms: N_1  and  S_2
REMARK    2  A    between atoms: S_2  and  C_5
REMARK    3  A    between atoms: C_7  and  C_23
REMARK    4  A    between atoms: C_9  and  N_10
REMARK    5  A    between atoms: C_15  and  O_16
REMARK    6  A    between atoms: O_16  and  C_17
REMARK    7  A    between atoms: C_23  and  O_24
REMARK                            x       y       z     vdW  Elec       q    Type
REMARK                         _______ _______ _______ _____ _____    ______ ____
ROOT
ATOM      1  C   UNL     1       7.893  -2.844  25.185  0.00  0.00    +0.150 A 
ATOM      2  C   UNL     1       8.063  -1.451  25.348  0.00  0.00    +0.176 A 
ATOM      3  C   UNL     1       6.893  -0.610  25.260  0.00  0.00    +0.075 A 
ATOM      4  C   UNL     1       5.622  -1.215  25.113  0.00  0.00    +0.042 A 
ATOM      5  C   UNL     1       5.476  -2.600  25.045  0.00  0.00    +0.063 A 
ATOM      6  C   UNL     1       6.605  -3.401  25.086  0.00  0.00    +0.047 A 
ENDROOT
BRANCH   3   7
ATOM      7  N   UNL     1       6.989   0.781  25.173  0.00  0.00    -0.327 N 
ATOM      8  C   UNL     1       6.985   1.597  26.388  0.00  0.00    +0.105 C 
ATOM      9  C   UNL     1       7.027   3.044  25.866  0.00  0.00    +0.020 C 
ATOM     10  C   UNL     1       6.918   2.941  24.346  0.00  0.00    +0.020 C 
ATOM     11  C   UNL     1       6.337   1.555  24.117  0.00  0.00    +0.105 C 
ENDBRANCH   3   7
BRANCH   1  12
ATOM     12  S   UNL     1       9.169  -4.037  24.924  0.00  0.00    +0.060 S 
ATOM     13  O   UNL     1      10.217  -3.525  24.073  0.00  0.00    -0.153 OA
ATOM     14  O   UNL     1       9.439  -4.680  26.187  0.00  0.00    -0.153 OA
BRANCH  12  15
ATOM     15  N   UNL     1       8.442  -5.205  23.962  0.00  0.00    -0.203 NA
ATOM     16  H   UNL     1       7.588  -4.802  23.566  0.00  0.00    +0.144 HD
ATOM     17  H   UNL     1       9.091  -5.546  23.254  0.00  0.00    +0.144 HD
ENDBRANCH  12  15
ENDBRANCH   1  12
BRANCH   5  18
ATOM     18  C   UNL     1       4.173  -3.264  24.784  0.00  0.00    +0.337 C 
ATOM     19  O   UNL     1       3.119  -2.840  25.236  0.00  0.00    -0.245 OA
BRANCH  18  20
ATOM     20  O   UNL     1       4.252  -4.344  23.986  0.00  0.00    -0.477 OA
ATOM     21  H   UNL     1       3.805  -4.256  23.126  0.00  0.00    +0.295 HD
ENDBRANCH  18  20
ENDBRANCH   5  18
BRANCH   2  22
ATOM     22  O   UNL     1       9.266  -0.777  25.251  0.00  0.00    -0.452 OA
BRANCH  22  23
ATOM     23  C   UNL     1       9.704  -0.071  24.148  0.00  0.00    +0.129 A 
ATOM     24  C   UNL     1      10.274   1.177  24.454  0.00  0.00    +0.046 A 
ATOM     25  C   UNL     1      10.513   2.134  23.460  0.00  0.00    +0.004 A 
ATOM     26  C   UNL     1      10.142   1.868  22.148  0.00  0.00    +0.000 A 
ATOM     27  C   UNL     1       9.642   0.610  21.823  0.00  0.00    +0.004 A 
ATOM     28  C   UNL     1       9.483  -0.375  22.809  0.00  0.00    +0.046 A 
ENDBRANCH  22  23
ENDBRANCH   2  22
TORSDOF 7
ENDMDL
MODEL 5
REMARK VINA RESULT:      -6.3      3.294      4.561
REMARK  Name = 
REMARK  7 active torsions:
REMARK  status: ('A' for Active; 'I' for Inactive)
REMARK    1  A    between atoms: N_1  and  S_2
REMARK    2  A    between atoms: S_2  and  C_5
REMARK    3  A    between atoms: C_7  and  C_23
REMARK    4  A    between atoms: C_9  and  N_10
REMARK    5  A    between atoms: C_15  and  O_16
REMARK    6  A    between atoms: O_16  and  C_17
REMARK    7  A    between atoms: C_23  and  O_24
REMARK                            x       y       z     vdW  Elec       q    Type
REMARK                         _______ _______ _______ _____ _____    ______ ____
ROOT
ATOM      1  C   UNL     1       5.168  -6.016  26.632  0.00  0.00    +0.150 A 
ATOM      2  C   UNL     1       5.677  -5.357  25.491  0.00  0.00    +0.176 A 
ATOM      3  C   UNL     1       5.042  -5.611  24.220  0.00  0.00    +0.075 A 
ATOM      4  C   UNL     1       3.885  -6.427  24.183  0.00  0.00    +0.042 A 
ATOM      5  C   UNL     1       3.352  -6.992  25.340  0.00  0.00    +0.063 A 
ATOM      6  C   UNL     1       3.990  -6.781  26.550  0.00  0.00    +0.047 A 
ENDROOT
BRANCH   3   7
ATOM      7  N   UNL     1       5.610  -5.196  23.015  0.00  0.00    -0.327 N 
ATOM      8  C   UNL     1       5.331  -3.859  22.489  0.00  0.00    +0.105 C 
ATOM      9  C   UNL     1       6.068  -3.828  21.138  0.00  0.00    +0.020 C 
ATOM     10  C   UNL     1       6.620  -5.236  20.932  0.00  0.00    +0.020 C 
ATOM     11  C   UNL     1       5.787  -6.093  21.873  0.00  0.00    +0.105 C 
ENDBRANCH   3   7
BRANCH   1  12
ATOM     12  S   UNL     1       5.946  -6.136  28.213  0.00  0.00    +0.060 S 
ATOM     13  O   UNL     1       5.702  -4.965  29.023  0.00  0.00    -0.153 OA
ATOM     14  O   UNL     1       5.744  -7.477  28.706  0.00  0.00    -0.153 OA
BRANCH  12  15
ATOM     15  N   UNL     1       7.585  -6.017  27.868  0.00  0.00    -0.203 NA
ATOM     16  H   UNL     1       8.034  -5.509  28.635  0.00  0.00    +0.144 HD
ATOM     17  H   UNL     1       7.989  -6.940  27.707  0.00  0.00    +0.144 HD
ENDBRANCH  12  15
ENDBRANCH   1  12
BRANCH   5  18
ATOM     18  C   UNL     1       2.206  -7.937  25.325  0.00  0.00    +0.337 C 
ATOM     19  O   UNL     1       1.044  -7.559  25.360  0.00  0.00    -0.245 OA
BRANCH  18  20
ATOM     20  O   UNL     1       2.557  -9.232  25.235  0.00  0.00    -0.477 OA
ATOM     21  H   UNL     1       3.436  -9.396  24.850  0.00  0.00    +0.295 HD
ENDBRANCH  18  20
ENDBRANCH   5  18
BRANCH   2  22
ATOM     22  O   UNL     1       6.919  -4.755  25.405  0.00  0.00    -0.452 OA
BRANCH  22  23
ATOM     23  C   UNL     1       7.170  -3.407  25.559  0.00  0.00    +0.129 A 
ATOM     24  C   UNL     1       8.353  -2.968  24.940  0.00  0.00    +0.046 A 
ATOM     25  C   UNL     1       8.905  -1.712  25.223  0.00  0.00    +0.004 A 
ATOM     26  C   UNL     1       8.296  -0.894  26.168  0.00  0.00    +0.000 A 
ATOM     27  C   UNL     1       7.088  -1.289  26.735  0.00  0.00    +0.004 A 
ATOM     28  C   UNL     1       6.497  -2.511  26.384  0.00  0.00    +0.046 A 
ENDBRANCH  22  23
ENDBRANCH   2  22
TORSDOF 7
ENDMDL
MODEL 6
REMARK VINA RESULT:      -6.1      3.040      6.510
REMARK  Name = 
REMARK  7 active torsions:
REMARK  status: ('A' for Active; 'I' for Inactive)
REMARK    1  A    between atoms: N_1  and  S_2
REMARK    2  A    between atoms: S_2  and  C_5
REMARK    3  A    between atoms: C_7  and  C_23
REMARK    4  A    between atoms: C_9  and  N_10
REMARK    5  A    between atoms: C_15  and  O_16
REMARK    6  A    between atoms: O_16  and  C_17
REMARK    7  A    between atoms: C_23  and  O_24
REMARK                            x       y       z     vdW  Elec       q    Type
REMARK                         _______ _______ _______ _____ _____    ______ ____
ROOT
ATOM      1  C   UNL     1       8.011  -0.406  23.186  0.00  0.00    +0.150 A 
ATOM      2  C   UNL     1       7.472  -1.654  23.572  0.00  0.00    +0.176 A 
ATOM      3  C   UNL     1       6.315  -1.656  24.435  0.00  0.00    +0.075 A 
ATOM      4  C   UNL     1       5.713  -0.421  24.779  0.00  0.00    +0.042 A 
ATOM      5  C   UNL     1       6.215   0.792  24.310  0.00  0.00    +0.063 A 
ATOM      6  C   UNL     1       7.351   0.791  23.518  0.00  0.00    +0.047 A 
ENDROOT
BRANCH   3   7
ATOM      7  N   UNL     1       5.857  -2.821  25.053  0.00  0.00    -0.327 N 
ATOM      8  C   UNL     1       4.537  -3.361  24.724  0.00  0.00    +0.105 C 
ATOM      9  C   UNL     1       4.387  -4.576  25.656  0.00  0.00    +0.020 C 
ATOM     10  C   UNL     1       5.616  -4.559  26.562  0.00  0.00    +0.020 C 
ATOM     11  C   UNL     1       6.124  -3.130  26.457  0.00  0.00    +0.105 C 
ENDBRANCH   3   7
BRANCH   1  12
ATOM     12  S   UNL     1       9.580  -0.127  22.425  0.00  0.00    +0.060 S 
ATOM     13  O   UNL     1       9.528   0.950  21.465  0.00  0.00    -0.153 OA
ATOM     14  O   UNL     1      10.590  -0.204  23.453  0.00  0.00    -0.153 OA
BRANCH  12  15
ATOM     15  N   UNL     1       9.807  -1.481  21.458  0.00  0.00    -0.203 NA
ATOM     16  H   UNL     1       8.886  -1.841  21.196  0.00  0.00    +0.144 HD
ATOM     17  H   UNL     1      10.395  -1.258  20.655  0.00  0.00    +0.144 HD
ENDBRANCH  12  15
ENDBRANCH   1  12
BRANCH   5  18
ATOM     18  C   UNL     1       5.676   2.109  24.735  0.00  0.00    +0.337 C 
ATOM     19  O   UNL     1       6.372   2.962  25.267  0.00  0.00    -0.245 OA
BRANCH  18  20
ATOM     20  O   UNL     1       4.373   2.291  24.453  0.00  0.00    -0.477 OA
ATOM     21  H   UNL     1       3.769   1.641  24.854  0.00  0.00    +0.295 HD
ENDBRANCH  18  20
ENDBRANCH   5  18
BRANCH   2  22
ATOM     22  O   UNL     1       8.128  -2.868  23.484  0.00  0.00    -0.452 OA
BRANCH  22  23
ATOM     23  C   UNL     1       7.661  -3.985  22.820  0.00  0.00    +0.129 A 
ATOM     24  C   UNL     1       6.854  -3.698  21.706  0.00  0.00    +0.046 A 
ATOM     25  C   UNL     1       6.077  -4.687  21.091  0.00  0.00    +0.004 A 
ATOM     26  C   UNL     1       6.068  -5.974  21.614  0.00  0.00    +0.000 A 
ATOM     27  C   UNL     1       6.915  -6.287  22.673  0.00  0.00    +0.004 A 
ATOM     28  C   UNL     1       7.754  -5.311  23.231  0.00  0.00    +0.046 A 
ENDBRANCH  22  23
ENDBRANCH   2  22
TORSDOF 7
ENDMDL
MODEL 7
REMARK VINA RESULT:      -6.0      2.964      4.972
REMARK  Name = 
REMARK  7 active torsions:
REMARK  status: ('A' for Active; 'I' for Inactive)
REMARK    1  A    between atoms: N_1  and  S_2
REMARK    2  A    between atoms: S_2  and  C_5
REMARK    3  A    between atoms: C_7  and  C_23
REMARK    4  A    between atoms: C_9  and  N_10
REMARK    5  A    between atoms: C_15  and  O_16
REMARK    6  A    between atoms: O_16  and  C_17
REMARK    7  A    between atoms: C_23  and  O_24
REMARK                            x       y       z     vdW  Elec       q    Type
REMARK                         _______ _______ _______ _____ _____    ______ ____
ROOT
ATOM      1  C   UNL     1       6.425  -3.252  22.652  0.00  0.00    +0.150 A 
ATOM      2  C   UNL     1       5.793  -2.597  23.732  0.00  0.00    +0.176 A 
ATOM      3  C   UNL     1       6.403  -1.394  24.247  0.00  0.00    +0.075 A 
ATOM      4  C   UNL     1       7.544  -0.870  23.594  0.00  0.00    +0.042 A 
ATOM      5  C   UNL     1       8.094  -1.491  22.474  0.00  0.00    +0.063 A 
ATOM      6  C   UNL     1       7.532  -2.668  22.010  0.00  0.00    +0.047 A 
ENDROOT
BRANCH   3   7
ATOM      7  N   UNL     1       5.989  -0.812  25.447  0.00  0.00    -0.327 N 
ATOM      8  C   UNL     1       5.333   0.496  25.445  0.00  0.00    +0.105 C 
ATOM      9  C   UNL     1       5.113   0.806  26.936  0.00  0.00    +0.020 C 
ATOM     10  C   UNL     1       5.798  -0.324  27.702  0.00  0.00    +0.020 C 
ATOM     11  C   UNL     1       6.760  -0.919  26.686  0.00  0.00    +0.105 C 
ENDBRANCH   3   7
BRANCH   1  12
ATOM     12  S   UNL     1       6.079  -4.881  22.062  0.00  0.00    +0.060 S 
ATOM     13  O   UNL     1       5.989  -4.922  20.621  0.00  0.00    -0.153 OA
ATOM     14  O   UNL     1       6.889  -5.807  22.817  0.00  0.00    -0.153 OA
BRANCH  12  15
ATOM     15  N   UNL     1       4.496  -5.159  22.544  0.00  0.00    -0.203 NA
ATOM     16  H   UNL     1       3.982  -5.536  21.743  0.00  0.00    +0.144 HD
ATOM     17  H   UNL     1       4.468  -5.769  23.362  0.00  0.00    +0.144 HD
ENDBRANCH  12  15
ENDBRANCH   1  12
BRANCH   5  18
ATOM     18  C   UNL     1       9.350  -1.030  21.828  0.00  0.00    +0.337 C 
ATOM     19  O   UNL     1       9.426   0.028  21.222  0.00  0.00    -0.245 OA
BRANCH  18  20
ATOM     20  O   UNL     1      10.396  -1.859  21.999  0.00  0.00    -0.477 OA
ATOM     21  H   UNL     1      11.239  -1.542  21.630  0.00  0.00    +0.295 HD
ENDBRANCH  18  20
ENDBRANCH   5  18
BRANCH   2  22
ATOM     22  O   UNL     1       4.841  -3.161  24.562  0.00  0.00    -0.452 OA
BRANCH  22  23
ATOM     23  C   UNL     1       5.103  -3.882  25.710  0.00  0.00    +0.129 A 
ATOM     24  C   UNL     1       4.155  -3.699  26.732  0.00  0.00    +0.046 A 
ATOM     25  C   UNL     1       4.403  -4.123  28.044  0.00  0.00    +0.004 A 
ATOM     26  C   UNL     1       5.628  -4.699  28.357  0.00  0.00    +0.000 A 
ATOM     27  C   UNL     1       6.546  -4.948  27.340  0.00  0.00    +0.004 A 
ATOM     28  C   UNL     1       6.256  -4.597  26.013  0.00  0.00    +0.046 A 
ENDBRANCH  22  23
ENDBRANCH   2  22
TORSDOF 7
ENDMDL
MODEL 8
REMARK VINA RESULT:      -5.9      2.647      3.521
REMARK  Name = 
REMARK  7 active torsions:
REMARK  status: ('A' for Active; 'I' for Inactive)
REMARK    1  A    between atoms: N_1  and  S_2
REMARK    2  A    between atoms: S_2  and  C_5
REMARK    3  A    between atoms: C_7  and  C_23
REMARK    4  A    between atoms: C_9  and  N_10
REMARK    5  A    between atoms: C_15  and  O_16
REMARK    6  A    between atoms: O_16  and  C_17
REMARK    7  A    between atoms: C_23  and  O_24
REMARK                            x       y       z     vdW  Elec       q    Type
REMARK                         _______ _______ _______ _____ _____    ______ ____
ROOT
ATOM      1  C   UNL     1       6.069  -2.967  24.760  0.00  0.00    +0.150 A 
ATOM      2  C   UNL     1       6.664  -1.900  24.049  0.00  0.00    +0.176 A 
ATOM      3  C   UNL     1       8.096  -1.920  23.870  0.00  0.00    +0.075 A 
ATOM      4  C   UNL     1       8.830  -3.043  24.324  0.00  0.00    +0.042 A 
ATOM      5  C   UNL     1       8.202  -4.123  24.943  0.00  0.00    +0.063 A 
ATOM      6  C   UNL     1       6.834  -4.080  25.152  0.00  0.00    +0.047 A 
ENDROOT
BRANCH   3   7
ATOM      7  N   UNL     1       8.796  -0.809  23.393  0.00  0.00    -0.327 N 
ATOM      8  C   UNL     1       9.014  -0.637  21.956  0.00  0.00    +0.105 C 
ATOM      9  C   UNL     1       9.871   0.638  21.860  0.00  0.00    +0.020 C 
ATOM     10  C   UNL     1      10.193   1.034  23.299  0.00  0.00    +0.020 C 
ATOM     11  C   UNL     1       9.952  -0.243  24.088  0.00  0.00    +0.105 C 
ENDBRANCH   3   7
BRANCH   1  12
ATOM     12  S   UNL     1       4.421  -3.020  25.391  0.00  0.00    +0.060 S 
ATOM     13  O   UNL     1       4.023  -1.755  25.963  0.00  0.00    -0.153 OA
ATOM     14  O   UNL     1       3.604  -3.733  24.437  0.00  0.00    -0.153 OA
BRANCH  12  15
ATOM     15  N   UNL     1       4.533  -4.021  26.734  0.00  0.00    -0.203 NA
ATOM     16  H   UNL     1       4.352  -3.454  27.567  0.00  0.00    +0.144 HD
ATOM     17  H   UNL     1       3.902  -4.818  26.646  0.00  0.00    +0.144 HD
ENDBRANCH  12  15
ENDBRANCH   1  12
BRANCH   5  18
ATOM     18  C   UNL     1       8.950  -5.267  25.526  0.00  0.00    +0.337 C 
ATOM     19  O   UNL     1       8.457  -6.017  26.356  0.00  0.00    -0.245 OA
BRANCH  18  20
ATOM     20  O   UNL     1      10.193  -5.422  25.038  0.00  0.00    -0.477 OA
ATOM     21  H   UNL     1      10.318  -5.121  24.120  0.00  0.00    +0.295 HD
ENDBRANCH  18  20
ENDBRANCH   5  18
BRANCH   2  22
ATOM     22  O   UNL     1       6.068  -0.679  23.796  0.00  0.00    -0.452 OA
BRANCH  22  23
ATOM     23  C   UNL     1       6.310   0.491  24.488  0.00  0.00    +0.129 A 
ATOM     24  C   UNL     1       6.458   1.624  23.668  0.00  0.00    +0.046 A 
ATOM     25  C   UNL     1       6.978   2.824  24.166  0.00  0.00    +0.004 A 
ATOM     26  C   UNL     1       7.398   2.893  25.489  0.00  0.00    +0.000 A 
ATOM     27  C   UNL     1       7.193   1.800  26.327  0.00  0.00    +0.004 A 
ATOM     28  C   UNL     1       6.594   0.628  25.842  0.00  0.00    +0.046 A 
ENDBRANCH  22  23
ENDBRANCH   2  22
TORSDOF 7
ENDMDL
MODEL 9
REMARK VINA RESULT:      -5.9      2.730      5.990
REMARK  Name = 
REMARK  7 active torsions:
REMARK  status: ('A' for Active; 'I' for Inactive)
REMARK    1  A    between atoms: N_1  and  S_2
REMARK    2  A    between atoms: S_2  and  C_5
REMARK    3  A    between atoms: C_7  and  C_23
REMARK    4  A    between atoms: C_9  and  N_10
REMARK    5  A    between atoms: C_15  and  O_16
REMARK    6  A    between atoms: O_16  and  C_17
REMARK    7  A    between atoms: C_23  and  O_24
REMARK                            x       y       z     vdW  Elec       q    Type
REMARK                         _______ _______ _______ _____ _____    ______ ____
ROOT
ATOM      1  C   UNL     1       8.613  -0.801  23.660  0.00  0.00    +0.150 A 
ATOM      2  C   UNL     1       7.678  -0.730  24.717  0.00  0.00    +0.176 A 
ATOM      3  C   UNL     1       7.433   0.558  25.321  0.00  0.00    +0.075 A 
ATOM      4  C   UNL     1       8.059   1.703  24.772  0.00  0.00    +0.042 A 
ATOM      5  C   UNL     1       8.907   1.614  23.670  0.00  0.00    +0.063 A 
ATOM      6  C   UNL     1       9.174   0.371  23.122  0.00  0.00    +0.047 A 
ENDROOT
BRANCH   3   7
ATOM      7  N   UNL     1       6.713   0.690  26.510  0.00  0.00    -0.327 N 
ATOM      8  C   UNL     1       5.251   0.736  26.486  0.00  0.00    +0.105 C 
ATOM      9  C   UNL     1       4.860   0.961  27.958  0.00  0.00    +0.020 C 
ATOM     10  C   UNL     1       6.173   1.163  28.711  0.00  0.00    +0.020 C 
ATOM     11  C   UNL     1       7.165   1.532  27.618  0.00  0.00    +0.105 C 
ENDBRANCH   3   7
BRANCH   1  12
ATOM     12  S   UNL     1       9.326  -2.268  22.983  0.00  0.00    +0.060 S 
ATOM     13  O   UNL     1      10.147  -2.961  23.948  0.00  0.00    -0.153 OA
ATOM     14  O   UNL     1       8.310  -2.936  22.205  0.00  0.00    -0.153 OA
BRANCH  12  15
ATOM     15  N   UNL     1      10.450  -1.698  21.875  0.00  0.00    -0.203 NA
ATOM     16  H   UNL     1      10.121  -0.794  21.526  0.00  0.00    +0.144 HD
ATOM     17  H   UNL     1      11.380  -1.653  22.292  0.00  0.00    +0.144 HD
ENDBRANCH  12  15
ENDBRANCH   1  12
BRANCH   5  18
ATOM     18  C   UNL     1       9.663   2.776  23.135  0.00  0.00    +0.337 C 
ATOM     19  O   UNL     1       9.837   3.799  23.781  0.00  0.00    -0.245 OA
BRANCH  18  20
ATOM     20  O   UNL     1      10.163   2.590  21.900  0.00  0.00    -0.477 OA
ATOM     21  H   UNL     1      10.455   3.400  21.446  0.00  0.00    +0.295 HD
ENDBRANCH  18  20
ENDBRANCH   5  18
BRANCH   2  22
ATOM     22  O   UNL     1       7.223  -1.808  25.454  0.00  0.00    -0.452 OA
BRANCH  22  23
ATOM     23  C   UNL     1       6.388  -2.804  24.987  0.00  0.00    +0.129 A 
ATOM     24  C   UNL     1       6.811  -4.106  25.308  0.00  0.00    +0.046 A 
ATOM     25  C   UNL     1       6.251  -5.230  24.688  0.00  0.00    +0.004 A 
ATOM     26  C   UNL     1       5.285  -5.060  23.704  0.00  0.00    +0.000 A 
ATOM     27  C   UNL     1       4.810  -3.781  23.428  0.00  0.00    +0.004 A 
ATOM     28  C   UNL     1       5.316  -2.666  24.113  0.00  0.00    +0.046 A 
ENDBRANCH  22  23
ENDBRANCH   2  22
TORSDOF 7
ENDMDL
