MODEL 1
REMARK VINA RESULT:      -5.8      0.000      0.000
REMARK  Name = 
REMARK  3 active torsions:
REMARK  status: ('A' for Active; 'I' for Inactive)
REMARK    1  A    between atoms: N_6  and  C_10
REMARK    2  A    between atoms: C_14  and  C_16
REMARK    3  A    between atoms: C_16  and  O_17
REMARK                            x       y       z     vdW  Elec       q    Type
REMARK                         _______ _______ _______ _____ _____    ______ ____
ROOT
ATOM      1  N   UNL     1       6.052  -5.821  21.118  0.00  0.00    -0.341 N 
ATOM      2  H   UNL     1       5.169  -5.477  20.758  0.00  0.00    +0.144 HD
ATOM      3  H   UNL     1       6.095  -6.818  21.297  0.00  0.00    +0.144 HD
ATOM      4  C   UNL     1       6.718  -5.048  22.029  0.00  0.00    +0.159 A 
ATOM      5  C   UNL     1       6.468  -3.596  22.103  0.00  0.00    +0.179 A 
ATOM      6  F   UNL     1       5.521  -3.069  21.308  0.00  0.00    -0.200 F 
ATOM      7  C   UNL     1       7.202  -2.891  22.954  0.00  0.00    +0.135 A 
ATOM      8  N   UNL     1       8.134  -3.510  23.768  0.00  0.00    -0.269 N 
ATOM      9  C   UNL     1       8.296  -4.911  23.730  0.00  0.00    +0.352 A 
ATOM     10  O   UNL     1       9.068  -5.481  24.498  0.00  0.00    -0.244 OA
ATOM     11  N   UNL     1       7.570  -5.641  22.811  0.00  0.00    -0.175 NA
ENDROOT
BRANCH   8  12
ATOM     12  C   UNL     1       9.001  -2.767  24.693  0.00  0.00    +0.235 C 
ATOM     13  O   UNL     1      10.073  -2.180  23.934  0.00  0.00    -0.340 OA
ATOM     14  C   UNL     1       9.921  -0.761  23.783  0.00  0.00    +0.203 C 
ATOM     15  S   UNL     1       8.438  -0.189  24.640  0.00  0.00    -0.123 S 
ATOM     16  C   UNL     1       8.358  -1.709  25.596  0.00  0.00    +0.126 C 
BRANCH  14  17
ATOM     17  C   UNL     1       9.945  -0.422  22.285  0.00  0.00    +0.198 C 
BRANCH  17  18
ATOM     18  O   UNL     1      10.218  -1.571  21.480  0.00  0.00    -0.392 OA
ATOM     19  H   UNL     1       9.579  -1.532  20.743  0.00  0.00    +0.210 HD
ENDBRANCH  17  18
ENDBRANCH  14  17
ENDBRANCH   8  12
TORSDOF 3
ENDMDL
MODEL 2
REMARK VINA RESULT:      -5.6      3.821      4.908
REMARK  Name = 
REMARK  3 active torsions:
REMARK  status: ('A' for Active; 'I' for Inactive)
REMARK    1  A    between atoms: N_6  and  C_10
REMARK    2  A    between atoms: C_14  and  C_16
REMARK    3  A    between atoms: C_16  and  O_17
REMARK                            x       y       z     vdW  Elec       q    Type
REMARK                         _______ _______ _______ _____ _____    ______ ____
ROOT
ATOM      1  N   UNL     1       5.403  -7.408  28.480  0.00  0.00    -0.341 N 
ATOM      2  H   UNL     1       4.409  -7.601  28.518  0.00  0.00    +0.144 HD
ATOM      3  H   UNL     1       5.870  -7.331  29.376  0.00  0.00    +0.144 HD
ATOM      4  C   UNL     1       5.850  -6.535  27.526  0.00  0.00    +0.159 A 
ATOM      5  C   UNL     1       5.058  -6.289  26.307  0.00  0.00    +0.179 A 
ATOM      6  F   UNL     1       3.859  -6.885  26.193  0.00  0.00    -0.200 F 
ATOM      7  C   UNL     1       5.584  -5.492  25.386  0.00  0.00    +0.135 A 
ATOM      8  N   UNL     1       6.809  -4.885  25.589  0.00  0.00    -0.269 N 
ATOM      9  C   UNL     1       7.509  -5.078  26.800  0.00  0.00    +0.352 A 
ATOM     10  O   UNL     1       8.563  -4.487  27.023  0.00  0.00    -0.244 OA
ATOM     11  N   UNL     1       6.989  -5.944  27.739  0.00  0.00    -0.175 NA
ENDROOT
BRANCH   8  12
ATOM     12  C   UNL     1       7.452  -4.031  24.581  0.00  0.00    +0.235 C 
ATOM     13  O   UNL     1       7.979  -4.876  23.542  0.00  0.00    -0.340 OA
ATOM     14  C   UNL     1       7.206  -4.803  22.336  0.00  0.00    +0.203 C 
ATOM     15  S   UNL     1       5.844  -3.633  22.527  0.00  0.00    -0.123 S 
ATOM     16  C   UNL     1       6.629  -2.894  23.965  0.00  0.00    +0.126 C 
BRANCH  14  17
ATOM     17  C   UNL     1       6.760  -6.222  21.953  0.00  0.00    +0.198 C 
BRANCH  17  18
ATOM     18  O   UNL     1       5.337  -6.337  21.888  0.00  0.00    -0.392 OA
ATOM     19  H   UNL     1       4.993  -5.705  22.548  0.00  0.00    +0.210 HD
ENDBRANCH  17  18
ENDBRANCH  14  17
ENDBRANCH   8  12
TORSDOF 3
ENDMDL
MODEL 3
REMARK VINA RESULT:      -5.6      3.128      3.832
REMARK  Name = 
REMARK  3 active torsions:
REMARK  status: ('A' for Active; 'I' for Inactive)
REMARK    1  A    between atoms: N_6  and  C_10
REMARK    2  A    between atoms: C_14  and  C_16
REMARK    3  A    between atoms: C_16  and  O_17
REMARK                            x       y       z     vdW  Elec       q    Type
REMARK                         _______ _______ _______ _____ _____    ______ ____
ROOT
ATOM      1  N   UNL     1       8.016  -5.884  27.151  0.00  0.00    -0.341 N 
ATOM      2  H   UNL     1       8.777  -6.553  27.152  0.00  0.00    +0.144 HD
ATOM      3  H   UNL     1       7.105  -6.255  27.397  0.00  0.00    +0.144 HD
ATOM      4  C   UNL     1       8.000  -4.933  26.167  0.00  0.00    +0.159 A 
ATOM      5  C   UNL     1       9.244  -4.556  25.470  0.00  0.00    +0.179 A 
ATOM      6  F   UNL     1      10.373  -5.219  25.774  0.00  0.00    -0.200 F 
ATOM      7  C   UNL     1       9.174  -3.573  24.582  0.00  0.00    +0.135 A 
ATOM      8  N   UNL     1       7.967  -2.961  24.295  0.00  0.00    -0.269 N 
ATOM      9  C   UNL     1       6.779  -3.397  24.921  0.00  0.00    +0.352 A 
ATOM     10  O   UNL     1       5.691  -2.912  24.622  0.00  0.00    -0.244 OA
ATOM     11  N   UNL     1       6.857  -4.385  25.881  0.00  0.00    -0.175 NA
ENDROOT
BRANCH   8  12
ATOM     12  C   UNL     1       7.847  -1.840  23.353  0.00  0.00    +0.235 C 
ATOM     13  O   UNL     1       8.150  -0.623  24.059  0.00  0.00    -0.340 OA
ATOM     14  C   UNL     1       9.432  -0.089  23.700  0.00  0.00    +0.203 C 
ATOM     15  S   UNL     1      10.218  -1.121  22.444  0.00  0.00    -0.123 S 
ATOM     16  C   UNL     1       8.648  -1.902  22.048  0.00  0.00    +0.126 C 
BRANCH  14  17
ATOM     17  C   UNL     1      10.266   0.081  24.978  0.00  0.00    +0.198 C 
BRANCH  17  18
ATOM     18  O   UNL     1       9.477  -0.075  26.159  0.00  0.00    -0.392 OA
ATOM     19  H   UNL     1       9.933   0.443  26.849  0.00  0.00    +0.210 HD
ENDBRANCH  17  18
ENDBRANCH  14  17
ENDBRANCH   8  12
TORSDOF 3
ENDMDL
MODEL 4
REMARK VINA RESULT:      -5.5      2.924      5.122
REMARK  Name = 
REMARK  3 active torsions:
REMARK  status: ('A' for Active; 'I' for Inactive)
REMARK    1  A    between atoms: N_6  and  C_10
REMARK    2  A    between atoms: C_14  and  C_16
REMARK    3  A    between atoms: C_16  and  O_17
REMARK                            x       y       z     vdW  Elec       q    Type
REMARK                         _______ _______ _______ _____ _____    ______ ____
ROOT
ATOM      1  N   UNL     1       9.738   1.475  24.952  0.00  0.00    -0.341 N 
ATOM      2  H   UNL     1       9.024   2.157  25.183  0.00  0.00    +0.144 HD
ATOM      3  H   UNL     1      10.557   1.841  24.480  0.00  0.00    +0.144 HD
ATOM      4  C   UNL     1       9.331   0.243  24.519  0.00  0.00    +0.159 A 
ATOM      5  C   UNL     1       7.986  -0.261  24.854  0.00  0.00    +0.179 A 
ATOM      6  F   UNL     1       7.150   0.547  25.529  0.00  0.00    -0.200 F 
ATOM      7  C   UNL     1       7.682  -1.494  24.472  0.00  0.00    +0.135 A 
ATOM      8  N   UNL     1       8.582  -2.255  23.748  0.00  0.00    -0.269 N 
ATOM      9  C   UNL     1       9.832  -1.716  23.374  0.00  0.00    +0.352 A 
ATOM     10  O   UNL     1      10.611  -2.354  22.670  0.00  0.00    -0.244 OA
ATOM     11  N   UNL     1      10.171  -0.453  23.813  0.00  0.00    -0.175 NA
ENDROOT
BRANCH   8  12
ATOM     12  C   UNL     1       8.308  -3.639  23.340  0.00  0.00    +0.235 C 
ATOM     13  O   UNL     1       8.959  -4.522  24.272  0.00  0.00    -0.340 OA
ATOM     14  C   UNL     1       8.029  -5.163  25.157  0.00  0.00    +0.203 C 
ATOM     15  S   UNL     1       6.338  -4.664  24.766  0.00  0.00    -0.123 S 
ATOM     16  C   UNL     1       6.847  -4.063  23.151  0.00  0.00    +0.126 C 
BRANCH  14  17
ATOM     17  C   UNL     1       8.447  -4.868  26.605  0.00  0.00    +0.198 C 
BRANCH  17  18
ATOM     18  O   UNL     1       7.921  -5.830  27.521  0.00  0.00    -0.392 OA
ATOM     19  H   UNL     1       7.556  -6.546  26.967  0.00  0.00    +0.210 HD
ENDBRANCH  17  18
ENDBRANCH  14  17
ENDBRANCH   8  12
TORSDOF 3
ENDMDL
MODEL 5
REMARK VINA RESULT:      -5.5      3.397      4.966
REMARK  Name = 
REMARK  3 active torsions:
REMARK  status: ('A' for Active; 'I' for Inactive)
REMARK    1  A    between atoms: N_6  and  C_10
REMARK    2  A    between atoms: C_14  and  C_16
REMARK    3  A    between atoms: C_16  and  O_17
REMARK                            x       y       z     vdW  Elec       q    Type
REMARK                         _______ _______ _______ _____ _____    ______ ____
ROOT
ATOM      1  N   UNL     1      10.066   2.216  21.526  0.00  0.00    -0.341 N 
ATOM      2  H   UNL     1      10.193   2.087  20.529  0.00  0.00    +0.144 HD
ATOM      3  H   UNL     1      10.640   2.936  21.951  0.00  0.00    +0.144 HD
ATOM      4  C   UNL     1       9.880   1.103  22.298  0.00  0.00    +0.159 A 
ATOM      5  C   UNL     1       9.373  -0.146  21.700  0.00  0.00    +0.179 A 
ATOM      6  F   UNL     1       9.169  -0.183  20.372  0.00  0.00    -0.200 F 
ATOM      7  C   UNL     1       9.140  -1.165  22.517  0.00  0.00    +0.135 A 
ATOM      8  N   UNL     1       9.408  -1.065  23.870  0.00  0.00    -0.269 N 
ATOM      9  C   UNL     1       9.968   0.117  24.401  0.00  0.00    +0.352 A 
ATOM     10  O   UNL     1      10.279   0.193  25.588  0.00  0.00    -0.244 OA
ATOM     11  N   UNL     1      10.164   1.195  23.563  0.00  0.00    -0.175 NA
ENDROOT
BRANCH   8  12
ATOM     12  C   UNL     1       9.127  -2.150  24.820  0.00  0.00    +0.235 C 
ATOM     13  O   UNL     1       7.794  -1.967  25.332  0.00  0.00    -0.340 OA
ATOM     14  C   UNL     1       6.868  -2.921  24.792  0.00  0.00    +0.203 C 
ATOM     15  S   UNL     1       7.711  -4.058  23.672  0.00  0.00    -0.123 S 
ATOM     16  C   UNL     1       9.312  -3.595  24.345  0.00  0.00    +0.126 C 
BRANCH  14  17
ATOM     17  C   UNL     1       5.702  -2.159  24.145  0.00  0.00    +0.198 C 
BRANCH  17  18
ATOM     18  O   UNL     1       5.813  -2.118  22.721  0.00  0.00    -0.392 OA
ATOM     19  H   UNL     1       5.027  -1.628  22.411  0.00  0.00    +0.210 HD
ENDBRANCH  17  18
ENDBRANCH  14  17
ENDBRANCH   8  12
TORSDOF 3
ENDMDL
MODEL 6
REMARK VINA RESULT:      -5.3      1.548      1.577
REMARK  Name = 
REMARK  3 active torsions:
REMARK  status: ('A' for Active; 'I' for Inactive)
REMARK    1  A    between atoms: N_6  and  C_10
REMARK    2  A    between atoms: C_14  and  C_16
REMARK    3  A    between atoms: C_16  and  O_17
REMARK                            x       y       z     vdW  Elec       q    Type
REMARK                         _______ _______ _______ _____ _____    ______ ____
ROOT
ATOM      1  N   UNL     1       4.603  -6.392  22.610  0.00  0.00    -0.341 N 
ATOM      2  H   UNL     1       4.210  -6.043  21.744  0.00  0.00    +0.144 HD
ATOM      3  H   UNL     1       3.937  -6.772  23.273  0.00  0.00    +0.144 HD
ATOM      4  C   UNL     1       5.635  -5.693  23.174  0.00  0.00    +0.159 A 
ATOM      5  C   UNL     1       6.477  -4.806  22.348  0.00  0.00    +0.179 A 
ATOM      6  F   UNL     1       6.160  -4.648  21.052  0.00  0.00    -0.200 F 
ATOM      7  C   UNL     1       7.509  -4.218  22.939  0.00  0.00    +0.135 A 
ATOM      8  N   UNL     1       7.752  -4.400  24.288  0.00  0.00    -0.269 N 
ATOM      9  C   UNL     1       6.883  -5.193  25.069  0.00  0.00    +0.352 A 
ATOM     10  O   UNL     1       7.045  -5.304  26.282  0.00  0.00    -0.244 OA
ATOM     11  N   UNL     1       5.838  -5.845  24.448  0.00  0.00    -0.175 NA
ENDROOT
BRANCH   8  12
ATOM     12  C   UNL     1       8.905  -3.806  24.977  0.00  0.00    +0.235 C 
ATOM     13  O   UNL     1       9.804  -3.282  23.983  0.00  0.00    -0.340 OA
ATOM     14  C   UNL     1       9.778  -1.848  23.926  0.00  0.00    +0.203 C 
ATOM     15  S   UNL     1       8.640  -1.187  25.162  0.00  0.00    -0.123 S 
ATOM     16  C   UNL     1       8.640  -2.748  26.053  0.00  0.00    +0.126 C 
BRANCH  14  17
ATOM     17  C   UNL     1       9.452  -1.422  22.487  0.00  0.00    +0.198 C 
BRANCH  17  18
ATOM     18  O   UNL     1      10.562  -1.608  21.607  0.00  0.00    -0.392 OA
ATOM     19  H   UNL     1      10.780  -0.719  21.269  0.00  0.00    +0.210 HD
ENDBRANCH  17  18
ENDBRANCH  14  17
ENDBRANCH   8  12
TORSDOF 3
ENDMDL
MODEL 7
REMARK VINA RESULT:      -5.2      2.792      3.533
REMARK  Name = 
REMARK  3 active torsions:
REMARK  status: ('A' for Active; 'I' for Inactive)
REMARK    1  A    between atoms: N_6  and  C_10
REMARK    2  A    between atoms: C_14  and  C_16
REMARK    3  A    between atoms: C_16  and  O_17
REMARK                            x       y       z     vdW  Elec       q    Type
REMARK                         _______ _______ _______ _____ _____    ______ ____
ROOT
ATOM      1  N   UNL     1       7.092  -5.837  26.177  0.00  0.00    -0.341 N 
ATOM      2  H   UNL     1       7.707  -6.165  26.912  0.00  0.00    +0.144 HD
ATOM      3  H   UNL     1       6.481  -6.537  25.770  0.00  0.00    +0.144 HD
ATOM      4  C   UNL     1       7.586  -4.924  25.286  0.00  0.00    +0.159 A 
ATOM      5  C   UNL     1       8.735  -4.072  25.649  0.00  0.00    +0.179 A 
ATOM      6  F   UNL     1       9.324  -4.266  26.841  0.00  0.00    -0.200 F 
ATOM      7  C   UNL     1       9.116  -3.153  24.771  0.00  0.00    +0.135 A 
ATOM      8  N   UNL     1       8.483  -3.035  23.547  0.00  0.00    -0.269 N 
ATOM      9  C   UNL     1       7.437  -3.917  23.197  0.00  0.00    +0.352 A 
ATOM     10  O   UNL     1       6.916  -3.871  22.085  0.00  0.00    -0.244 OA
ATOM     11  N   UNL     1       7.006  -4.840  24.126  0.00  0.00    -0.175 NA
ENDROOT
BRANCH   8  12
ATOM     12  C   UNL     1       8.840  -2.006  22.561  0.00  0.00    +0.235 C 
ATOM     13  O   UNL     1       7.959  -0.882  22.743  0.00  0.00    -0.340 OA
ATOM     14  C   UNL     1       8.620   0.235  23.355  0.00  0.00    +0.203 C 
ATOM     15  S   UNL     1      10.359  -0.146  23.656  0.00  0.00    -0.123 S 
ATOM     16  C   UNL     1      10.295  -1.528  22.508  0.00  0.00    +0.126 C 
BRANCH  14  17
ATOM     17  C   UNL     1       7.841   0.632  24.618  0.00  0.00    +0.198 C 
BRANCH  17  18
ATOM     18  O   UNL     1       8.652   1.362  25.540  0.00  0.00    -0.392 OA
ATOM     19  H   UNL     1       9.289   0.713  25.897  0.00  0.00    +0.210 HD
ENDBRANCH  17  18
ENDBRANCH  14  17
ENDBRANCH   8  12
TORSDOF 3
ENDMDL
MODEL 8
REMARK VINA RESULT:      -5.2      3.062      4.018
REMARK  Name = 
REMARK  3 active torsions:
REMARK  status: ('A' for Active; 'I' for Inactive)
REMARK    1  A    between atoms: N_6  and  C_10
REMARK    2  A    between atoms: C_14  and  C_16
REMARK    3  A    between atoms: C_16  and  O_17
REMARK                            x       y       z     vdW  Elec       q    Type
REMARK                         _______ _______ _______ _____ _____    ______ ____
ROOT
ATOM      1  N   UNL     1       8.427  -4.434  25.259  0.00  0.00    -0.341 N 
ATOM      2  H   UNL     1       8.227  -4.576  26.242  0.00  0.00    +0.144 HD
ATOM      3  H   UNL     1       8.859  -5.217  24.782  0.00  0.00    +0.144 HD
ATOM      4  C   UNL     1       8.883  -3.205  24.868  0.00  0.00    +0.159 A 
ATOM      5  C   UNL     1       8.613  -2.011  25.690  0.00  0.00    +0.179 A 
ATOM      6  F   UNL     1       7.975  -2.172  26.862  0.00  0.00    -0.200 F 
ATOM      7  C   UNL     1       9.013  -0.838  25.216  0.00  0.00    +0.135 A 
ATOM      8  N   UNL     1       9.696  -0.754  24.017  0.00  0.00    -0.269 N 
ATOM      9  C   UNL     1      10.009  -1.923  23.290  0.00  0.00    +0.352 A 
ATOM     10  O   UNL     1      10.678  -1.869  22.261  0.00  0.00    -0.244 OA
ATOM     11  N   UNL     1       9.551  -3.138  23.755  0.00  0.00    -0.175 NA
ENDROOT
BRANCH   8  12
ATOM     12  C   UNL     1      10.121   0.524  23.430  0.00  0.00    +0.235 C 
ATOM     13  O   UNL     1       9.264   0.814  22.311  0.00  0.00    -0.340 OA
ATOM     14  C   UNL     1       8.332   1.867  22.595  0.00  0.00    +0.203 C 
ATOM     15  S   UNL     1       8.582   2.498  24.269  0.00  0.00    -0.123 S 
ATOM     16  C   UNL     1      10.214   1.747  24.349  0.00  0.00    +0.126 C 
BRANCH  14  17
ATOM     17  C   UNL     1       6.911   1.347  22.332  0.00  0.00    +0.198 C 
BRANCH  17  18
ATOM     18  O   UNL     1       6.556   0.284  23.219  0.00  0.00    -0.392 OA
ATOM     19  H   UNL     1       5.911  -0.261  22.729  0.00  0.00    +0.210 HD
ENDBRANCH  17  18
ENDBRANCH  14  17
ENDBRANCH   8  12
TORSDOF 3
ENDMDL
MODEL 9
REMARK VINA RESULT:      -5.1      2.299      2.451
REMARK  Name = 
REMARK  3 active torsions:
REMARK  status: ('A' for Active; 'I' for Inactive)
REMARK    1  A    between atoms: N_6  and  C_10
REMARK    2  A    between atoms: C_14  and  C_16
REMARK    3  A    between atoms: C_16  and  O_17
REMARK                            x       y       z     vdW  Elec       q    Type
REMARK                         _______ _______ _______ _____ _____    ______ ____
ROOT
ATOM      1  N   UNL     1       4.985  -6.182  22.370  0.00  0.00    -0.341 N 
ATOM      2  H   UNL     1       5.346  -6.589  21.515  0.00  0.00    +0.144 HD
ATOM      3  H   UNL     1       3.985  -6.273  22.511  0.00  0.00    +0.144 HD
ATOM      4  C   UNL     1       5.515  -4.992  22.787  0.00  0.00    +0.159 A 
ATOM      5  C   UNL     1       6.859  -4.576  22.346  0.00  0.00    +0.179 A 
ATOM      6  F   UNL     1       7.516  -5.358  21.471  0.00  0.00    -0.200 F 
ATOM      7  C   UNL     1       7.347  -3.449  22.849  0.00  0.00    +0.135 A 
ATOM      8  N   UNL     1       6.598  -2.678  23.718  0.00  0.00    -0.269 N 
ATOM      9  C   UNL     1       5.283  -3.061  24.060  0.00  0.00    +0.352 A 
ATOM     10  O   UNL     1       4.581  -2.348  24.773  0.00  0.00    -0.244 OA
ATOM     11  N   UNL     1       4.792  -4.257  23.579  0.00  0.00    -0.175 NA
ENDROOT
BRANCH   8  12
ATOM     12  C   UNL     1       7.110  -1.447  24.334  0.00  0.00    +0.235 C 
ATOM     13  O   UNL     1       8.527  -1.598  24.534  0.00  0.00    -0.340 OA
ATOM     14  C   UNL     1       9.296  -0.818  23.606  0.00  0.00    +0.203 C 
ATOM     15  S   UNL     1       8.206   0.124  22.518  0.00  0.00    -0.123 S 
ATOM     16  C   UNL     1       6.819  -0.113  23.637  0.00  0.00    +0.126 C 
BRANCH  14  17
ATOM     17  C   UNL     1      10.262  -1.753  22.863  0.00  0.00    +0.198 C 
BRANCH  17  18
ATOM     18  O   UNL     1      10.226  -1.547  21.450  0.00  0.00    -0.392 OA
ATOM     19  H   UNL     1       9.947  -2.402  21.068  0.00  0.00    +0.210 HD
ENDBRANCH  17  18
ENDBRANCH  14  17
ENDBRANCH   8  12
TORSDOF 3
ENDMDL
