MODEL 1
REMARK VINA RESULT:      -6.9      0.000      0.000
REMARK  Name = 
REMARK  11 active torsions:
REMARK  status: ('A' for Active; 'I' for Inactive)
REMARK    1  A    between atoms: C_5  and  C_6
REMARK    2  A    between atoms: C_6  and  S_7
REMARK    3  A    between atoms: S_7  and  C_8
REMARK    4  A    between atoms: N_12  and  C_13
REMARK    5  A    between atoms: CA_14  and  C_33
REMARK    6  A    between atoms: CA_18  and  N_20
REMARK    7  A    between atoms: C_21  and  C_23
REMARK    8  A    between atoms: C_23  and  C_27
REMARK    9  A    between atoms: N_24  and  O_25
REMARK   10  A    between atoms: O_25  and  C_26
REMARK   11  A    between atoms: C_33  and  O_34
REMARK                            x       y       z     vdW  Elec       q    Type
REMARK                         _______ _______ _______ _____ _____    ______ ____
ROOT
ATOM      1  C   UNL     1       8.824  -1.886  26.311  0.00  0.00    +0.169 C 
ATOM      2  CA  UNL     1       9.790  -1.956  25.044  0.00  0.00    +0.191 C 
ATOM      3  C   UNL     1       9.389  -3.461  25.137  0.00  0.00    +0.244 C 
ATOM      4  O   UNL     1       9.717  -4.487  24.591  0.00  0.00    -0.273 OA
ATOM      5  N   UNL     1       8.283  -3.129  25.828  0.00  0.00    -0.249 N 
ATOM      6  CA  UNL     1       7.145  -3.745  26.252  0.00  0.00    +0.123 C 
ATOM      7  C   UNL     1       6.102  -3.005  26.698  0.00  0.00    -0.021 C 
ATOM      8  C   UNL     1       6.099  -1.495  26.858  0.00  0.00    +0.104 C 
ATOM      9  S   UNL     1       7.677  -0.611  26.759  0.00  0.00    -0.131 S 
ENDROOT
BRANCH   2  10
ATOM     10  N   UNL     1       9.676  -1.487  23.602  0.00  0.00    -0.296 N 
ATOM     11  H   UNL     1      10.544  -1.246  23.126  0.00  0.00    +0.150 HD
ATOM     12  C   UNL     1       8.639  -1.406  22.652  0.00  0.00    +0.268 C 
ATOM     13  O   UNL     1       8.935  -1.049  21.521  0.00  0.00    -0.268 OA
BRANCH  12  14
ATOM     14  C   UNL     1       7.158  -1.539  23.007  0.00  0.00    +0.190 C 
ATOM     15  N   UNL     1       6.387  -0.593  23.465  0.00  0.00    -0.078 NA
BRANCH  14  16
ATOM     16  C   UNL     1       6.363  -2.730  22.624  0.00  0.00    +0.107 A 
ATOM     17  N   UNL     1       5.107  -3.011  23.159  0.00  0.00    -0.223 NA
ATOM     18  C   UNL     1       4.801  -4.274  22.972  0.00  0.00    +0.156 A 
ATOM     19  N   UNL     1       3.739  -4.876  23.521  0.00  0.00    -0.338 N 
ATOM     20  H   UNL     1       3.068  -4.326  24.038  0.00  0.00    +0.144 HD
ATOM     21  H   UNL     1       3.509  -5.841  23.325  0.00  0.00    +0.144 HD
ATOM     22  S   UNL     1       5.887  -5.166  21.988  0.00  0.00    -0.060 S 
ATOM     23  C   UNL     1       6.889  -3.786  21.883  0.00  0.00    +0.078 A 
ENDBRANCH  14  16
BRANCH  15  24
ATOM     24  O   UNL     1       6.702   0.766  23.526  0.00  0.00    -0.396 OA
ATOM     25  C   UNL     1       6.698   1.556  22.361  0.00  0.00    +0.313 C 
ENDBRANCH  15  24
ENDBRANCH  12  14
ENDBRANCH   2  10
BRANCH   6  26
ATOM     26  C   UNL     1       6.988  -5.238  26.132  0.00  0.00    +0.351 C 
ATOM     27  OXT UNL     1       6.166  -5.757  25.388  0.00  0.00    -0.244 OA
BRANCH  26  28
ATOM     28  O   UNL     1       7.814  -6.007  26.855  0.00  0.00    -0.476 OA
ATOM     29  H   UNL     1       7.614  -6.133  27.807  0.00  0.00    +0.295 HD
ENDBRANCH  26  28
ENDBRANCH   6  26
BRANCH   7  30
ATOM     30  C   UNL     1       4.680  -3.563  26.913  0.00  0.00    +0.111 C 
BRANCH  30  31
ATOM     31  S   UNL     1       4.413  -3.801  28.694  0.00  0.00    -0.080 S 
BRANCH  31  32
ATOM     32  C   UNL     1       5.130  -5.348  28.942  0.00  0.00    +0.209 A 
ATOM     33  N   UNL     1       4.640  -6.506  28.413  0.00  0.00    -0.223 N 
ATOM     34  C   UNL     1       3.423  -6.738  27.687  0.00  0.00    +0.177 C 
ATOM     35  N   UNL     1       5.495  -7.513  28.671  0.00  0.00    -0.043 NA
ATOM     36  N   UNL     1       6.479  -6.960  29.370  0.00  0.00    -0.022 NA
ATOM     37  N   UNL     1       6.261  -5.611  29.554  0.00  0.00    -0.102 NA
ENDBRANCH  31  32
ENDBRANCH  30  31
ENDBRANCH   7  30
TORSDOF 9
ENDMDL
MODEL 2
REMARK VINA RESULT:      -6.8      4.218      7.046
REMARK  Name = 
REMARK  11 active torsions:
REMARK  status: ('A' for Active; 'I' for Inactive)
REMARK    1  A    between atoms: C_5  and  C_6
REMARK    2  A    between atoms: C_6  and  S_7
REMARK    3  A    between atoms: S_7  and  C_8
REMARK    4  A    between atoms: N_12  and  C_13
REMARK    5  A    between atoms: CA_14  and  C_33
REMARK    6  A    between atoms: CA_18  and  N_20
REMARK    7  A    between atoms: C_21  and  C_23
REMARK    8  A    between atoms: C_23  and  C_27
REMARK    9  A    between atoms: N_24  and  O_25
REMARK   10  A    between atoms: O_25  and  C_26
REMARK   11  A    between atoms: C_33  and  O_34
REMARK                            x       y       z     vdW  Elec       q    Type
REMARK                         _______ _______ _______ _____ _____    ______ ____
ROOT
ATOM      1  C   UNL     1       7.962   0.711  24.864  0.00  0.00    +0.169 C 
ATOM      2  CA  UNL     1       8.568   2.113  24.407  0.00  0.00    +0.191 C 
ATOM      3  C   UNL     1       9.642   1.164  23.790  0.00  0.00    +0.244 C 
ATOM      4  O   UNL     1      10.706   1.295  23.236  0.00  0.00    -0.273 OA
ATOM      5  N   UNL     1       8.760   0.147  23.807  0.00  0.00    -0.249 N 
ATOM      6  CA  UNL     1       8.680  -1.117  23.307  0.00  0.00    +0.123 C 
ATOM      7  C   UNL     1       7.492  -1.766  23.295  0.00  0.00    -0.021 C 
ATOM      8  C   UNL     1       6.195  -1.237  23.882  0.00  0.00    +0.104 C 
ATOM      9  S   UNL     1       6.263   0.217  24.961  0.00  0.00    -0.131 S 
ENDROOT
BRANCH   2  10
ATOM     10  N   UNL     1       8.158   3.155  23.379  0.00  0.00    -0.296 N 
ATOM     11  H   UNL     1       7.823   2.809  22.481  0.00  0.00    +0.150 HD
ATOM     12  C   UNL     1       7.993   4.555  23.377  0.00  0.00    +0.268 C 
ATOM     13  O   UNL     1       7.549   5.070  22.362  0.00  0.00    -0.268 OA
BRANCH  12  14
ATOM     14  C   UNL     1       8.524   5.466  24.483  0.00  0.00    +0.190 C 
ATOM     15  N   UNL     1       7.962   5.685  25.639  0.00  0.00    -0.078 NA
BRANCH  14  16
ATOM     16  C   UNL     1       9.900   6.019  24.452  0.00  0.00    +0.107 A 
ATOM     17  N   UNL     1      10.871   5.593  23.547  0.00  0.00    -0.223 NA
ATOM     18  C   UNL     1      12.069   5.928  23.969  0.00  0.00    +0.156 A 
ATOM     19  N   UNL     1      13.205   5.510  23.400  0.00  0.00    -0.338 N 
ATOM     20  H   UNL     1      13.166   4.980  22.540  0.00  0.00    +0.144 HD
ATOM     21  H   UNL     1      14.113   5.818  23.725  0.00  0.00    +0.144 HD
ATOM     22  S   UNL     1      12.116   6.930  25.360  0.00  0.00    -0.060 S 
ATOM     23  C   UNL     1      10.413   6.831  25.461  0.00  0.00    +0.078 A 
ENDBRANCH  14  16
BRANCH  15  24
ATOM     24  O   UNL     1       6.881   4.979  26.173  0.00  0.00    -0.396 OA
ATOM     25  C   UNL     1       7.083   4.010  27.174  0.00  0.00    +0.313 C 
ENDBRANCH  15  24
ENDBRANCH  12  14
ENDBRANCH   2  10
BRANCH   6  26
ATOM     26  C   UNL     1       9.878  -1.767  22.665  0.00  0.00    +0.351 C 
ATOM     27  OXT UNL     1      10.557  -2.610  23.237  0.00  0.00    -0.244 OA
BRANCH  26  28
ATOM     28  O   UNL     1      10.173  -1.414  21.406  0.00  0.00    -0.476 OA
ATOM     29  H   UNL     1      10.005  -2.065  20.691  0.00  0.00    +0.295 HD
ENDBRANCH  26  28
ENDBRANCH   6  26
BRANCH   7  30
ATOM     30  C   UNL     1       7.222  -3.055  22.494  0.00  0.00    +0.111 C 
BRANCH  30  31
ATOM     31  S   UNL     1       6.591  -4.324  23.630  0.00  0.00    -0.080 S 
BRANCH  31  32
ATOM     32  C   UNL     1       7.953  -4.569  24.658  0.00  0.00    +0.209 A 
ATOM     33  N   UNL     1       8.005  -4.161  25.958  0.00  0.00    -0.223 N 
ATOM     34  C   UNL     1       7.074  -3.364  26.706  0.00  0.00    +0.177 C 
ATOM     35  N   UNL     1       9.135  -4.620  26.527  0.00  0.00    -0.043 NA
ATOM     36  N   UNL     1       9.762  -5.281  25.561  0.00  0.00    -0.022 NA
ATOM     37  N   UNL     1       9.041  -5.251  24.387  0.00  0.00    -0.102 NA
ENDBRANCH  31  32
ENDBRANCH  30  31
ENDBRANCH   7  30
TORSDOF 9
ENDMDL
MODEL 3
REMARK VINA RESULT:      -6.7      3.276      7.777
REMARK  Name = 
REMARK  11 active torsions:
REMARK  status: ('A' for Active; 'I' for Inactive)
REMARK    1  A    between atoms: C_5  and  C_6
REMARK    2  A    between atoms: C_6  and  S_7
REMARK    3  A    between atoms: S_7  and  C_8
REMARK    4  A    between atoms: N_12  and  C_13
REMARK    5  A    between atoms: CA_14  and  C_33
REMARK    6  A    between atoms: CA_18  and  N_20
REMARK    7  A    between atoms: C_21  and  C_23
REMARK    8  A    between atoms: C_23  and  C_27
REMARK    9  A    between atoms: N_24  and  O_25
REMARK   10  A    between atoms: O_25  and  C_26
REMARK   11  A    between atoms: C_33  and  O_34
REMARK                            x       y       z     vdW  Elec       q    Type
REMARK                         _______ _______ _______ _____ _____    ______ ____
ROOT
ATOM      1  C   UNL     1       7.157  -0.924  23.157  0.00  0.00    +0.169 C 
ATOM      2  CA  UNL     1       8.171  -2.075  22.722  0.00  0.00    +0.191 C 
ATOM      3  C   UNL     1       9.006  -0.829  22.290  0.00  0.00    +0.244 C 
ATOM      4  O   UNL     1      10.037  -0.635  21.692  0.00  0.00    -0.273 OA
ATOM      5  N   UNL     1       8.308  -0.059  23.145  0.00  0.00    -0.249 N 
ATOM      6  CA  UNL     1       8.387   1.204  23.646  0.00  0.00    +0.123 C 
ATOM      7  C   UNL     1       7.642   1.552  24.722  0.00  0.00    -0.021 C 
ATOM      8  C   UNL     1       6.620   0.664  25.409  0.00  0.00    +0.104 C 
ATOM      9  S   UNL     1       6.099  -0.859  24.577  0.00  0.00    -0.131 S 
ENDROOT
BRANCH   2  10
ATOM     10  N   UNL     1       9.058  -3.044  23.486  0.00  0.00    -0.296 N 
ATOM     11  H   UNL     1      10.065  -2.936  23.370  0.00  0.00    +0.150 HD
ATOM     12  C   UNL     1       8.853  -4.036  24.465  0.00  0.00    +0.268 C 
ATOM     13  O   UNL     1       9.841  -4.578  24.938  0.00  0.00    -0.268 OA
BRANCH  12  14
ATOM     14  C   UNL     1       7.477  -4.604  24.812  0.00  0.00    +0.190 C 
ATOM     15  N   UNL     1       6.660  -5.203  23.992  0.00  0.00    -0.078 NA
BRANCH  14  16
ATOM     16  C   UNL     1       7.021  -4.756  26.215  0.00  0.00    +0.107 A 
ATOM     17  N   UNL     1       7.358  -5.849  27.011  0.00  0.00    -0.223 NA
ATOM     18  C   UNL     1       6.537  -5.945  28.031  0.00  0.00    +0.156 A 
ATOM     19  N   UNL     1       6.506  -6.986  28.870  0.00  0.00    -0.338 N 
ATOM     20  H   UNL     1       7.206  -7.711  28.791  0.00  0.00    +0.144 HD
ATOM     21  H   UNL     1       5.888  -7.012  29.671  0.00  0.00    +0.144 HD
ATOM     22  S   UNL     1       5.434  -4.646  28.224  0.00  0.00    -0.060 S 
ATOM     23  C   UNL     1       6.036  -3.951  26.783  0.00  0.00    +0.078 A 
ENDBRANCH  14  16
BRANCH  15  24
ATOM     24  O   UNL     1       6.961  -5.624  22.695  0.00  0.00    -0.396 OA
ATOM     25  C   UNL     1       6.226  -5.140  21.596  0.00  0.00    +0.313 C 
ENDBRANCH  15  24
ENDBRANCH  12  14
ENDBRANCH   2  10
BRANCH   6  26
ATOM     26  C   UNL     1       9.376   2.194  23.087  0.00  0.00    +0.351 C 
ATOM     27  OXT UNL     1      10.531   2.270  23.486  0.00  0.00    -0.244 OA
BRANCH  26  28
ATOM     28  O   UNL     1       8.958   2.990  22.093  0.00  0.00    -0.476 OA
ATOM     29  H   UNL     1       9.427   3.840  21.952  0.00  0.00    +0.295 HD
ENDBRANCH  26  28
ENDBRANCH   6  26
BRANCH   7  30
ATOM     30  C   UNL     1       7.869   2.834  25.549  0.00  0.00    +0.111 C 
BRANCH  30  31
ATOM     31  S   UNL     1       6.441   3.933  25.320  0.00  0.00    -0.080 S 
BRANCH  31  32
ATOM     32  C   UNL     1       6.918   4.826  23.925  0.00  0.00    +0.209 A 
ATOM     33  N   UNL     1       7.882   5.790  23.935  0.00  0.00    -0.223 N 
ATOM     34  C   UNL     1       8.594   6.363  25.043  0.00  0.00    +0.177 C 
ATOM     35  N   UNL     1       8.119   6.198  22.674  0.00  0.00    -0.043 NA
ATOM     36  N   UNL     1       7.283   5.494  21.921  0.00  0.00    -0.022 NA
ATOM     37  N   UNL     1       6.521   4.639  22.688  0.00  0.00    -0.102 NA
ENDBRANCH  31  32
ENDBRANCH  30  31
ENDBRANCH   7  30
TORSDOF 9
ENDMDL
MODEL 4
REMARK VINA RESULT:      -6.7      3.039      5.013
REMARK  Name = 
REMARK  11 active torsions:
REMARK  status: ('A' for Active; 'I' for Inactive)
REMARK    1  A    between atoms: C_5  and  C_6
REMARK    2  A    between atoms: C_6  and  S_7
REMARK    3  A    between atoms: S_7  and  C_8
REMARK    4  A    between atoms: N_12  and  C_13
REMARK    5  A    between atoms: CA_14  and  C_33
REMARK    6  A    between atoms: CA_18  and  N_20
REMARK    7  A    between atoms: C_21  and  C_23
REMARK    8  A    between atoms: C_23  and  C_27
REMARK    9  A    between atoms: N_24  and  O_25
REMARK   10  A    between atoms: O_25  and  C_26
REMARK   11  A    between atoms: C_33  and  O_34
REMARK                            x       y       z     vdW  Elec       q    Type
REMARK                         _______ _______ _______ _____ _____    ______ ____
ROOT
ATOM      1  C   UNL     1       9.276  -0.704  25.247  0.00  0.00    +0.169 C 
ATOM      2  CA  UNL     1       9.984  -0.287  23.881  0.00  0.00    +0.191 C 
ATOM      3  C   UNL     1      10.045  -1.840  23.732  0.00  0.00    +0.244 C 
ATOM      4  O   UNL     1      10.546  -2.623  22.962  0.00  0.00    -0.273 OA
ATOM      5  N   UNL     1       9.030  -1.969  24.606  0.00  0.00    -0.249 N 
ATOM      6  CA  UNL     1       8.204  -2.960  25.041  0.00  0.00    +0.123 C 
ATOM      7  C   UNL     1       7.090  -2.650  25.747  0.00  0.00    -0.021 C 
ATOM      8  C   UNL     1       6.690  -1.255  26.193  0.00  0.00    +0.104 C 
ATOM      9  S   UNL     1       7.914   0.076  26.071  0.00  0.00    -0.131 S 
ENDROOT
BRANCH   2  10
ATOM     10  N   UNL     1       9.491   0.330  22.582  0.00  0.00    -0.296 N 
ATOM     11  H   UNL     1       9.623  -0.217  21.733  0.00  0.00    +0.150 HD
ATOM     12  C   UNL     1       8.747   1.475  22.233  0.00  0.00    +0.268 C 
ATOM     13  O   UNL     1       8.448   1.617  21.056  0.00  0.00    -0.268 OA
BRANCH  12  14
ATOM     14  C   UNL     1       8.476   2.629  23.197  0.00  0.00    +0.190 C 
ATOM     15  N   UNL     1       9.369   3.295  23.874  0.00  0.00    -0.078 NA
BRANCH  14  16
ATOM     16  C   UNL     1       7.152   3.292  23.275  0.00  0.00    +0.107 A 
ATOM     17  N   UNL     1       5.946   2.601  23.162  0.00  0.00    -0.223 NA
ATOM     18  C   UNL     1       4.969   3.428  22.870  0.00  0.00    +0.156 A 
ATOM     19  N   UNL     1       3.734   3.038  22.536  0.00  0.00    -0.338 N 
ATOM     20  H   UNL     1       3.489   2.059  22.593  0.00  0.00    +0.144 HD
ATOM     21  H   UNL     1       2.992   3.701  22.355  0.00  0.00    +0.144 HD
ATOM     22  S   UNL     1       5.371   5.095  22.897  0.00  0.00    -0.060 S 
ATOM     23  C   UNL     1       6.993   4.676  23.230  0.00  0.00    +0.078 A 
ENDBRANCH  14  16
BRANCH  15  24
ATOM     24  O   UNL     1      10.753   3.224  23.699  0.00  0.00    -0.396 OA
ATOM     25  C   UNL     1      11.490   4.369  23.346  0.00  0.00    +0.313 C 
ENDBRANCH  15  24
ENDBRANCH  12  14
ENDBRANCH   2  10
BRANCH   6  26
ATOM     26  C   UNL     1       8.454  -4.394  24.656  0.00  0.00    +0.351 C 
ATOM     27  OXT UNL     1       8.826  -5.238  25.461  0.00  0.00    -0.244 OA
BRANCH  26  28
ATOM     28  O   UNL     1       8.223  -4.741  23.381  0.00  0.00    -0.476 OA
ATOM     29  H   UNL     1       8.580  -5.598  23.063  0.00  0.00    +0.295 HD
ENDBRANCH  26  28
ENDBRANCH   6  26
BRANCH   7  30
ATOM     30  C   UNL     1       5.943  -3.643  26.025  0.00  0.00    +0.111 C 
BRANCH  30  31
ATOM     31  S   UNL     1       4.542  -3.229  24.946  0.00  0.00    -0.080 S 
BRANCH  31  32
ATOM     32  C   UNL     1       5.111  -3.787  23.418  0.00  0.00    +0.209 A 
ATOM     33  N   UNL     1       5.022  -5.083  23.003  0.00  0.00    -0.223 N 
ATOM     34  C   UNL     1       4.595  -6.249  23.725  0.00  0.00    +0.177 C 
ATOM     35  N   UNL     1       5.422  -5.171  21.721  0.00  0.00    -0.043 NA
ATOM     36  N   UNL     1       5.768  -3.935  21.383  0.00  0.00    -0.022 NA
ATOM     37  N   UNL     1       5.587  -3.062  22.434  0.00  0.00    -0.102 NA
ENDBRANCH  31  32
ENDBRANCH  30  31
ENDBRANCH   7  30
TORSDOF 9
ENDMDL
MODEL 5
REMARK VINA RESULT:      -6.5      3.807      6.520
REMARK  Name = 
REMARK  11 active torsions:
REMARK  status: ('A' for Active; 'I' for Inactive)
REMARK    1  A    between atoms: C_5  and  C_6
REMARK    2  A    between atoms: C_6  and  S_7
REMARK    3  A    between atoms: S_7  and  C_8
REMARK    4  A    between atoms: N_12  and  C_13
REMARK    5  A    between atoms: CA_14  and  C_33
REMARK    6  A    between atoms: CA_18  and  N_20
REMARK    7  A    between atoms: C_21  and  C_23
REMARK    8  A    between atoms: C_23  and  C_27
REMARK    9  A    between atoms: N_24  and  O_25
REMARK   10  A    between atoms: O_25  and  C_26
REMARK   11  A    between atoms: C_33  and  O_34
REMARK                            x       y       z     vdW  Elec       q    Type
REMARK                         _______ _______ _______ _____ _____    ______ ____
ROOT
ATOM      1  C   UNL     1       9.194   0.084  25.628  0.00  0.00    +0.169 C 
ATOM      2  CA  UNL     1       9.677   0.977  24.398  0.00  0.00    +0.191 C 
ATOM      3  C   UNL     1      10.008  -0.437  23.826  0.00  0.00    +0.244 C 
ATOM      4  O   UNL     1      10.568  -0.874  22.850  0.00  0.00    -0.273 OA
ATOM      5  N   UNL     1       9.124  -0.993  24.676  0.00  0.00    -0.249 N 
ATOM      6  CA  UNL     1       8.542  -2.210  24.858  0.00  0.00    +0.123 C 
ATOM      7  C   UNL     1       7.465  -2.329  25.671  0.00  0.00    -0.021 C 
ATOM      8  C   UNL     1       6.860  -1.209  26.500  0.00  0.00    +0.104 C 
ATOM      9  S   UNL     1       7.799   0.328  26.693  0.00  0.00    -0.131 S 
ENDROOT
BRANCH   2  10
ATOM     10  N   UNL     1       8.954   1.797  23.342  0.00  0.00    -0.296 N 
ATOM     11  H   UNL     1       8.623   1.297  22.518  0.00  0.00    +0.150 HD
ATOM     12  C   UNL     1       8.486   3.122  23.246  0.00  0.00    +0.268 C 
ATOM     13  O   UNL     1       7.848   3.426  22.249  0.00  0.00    -0.268 OA
BRANCH  12  14
ATOM     14  C   UNL     1       8.902   4.234  24.208  0.00  0.00    +0.190 C 
ATOM     15  N   UNL     1       8.378   4.480  25.377  0.00  0.00    -0.078 NA
BRANCH  14  16
ATOM     16  C   UNL     1      10.147   5.016  24.013  0.00  0.00    +0.107 A 
ATOM     17  N   UNL     1      11.243   4.537  23.298  0.00  0.00    -0.223 NA
ATOM     18  C   UNL     1      12.322   5.221  23.600  0.00  0.00    +0.156 A 
ATOM     19  N   UNL     1      13.555   4.887  23.202  0.00  0.00    -0.338 N 
ATOM     20  H   UNL     1      13.679   4.120  22.555  0.00  0.00    +0.144 HD
ATOM     21  H   UNL     1      14.362   5.457  23.418  0.00  0.00    +0.144 HD
ATOM     22  S   UNL     1      12.079   6.594  24.599  0.00  0.00    -0.060 S 
ATOM     23  C   UNL     1      10.424   6.188  24.715  0.00  0.00    +0.078 A 
ENDBRANCH  14  16
BRANCH  15  24
ATOM     24  O   UNL     1       7.481   3.659  26.063  0.00  0.00    -0.396 OA
ATOM     25  C   UNL     1       6.966   4.049  27.314  0.00  0.00    +0.313 C 
ENDBRANCH  15  24
ENDBRANCH  12  14
ENDBRANCH   2  10
BRANCH   6  26
ATOM     26  C   UNL     1       9.013  -3.413  24.084  0.00  0.00    +0.351 C 
ATOM     27  OXT UNL     1       9.703  -4.291  24.585  0.00  0.00    -0.244 OA
BRANCH  26  28
ATOM     28  O   UNL     1       8.622  -3.517  22.805  0.00  0.00    -0.476 OA
ATOM     29  H   UNL     1       7.910  -2.920  22.489  0.00  0.00    +0.295 HD
ENDBRANCH  26  28
ENDBRANCH   6  26
BRANCH   7  30
ATOM     30  C   UNL     1       6.553  -3.572  25.716  0.00  0.00    +0.111 C 
BRANCH  30  31
ATOM     31  S   UNL     1       5.007  -3.191  24.842  0.00  0.00    -0.080 S 
BRANCH  31  32
ATOM     32  C   UNL     1       5.394  -3.683  23.236  0.00  0.00    +0.209 A 
ATOM     33  N   UNL     1       5.330  -4.974  22.802  0.00  0.00    -0.223 N 
ATOM     34  C   UNL     1       5.081  -6.178  23.544  0.00  0.00    +0.177 C 
ATOM     35  N   UNL     1       5.554  -5.012  21.475  0.00  0.00    -0.043 NA
ATOM     36  N   UNL     1       5.771  -3.749  21.126  0.00  0.00    -0.022 NA
ATOM     37  N   UNL     1       5.682  -2.909  22.215  0.00  0.00    -0.102 NA
ENDBRANCH  31  32
ENDBRANCH  30  31
ENDBRANCH   7  30
TORSDOF 9
ENDMDL
MODEL 6
REMARK VINA RESULT:      -6.3      3.081      5.527
REMARK  Name = 
REMARK  11 active torsions:
REMARK  status: ('A' for Active; 'I' for Inactive)
REMARK    1  A    between atoms: C_5  and  C_6
REMARK    2  A    between atoms: C_6  and  S_7
REMARK    3  A    between atoms: S_7  and  C_8
REMARK    4  A    between atoms: N_12  and  C_13
REMARK    5  A    between atoms: CA_14  and  C_33
REMARK    6  A    between atoms: CA_18  and  N_20
REMARK    7  A    between atoms: C_21  and  C_23
REMARK    8  A    between atoms: C_23  and  C_27
REMARK    9  A    between atoms: N_24  and  O_25
REMARK   10  A    between atoms: O_25  and  C_26
REMARK   11  A    between atoms: C_33  and  O_34
REMARK                            x       y       z     vdW  Elec       q    Type
REMARK                         _______ _______ _______ _____ _____    ______ ____
ROOT
ATOM      1  C   UNL     1       9.151  -1.113  25.494  0.00  0.00    +0.169 C 
ATOM      2  CA  UNL     1       9.664  -0.473  24.127  0.00  0.00    +0.191 C 
ATOM      3  C   UNL     1       9.988  -1.972  23.839  0.00  0.00    +0.244 C 
ATOM      4  O   UNL     1      10.557  -2.590  22.972  0.00  0.00    -0.273 OA
ATOM      5  N   UNL     1       9.083  -2.350  24.762  0.00  0.00    -0.249 N 
ATOM      6  CA  UNL     1       8.483  -3.505  25.160  0.00  0.00    +0.123 C 
ATOM      7  C   UNL     1       7.392  -3.458  25.961  0.00  0.00    -0.021 C 
ATOM      8  C   UNL     1       6.788  -2.197  26.552  0.00  0.00    +0.104 C 
ATOM      9  S   UNL     1       7.743  -0.659  26.469  0.00  0.00    -0.131 S 
ENDROOT
BRANCH   2  10
ATOM     10  N   UNL     1       8.969   0.139  22.922  0.00  0.00    -0.296 N 
ATOM     11  H   UNL     1       8.913  -0.435  22.082  0.00  0.00    +0.150 HD
ATOM     12  C   UNL     1       8.230   1.314  22.677  0.00  0.00    +0.268 C 
ATOM     13  O   UNL     1       7.725   1.444  21.572  0.00  0.00    -0.268 OA
BRANCH  12  14
ATOM     14  C   UNL     1       8.202   2.505  23.635  0.00  0.00    +0.190 C 
ATOM     15  N   UNL     1       7.266   2.776  24.501  0.00  0.00    -0.078 NA
BRANCH  14  16
ATOM     16  C   UNL     1       9.390   3.363  23.856  0.00  0.00    +0.107 A 
ATOM     17  N   UNL     1       9.312   4.650  24.384  0.00  0.00    -0.223 NA
ATOM     18  C   UNL     1      10.407   5.324  24.114  0.00  0.00    +0.156 A 
ATOM     19  N   UNL     1      10.555   6.634  24.344  0.00  0.00    -0.338 N 
ATOM     20  H   UNL     1       9.831   7.137  24.837  0.00  0.00    +0.144 HD
ATOM     21  H   UNL     1      11.425   7.116  24.162  0.00  0.00    +0.144 HD
ATOM     22  S   UNL     1      11.675   4.425  23.388  0.00  0.00    -0.060 S 
ATOM     23  C   UNL     1      10.650   3.059  23.345  0.00  0.00    +0.078 A 
ENDBRANCH  14  16
BRANCH  15  24
ATOM     24  O   UNL     1       6.215   1.932  24.866  0.00  0.00    -0.396 OA
ATOM     25  C   UNL     1       4.928   2.451  25.102  0.00  0.00    +0.313 C 
ENDBRANCH  15  24
ENDBRANCH  12  14
ENDBRANCH   2  10
BRANCH   6  26
ATOM     26  C   UNL     1       8.952  -4.836  24.636  0.00  0.00    +0.351 C 
ATOM     27  OXT UNL     1       8.480  -5.353  23.631  0.00  0.00    -0.244 OA
BRANCH  26  28
ATOM     28  O   UNL     1       9.949  -5.444  25.295  0.00  0.00    -0.476 OA
ATOM     29  H   UNL     1       9.928  -5.433  26.276  0.00  0.00    +0.295 HD
ENDBRANCH  26  28
ENDBRANCH   6  26
BRANCH   7  30
ATOM     30  C   UNL     1       6.465  -4.662  26.224  0.00  0.00    +0.111 C 
BRANCH  30  31
ATOM     31  S   UNL     1       4.813  -4.275  25.577  0.00  0.00    -0.080 S 
BRANCH  31  32
ATOM     32  C   UNL     1       4.985  -4.712  23.919  0.00  0.00    +0.209 A 
ATOM     33  N   UNL     1       5.447  -3.866  22.955  0.00  0.00    -0.223 N 
ATOM     34  C   UNL     1       5.752  -2.465  23.036  0.00  0.00    +0.177 C 
ATOM     35  N   UNL     1       5.597  -4.541  21.800  0.00  0.00    -0.043 NA
ATOM     36  N   UNL     1       5.205  -5.780  22.072  0.00  0.00    -0.022 NA
ATOM     37  N   UNL     1       4.812  -5.900  23.388  0.00  0.00    -0.102 NA
ENDBRANCH  31  32
ENDBRANCH  30  31
ENDBRANCH   7  30
TORSDOF 9
ENDMDL
MODEL 7
REMARK VINA RESULT:      -6.3      4.524      7.421
REMARK  Name = 
REMARK  11 active torsions:
REMARK  status: ('A' for Active; 'I' for Inactive)
REMARK    1  A    between atoms: C_5  and  C_6
REMARK    2  A    between atoms: C_6  and  S_7
REMARK    3  A    between atoms: S_7  and  C_8
REMARK    4  A    between atoms: N_12  and  C_13
REMARK    5  A    between atoms: CA_14  and  C_33
REMARK    6  A    between atoms: CA_18  and  N_20
REMARK    7  A    between atoms: C_21  and  C_23
REMARK    8  A    between atoms: C_23  and  C_27
REMARK    9  A    between atoms: N_24  and  O_25
REMARK   10  A    between atoms: O_25  and  C_26
REMARK   11  A    between atoms: C_33  and  O_34
REMARK                            x       y       z     vdW  Elec       q    Type
REMARK                         _______ _______ _______ _____ _____    ______ ____
ROOT
ATOM      1  C   UNL     1       8.771   1.626  24.599  0.00  0.00    +0.169 C 
ATOM      2  CA  UNL     1       9.134   2.970  23.821  0.00  0.00    +0.191 C 
ATOM      3  C   UNL     1       9.907   1.947  22.930  0.00  0.00    +0.244 C 
ATOM      4  O   UNL     1      10.678   2.007  22.003  0.00  0.00    -0.273 OA
ATOM      5  N   UNL     1       9.115   0.954  23.373  0.00  0.00    -0.249 N 
ATOM      6  CA  UNL     1       8.871  -0.348  23.057  0.00  0.00    +0.123 C 
ATOM      7  C   UNL     1       7.778  -0.972  23.559  0.00  0.00    -0.021 C 
ATOM      8  C   UNL     1       6.794  -0.367  24.544  0.00  0.00    +0.104 C 
ATOM      9  S   UNL     1       7.245   1.177  25.379  0.00  0.00    -0.131 S 
ENDROOT
BRANCH   2  10
ATOM     10  N   UNL     1       8.347   3.922  22.936  0.00  0.00    -0.296 N 
ATOM     11  H   UNL     1       7.932   3.531  22.092  0.00  0.00    +0.150 HD
ATOM     12  C   UNL     1       7.910   5.258  23.038  0.00  0.00    +0.268 C 
ATOM     13  O   UNL     1       7.197   5.689  22.144  0.00  0.00    -0.268 OA
BRANCH  12  14
ATOM     14  C   UNL     1       8.439   6.240  24.083  0.00  0.00    +0.190 C 
ATOM     15  N   UNL     1       7.757   6.770  25.059  0.00  0.00    -0.078 NA
BRANCH  14  16
ATOM     16  C   UNL     1       9.889   6.507  24.246  0.00  0.00    +0.107 A 
ATOM     17  N   UNL     1      10.860   5.976  23.399  0.00  0.00    -0.223 NA
ATOM     18  C   UNL     1      12.042   6.026  23.968  0.00  0.00    +0.156 A 
ATOM     19  N   UNL     1      13.138   5.442  23.470  0.00  0.00    -0.338 N 
ATOM     20  H   UNL     1      13.100   5.008  22.558  0.00  0.00    +0.144 HD
ATOM     21  H   UNL     1      14.043   5.532  23.913  0.00  0.00    +0.144 HD
ATOM     22  S   UNL     1      12.116   6.873  25.458  0.00  0.00    -0.060 S 
ATOM     23  C   UNL     1      10.426   7.108  25.382  0.00  0.00    +0.078 A 
ENDBRANCH  14  16
BRANCH  15  24
ATOM     24  O   UNL     1       6.475   6.392  25.465  0.00  0.00    -0.396 OA
ATOM     25  C   UNL     1       5.345   7.107  25.025  0.00  0.00    +0.313 C 
ENDBRANCH  15  24
ENDBRANCH  12  14
ENDBRANCH   2  10
BRANCH   6  26
ATOM     26  C   UNL     1       9.744  -1.077  22.070  0.00  0.00    +0.351 C 
ATOM     27  OXT UNL     1      10.588  -1.894  22.414  0.00  0.00    -0.244 OA
BRANCH  26  28
ATOM     28  O   UNL     1       9.548  -0.825  20.768  0.00  0.00    -0.476 OA
ATOM     29  H   UNL     1       9.803  -1.516  20.120  0.00  0.00    +0.295 HD
ENDBRANCH  26  28
ENDBRANCH   6  26
BRANCH   7  30
ATOM     30  C   UNL     1       7.244  -2.322  23.041  0.00  0.00    +0.111 C 
BRANCH  30  31
ATOM     31  S   UNL     1       7.864  -3.644  24.121  0.00  0.00    -0.080 S 
BRANCH  31  32
ATOM     32  C   UNL     1       6.523  -4.726  24.140  0.00  0.00    +0.209 A 
ATOM     33  N   UNL     1       6.267  -5.635  23.156  0.00  0.00    -0.223 N 
ATOM     34  C   UNL     1       6.912  -5.816  21.886  0.00  0.00    +0.177 C 
ATOM     35  N   UNL     1       5.238  -6.419  23.527  0.00  0.00    -0.043 NA
ATOM     36  N   UNL     1       4.871  -5.965  24.719  0.00  0.00    -0.022 NA
ATOM     37  N   UNL     1       5.657  -4.903  25.112  0.00  0.00    -0.102 NA
ENDBRANCH  31  32
ENDBRANCH  30  31
ENDBRANCH   7  30
TORSDOF 9
ENDMDL
MODEL 8
REMARK VINA RESULT:      -6.2      3.165      7.447
REMARK  Name = 
REMARK  11 active torsions:
REMARK  status: ('A' for Active; 'I' for Inactive)
REMARK    1  A    between atoms: C_5  and  C_6
REMARK    2  A    between atoms: C_6  and  S_7
REMARK    3  A    between atoms: S_7  and  C_8
REMARK    4  A    between atoms: N_12  and  C_13
REMARK    5  A    between atoms: CA_14  and  C_33
REMARK    6  A    between atoms: CA_18  and  N_20
REMARK    7  A    between atoms: C_21  and  C_23
REMARK    8  A    between atoms: C_23  and  C_27
REMARK    9  A    between atoms: N_24  and  O_25
REMARK   10  A    between atoms: O_25  and  C_26
REMARK   11  A    between atoms: C_33  and  O_34
REMARK                            x       y       z     vdW  Elec       q    Type
REMARK                         _______ _______ _______ _____ _____    ______ ____
ROOT
ATOM      1  C   UNL     1       7.468  -1.268  22.963  0.00  0.00    +0.169 C 
ATOM      2  CA  UNL     1       8.352  -2.592  22.881  0.00  0.00    +0.191 C 
ATOM      3  C   UNL     1       9.438  -1.542  22.492  0.00  0.00    +0.244 C 
ATOM      4  O   UNL     1      10.580  -1.572  22.102  0.00  0.00    -0.273 OA
ATOM      5  N   UNL     1       8.721  -0.572  23.090  0.00  0.00    -0.249 N 
ATOM      6  CA  UNL     1       8.902   0.729  23.450  0.00  0.00    +0.123 C 
ATOM      7  C   UNL     1       8.031   1.322  24.301  0.00  0.00    -0.021 C 
ATOM      8  C   UNL     1       6.772   0.682  24.859  0.00  0.00    +0.104 C 
ATOM      9  S   UNL     1       6.185  -0.862  24.117  0.00  0.00    -0.131 S 
ENDROOT
BRANCH   2  10
ATOM     10  N   UNL     1       8.917  -3.550  23.918  0.00  0.00    -0.296 N 
ATOM     11  H   UNL     1       9.907  -3.456  24.140  0.00  0.00    +0.150 HD
ATOM     12  C   UNL     1       8.379  -4.512  24.795  0.00  0.00    +0.268 C 
ATOM     13  O   UNL     1       9.144  -5.051  25.581  0.00  0.00    -0.268 OA
BRANCH  12  14
ATOM     14  C   UNL     1       6.955  -5.055  24.679  0.00  0.00    +0.190 C 
ATOM     15  N   UNL     1       6.411  -5.572  23.613  0.00  0.00    -0.078 NA
BRANCH  14  16
ATOM     16  C   UNL     1       6.101  -5.282  25.870  0.00  0.00    +0.107 A 
ATOM     17  N   UNL     1       6.402  -6.221  26.854  0.00  0.00    -0.223 NA
ATOM     18  C   UNL     1       5.332  -6.503  27.561  0.00  0.00    +0.156 A 
ATOM     19  N   UNL     1       5.271  -7.489  28.464  0.00  0.00    -0.338 N 
ATOM     20  H   UNL     1       6.109  -8.002  28.699  0.00  0.00    +0.144 HD
ATOM     21  H   UNL     1       4.443  -7.656  29.021  0.00  0.00    +0.144 HD
ATOM     22  S   UNL     1       3.949  -5.541  27.237  0.00  0.00    -0.060 S 
ATOM     23  C   UNL     1       4.817  -4.754  25.993  0.00  0.00    +0.078 A 
ENDBRANCH  14  16
BRANCH  15  24
ATOM     24  O   UNL     1       7.079  -5.919  22.436  0.00  0.00    -0.396 OA
ATOM     25  C   UNL     1       6.464  -5.739  21.183  0.00  0.00    +0.313 C 
ENDBRANCH  15  24
ENDBRANCH  12  14
ENDBRANCH   2  10
BRANCH   6  26
ATOM     26  C   UNL     1      10.120   1.490  22.998  0.00  0.00    +0.351 C 
ATOM     27  OXT UNL     1      11.128   1.591  23.685  0.00  0.00    -0.244 OA
BRANCH  26  28
ATOM     28  O   UNL     1      10.086   2.043  21.777  0.00  0.00    -0.476 OA
ATOM     29  H   UNL     1      10.714   1.711  21.100  0.00  0.00    +0.295 HD
ENDBRANCH  26  28
ENDBRANCH   6  26
BRANCH   7  30
ATOM     30  C   UNL     1       8.297   2.668  25.005  0.00  0.00    +0.111 C 
BRANCH  30  31
ATOM     31  S   UNL     1       6.704   3.394  25.490  0.00  0.00    -0.080 S 
BRANCH  31  32
ATOM     32  C   UNL     1       6.416   4.485  24.188  0.00  0.00    +0.209 A 
ATOM     33  N   UNL     1       5.195   4.670  23.610  0.00  0.00    -0.223 N 
ATOM     34  C   UNL     1       3.964   3.961  23.821  0.00  0.00    +0.177 C 
ATOM     35  N   UNL     1       5.268   5.681  22.724  0.00  0.00    -0.043 NA
ATOM     36  N   UNL     1       6.533   6.082  22.761  0.00  0.00    -0.022 NA
ATOM     37  N   UNL     1       7.264   5.340  23.664  0.00  0.00    -0.102 NA
ENDBRANCH  31  32
ENDBRANCH  30  31
ENDBRANCH   7  30
TORSDOF 9
ENDMDL
MODEL 9
REMARK VINA RESULT:      -6.2      3.513      6.724
REMARK  Name = 
REMARK  11 active torsions:
REMARK  status: ('A' for Active; 'I' for Inactive)
REMARK    1  A    between atoms: C_5  and  C_6
REMARK    2  A    between atoms: C_6  and  S_7
REMARK    3  A    between atoms: S_7  and  C_8
REMARK    4  A    between atoms: N_12  and  C_13
REMARK    5  A    between atoms: CA_14  and  C_33
REMARK    6  A    between atoms: CA_18  and  N_20
REMARK    7  A    between atoms: C_21  and  C_23
REMARK    8  A    between atoms: C_23  and  C_27
REMARK    9  A    between atoms: N_24  and  O_25
REMARK   10  A    between atoms: O_25  and  C_26
REMARK   11  A    between atoms: C_33  and  O_34
REMARK                            x       y       z     vdW  Elec       q    Type
REMARK                         _______ _______ _______ _____ _____    ______ ____
ROOT
ATOM      1  C   UNL     1       7.452  -1.078  23.090  0.00  0.00    +0.169 C 
ATOM      2  CA  UNL     1       8.456  -2.298  22.876  0.00  0.00    +0.191 C 
ATOM      3  C   UNL     1       9.401  -1.123  22.474  0.00  0.00    +0.244 C 
ATOM      4  O   UNL     1      10.509  -1.015  22.007  0.00  0.00    -0.273 OA
ATOM      5  N   UNL     1       8.635  -0.262  23.170  0.00  0.00    -0.249 N 
ATOM      6  CA  UNL     1       8.710   1.032  23.588  0.00  0.00    +0.123 C 
ATOM      7  C   UNL     1       7.848   1.490  24.527  0.00  0.00    -0.021 C 
ATOM      8  C   UNL     1       6.703   0.697  25.132  0.00  0.00    +0.104 C 
ATOM      9  S   UNL     1       6.222  -0.863  24.347  0.00  0.00    -0.131 S 
ENDROOT
BRANCH   2  10
ATOM     10  N   UNL     1       9.188  -3.240  23.819  0.00  0.00    -0.296 N 
ATOM     11  H   UNL     1      10.191  -3.098  23.923  0.00  0.00    +0.150 HD
ATOM     12  C   UNL     1       8.807  -4.241  24.735  0.00  0.00    +0.268 C 
ATOM     13  O   UNL     1       9.687  -4.751  25.412  0.00  0.00    -0.268 OA
BRANCH  12  14
ATOM     14  C   UNL     1       7.408  -4.854  24.777  0.00  0.00    +0.190 C 
ATOM     15  N   UNL     1       6.734  -5.311  23.759  0.00  0.00    -0.078 NA
BRANCH  14  16
ATOM     16  C   UNL     1       6.754  -5.230  26.054  0.00  0.00    +0.107 A 
ATOM     17  N   UNL     1       5.944  -6.355  26.192  0.00  0.00    -0.223 NA
ATOM     18  C   UNL     1       5.190  -6.250  27.263  0.00  0.00    +0.156 A 
ATOM     19  N   UNL     1       4.196  -7.093  27.563  0.00  0.00    -0.338 N 
ATOM     20  H   UNL     1       4.055  -7.919  26.998  0.00  0.00    +0.144 HD
ATOM     21  H   UNL     1       3.659  -7.008  28.417  0.00  0.00    +0.144 HD
ATOM     22  S   UNL     1       5.524  -4.909  28.279  0.00  0.00    -0.060 S 
ATOM     23  C   UNL     1       6.696  -4.378  27.155  0.00  0.00    +0.078 A 
ENDBRANCH  14  16
BRANCH  15  24
ATOM     24  O   UNL     1       7.232  -5.517  22.471  0.00  0.00    -0.396 OA
ATOM     25  C   UNL     1       6.374  -5.901  21.423  0.00  0.00    +0.313 C 
ENDBRANCH  15  24
ENDBRANCH  12  14
ENDBRANCH   2  10
BRANCH   6  26
ATOM     26  C   UNL     1       9.810   1.936  23.097  0.00  0.00    +0.351 C 
ATOM     27  OXT UNL     1      10.849   2.110  23.721  0.00  0.00    -0.244 OA
BRANCH  26  28
ATOM     28  O   UNL     1       9.633   2.538  21.913  0.00  0.00    -0.476 OA
ATOM     29  H   UNL     1       9.352   1.987  21.151  0.00  0.00    +0.295 HD
ENDBRANCH  26  28
ENDBRANCH   6  26
BRANCH   7  30
ATOM     30  C   UNL     1       8.028   2.821  25.284  0.00  0.00    +0.111 C 
BRANCH  30  31
ATOM     31  S   UNL     1       6.418   3.330  25.954  0.00  0.00    -0.080 S 
BRANCH  31  32
ATOM     32  C   UNL     1       6.846   3.791  27.558  0.00  0.00    +0.209 A 
ATOM     33  N   UNL     1       6.999   2.908  28.586  0.00  0.00    -0.223 N 
ATOM     34  C   UNL     1       6.728   1.499  28.630  0.00  0.00    +0.177 C 
ATOM     35  N   UNL     1       7.468   3.558  29.667  0.00  0.00    -0.043 NA
ATOM     36  N   UNL     1       7.574   4.826  29.289  0.00  0.00    -0.022 NA
ATOM     37  N   UNL     1       7.182   4.989  27.978  0.00  0.00    -0.102 NA
ENDBRANCH  31  32
ENDBRANCH  30  31
ENDBRANCH   7  30
TORSDOF 9
ENDMDL
