MODEL 1
REMARK VINA RESULT:       1.4      0.000      0.000
REMARK  Name = 
REMARK  16 active torsions:
REMARK  status: ('A' for Active; 'I' for Inactive)
REMARK    1  A    between atoms: C_1  and  O_2
REMARK    2  A    between atoms: O_2  and  C_3
REMARK    3  A    between atoms: C_13  and  C_15
REMARK    4  A    between atoms: C_15  and  O_17
REMARK    5  A    between atoms: O_17  and  C_18
REMARK    6  A    between atoms: C_25  and  N_27
REMARK    7  A    between atoms: C_33  and  O_34
REMARK    8  A    between atoms: C_49  and  O_50
REMARK    9  A    between atoms: O_50  and  C_51
REMARK   10  A    between atoms: C_54  and  C_55
REMARK   11  A    between atoms: C_54  and  C_56
REMARK   12  A    between atoms: C_57  and  N_65
REMARK   13  A    between atoms: C_59  and  O_61
REMARK   14  A    between atoms: C_62  and  O_64
REMARK   15  A    between atoms: N_65  and  C_66
REMARK   16  A    between atoms: N_65  and  C_67
REMARK                            x       y       z     vdW  Elec       q    Type
REMARK                         _______ _______ _______ _____ _____    ______ ____
ROOT
ATOM      1  C   UNL     1       6.490  -0.655  23.638  0.00  0.00    +0.244 C 
ATOM      2  C   UNL     1       5.148  -2.203  23.600  0.00  0.00    -0.003 A 
ATOM      3  C   UNL     1       3.877  -3.192  24.385  0.00  0.00    +0.016 A 
ATOM      4  C   UNL     1       2.963  -4.837  24.261  0.00  0.00    -0.012 A 
ATOM      5  C   UNL     1       1.904  -6.250  24.997  0.00  0.00    -0.000 C 
ATOM      6  C   UNL     1       2.838  -7.723  25.179  0.00  0.00    +0.157 C 
ATOM      7  C   UNL     1       3.871  -7.122  24.207  0.00  0.00    +0.245 C 
ATOM      8  O   UNL     1       5.152  -7.621  24.505  0.00  0.00    -0.476 OA
ATOM      9  C   UNL     1       5.745  -6.620  25.279  0.00  0.00    +0.181 A 
ATOM     10  C   UNL     1       5.187  -5.934  26.475  0.00  0.00    +0.087 A 
ATOM     11  C   UNL     1       5.764  -4.826  26.931  0.00  0.00    +0.033 A 
ATOM     12  C   UNL     1       6.712  -4.271  26.159  0.00  0.00    +0.006 A 
ATOM     13  C   UNL     1       7.138  -4.813  24.906  0.00  0.00    +0.058 A 
ATOM     14  C   UNL     1       7.203  -3.067  26.852  0.00  0.00    +0.103 C 
ATOM     15  C   UNL     1       8.296  -2.704  25.934  0.00  0.00    +0.179 C 
ATOM     16  C   UNL     1       8.788  -1.400  26.292  0.00  0.00    +0.313 C 
ATOM     17  O   UNL     1       8.671  -0.892  27.395  0.00  0.00    -0.251 OA
ATOM     18  O   UNL     1       8.756  -0.793  25.085  0.00  0.00    -0.460 OA
ATOM     19 CL   UNL     1       3.664  -5.762  27.376  0.00  0.00    -0.080 Cl
ATOM     20  C   UNL     1       6.695  -6.015  24.482  0.00  0.00    +0.160 A 
ATOM     21  C   UNL     1       2.132  -8.951  24.785  0.00  0.00    +0.016 C 
ATOM     22  C   UNL     1       0.860  -8.583  24.704  0.00  0.00    -0.001 C 
ATOM     23  C   UNL     1       0.722  -7.012  24.804  0.00  0.00    +0.007 C 
ATOM     24  C   UNL     1       3.637  -5.658  23.373  0.00  0.00    +0.004 A 
ATOM     25  C   UNL     1       4.505  -4.845  22.489  0.00  0.00    +0.008 A 
ATOM     26  C   UNL     1       5.148  -3.238  22.543  0.00  0.00    +0.008 A 
ATOM     27  C   UNL     1       7.436  -0.256  24.929  0.00  0.00    +0.281 C 
ENDROOT
BRANCH  14  28
ATOM     28  N   UNL     1       6.102  -2.040  27.053  0.00  0.00    +0.224 N 
ATOM     29  H   UNL     1       6.477  -1.208  27.535  0.00  0.00    +0.200 HD
ATOM     30  H   UNL     1       5.357  -2.366  27.689  0.00  0.00    +0.200 HD
ATOM     31  H   UNL     1       5.597  -1.783  26.194  0.00  0.00    +0.200 HD
ENDBRANCH  14  28
BRANCH  20  32
ATOM     32  O   UNL     1       7.001  -6.471  23.229  0.00  0.00    -0.503 OA
ATOM     33  H   UNL     1       7.886  -6.169  22.951  0.00  0.00    +0.292 HD
ENDBRANCH  20  32
BRANCH   1  34
ATOM     34  O   UNL     1       7.204   1.014  23.027  0.00  0.00    -0.450 OA
BRANCH  34  35
ATOM     35  C   UNL     1       8.266   2.462  22.920  0.00  0.00    +0.342 C 
ATOM     36  O   UNL     1       7.648   3.033  21.960  0.00  0.00    -0.245 OA
BRANCH  35  39
ATOM     37  C   UNL     1      10.236   5.986  25.048  0.00  0.00    +0.124 A 
ATOM     38  C   UNL     1       9.452   4.758  24.403  0.00  0.00    +0.063 A 
ATOM     39  C   UNL     1       9.691   3.849  23.108  0.00  0.00    +0.089 A 
ATOM     40  C   UNL     1      11.159   4.687  22.649  0.00  0.00    +0.099 A 
ATOM     41  N   UNL     1      12.245   4.459  21.635  0.00  0.00    -0.316 N 
ATOM     42  H   UNL     1      12.166   3.654  21.039  0.00  0.00    +0.169 HD
ATOM     43  C   UNL     1      13.520   5.161  21.418  0.00  0.00    +0.291 A 
ATOM     44  C   UNL     1      13.903   6.392  22.226  0.00  0.00    +0.185 A 
ATOM     45  O   UNL     1      12.950   6.774  23.071  0.00  0.00    -0.449 OA
ATOM     46  C   UNL     1      15.073   7.107  22.112  0.00  0.00    +0.064 C 
ATOM     47  O   UNL     1      14.326   4.769  20.570  0.00  0.00    -0.264 OA
ATOM     48  C   UNL     1      11.821   5.960  23.383  0.00  0.00    +0.156 A 
ATOM     49  C   UNL     1      11.379   6.529  24.531  0.00  0.00    +0.094 A 
BRANCH  37  51
ATOM     50  C   UNL     1       9.253   6.816  27.243  0.00  0.00    +0.277 C 
ATOM     51  O   UNL     1      10.091   6.804  26.133  0.00  0.00    -0.495 OA
ENDBRANCH  37  51
ENDBRANCH  35  39
ENDBRANCH  34  35
ENDBRANCH   1  34
BRANCH   6  52
ATOM     52  O   UNL     1       2.902  -7.919  26.646  0.00  0.00    -0.329 OA
BRANCH  52  53
ATOM     53  C   UNL     1       2.555  -7.137  27.824  0.00  0.00    +0.283 C 
ATOM     54  C   UNL     1       3.781  -6.737  28.630  0.00  0.00    +0.200 C 
ATOM     55  C   UNL     1       3.520  -5.697  29.724  0.00  0.00    +0.168 C 
ATOM     56  C   UNL     1       2.800  -4.403  29.207  0.00  0.00    +0.119 C 
ATOM     57  C   UNL     1       1.532  -4.901  28.377  0.00  0.00    +0.085 C 
ATOM     58  C   UNL     1       0.873  -3.776  27.534  0.00  0.00    +0.043 C 
ATOM     59  C   UNL     1       0.443  -5.462  29.310  0.00  0.00    +0.043 C 
ATOM     60  O   UNL     1       1.914  -5.902  27.381  0.00  0.00    -0.341 OA
BRANCH  56  61
ATOM     61  N   UNL     1       2.539  -3.421  30.338  0.00  0.00    -0.301 NA
ATOM     62  C   UNL     1       3.588  -2.397  30.483  0.00  0.00    +0.105 C 
ATOM     63  C   UNL     1       1.272  -2.693  30.211  0.00  0.00    +0.105 C 
ENDBRANCH  56  61
BRANCH  54  64
ATOM     64  O   UNL     1       4.376  -7.896  29.218  0.00  0.00    -0.384 OA
ATOM     65  H   UNL     1       3.727  -8.326  29.794  0.00  0.00    +0.210 HD
ENDBRANCH  54  64
BRANCH  55  66
ATOM     66  O   UNL     1       4.824  -5.391  30.258  0.00  0.00    -0.387 OA
ATOM     67  H   UNL     1       4.789  -4.463  30.551  0.00  0.00    +0.210 HD
ENDBRANCH  55  66
ENDBRANCH  52  53
ENDBRANCH   6  52
TORSDOF 11
ENDMDL
