MODEL 1
REMARK VINA RESULT:      -5.6      0.000      0.000
REMARK  Name = 
REMARK  8 active torsions:
REMARK  status: ('A' for Active; 'I' for Inactive)
REMARK    1  A    between atoms: C_1  and  C_2
REMARK    2  A    between atoms: C_2  and  N_3
REMARK    3  A    between atoms: N_3  and  C_4
REMARK    4  A    between atoms: C_4  and  C_5
REMARK    5  A    between atoms: C_6  and  C_8
REMARK    6  A    between atoms: C_10  and  O_11
REMARK    7  A    between atoms: O_11  and  C_12
REMARK    8  A    between atoms: C_13  and  O_14
REMARK                            x       y       z     vdW  Elec       q    Type
REMARK                         _______ _______ _______ _____ _____    ______ ____
ROOT
ATOM      1  C   UNL     1       9.340  -1.528  23.272  0.00  0.00    +0.041 A 
ATOM      2  C   UNL     1       9.271  -1.364  21.882  0.00  0.00    +0.017 A 
ATOM      3  C   UNL     1       9.529  -0.122  21.306  0.00  0.00    +0.050 A 
ATOM      4  C   UNL     1       9.764   0.968  22.131  0.00  0.00    +0.158 A 
ATOM      5  C   UNL     1       9.761   0.851  23.525  0.00  0.00    +0.162 A 
ATOM      6  C   UNL     1       9.566  -0.409  24.094  0.00  0.00    +0.062 A 
ENDROOT
BRANCH   1   8
ATOM      7  N   UNL     1       7.769  -3.237  24.269  0.00  0.00    -0.298 N 
ATOM      8  C   UNL     1       9.075  -2.836  23.936  0.00  0.00    +0.247 C 
ATOM      9  O   UNL     1      10.054  -3.533  24.179  0.00  0.00    -0.270 OA
BRANCH   7  11
ATOM     10  C   UNL     1       7.483  -3.960  26.638  0.00  0.00    +0.024 C 
ATOM     11  C   UNL     1       7.656  -4.377  25.185  0.00  0.00    +0.104 C 
ENDBRANCH   7  11
BRANCH   7  12
ATOM     12  C   UNL     1       6.554  -2.490  23.918  0.00  0.00    +0.104 C 
ATOM     13  C   UNL     1       5.870  -2.865  22.615  0.00  0.00    +0.024 C 
ENDBRANCH   7  12
ENDBRANCH   1   8
BRANCH   4  14
ATOM     14  O   UNL     1       9.969   2.185  21.539  0.00  0.00    -0.503 OA
ATOM     15  H   UNL     1      10.657   2.023  20.862  0.00  0.00    +0.292 HD
ENDBRANCH   4  14
BRANCH   5  16
ATOM     16  O   UNL     1       9.948   2.027  24.204  0.00  0.00    -0.491 OA
ATOM     17  C   UNL     1       8.796   2.592  24.822  0.00  0.00    +0.277 C 
ENDBRANCH   5  16
TORSDOF 5
ENDMDL
MODEL 2
REMARK VINA RESULT:      -5.2      3.218      6.077
REMARK  Name = 
REMARK  8 active torsions:
REMARK  status: ('A' for Active; 'I' for Inactive)
REMARK    1  A    between atoms: C_1  and  C_2
REMARK    2  A    between atoms: C_2  and  N_3
REMARK    3  A    between atoms: N_3  and  C_4
REMARK    4  A    between atoms: C_4  and  C_5
REMARK    5  A    between atoms: C_6  and  C_8
REMARK    6  A    between atoms: C_10  and  O_11
REMARK    7  A    between atoms: O_11  and  C_12
REMARK    8  A    between atoms: C_13  and  O_14
REMARK                            x       y       z     vdW  Elec       q    Type
REMARK                         _______ _______ _______ _____ _____    ______ ____
ROOT
ATOM      1  C   UNL     1      10.221   2.236  23.200  0.00  0.00    +0.041 A 
ATOM      2  C   UNL     1       9.995   1.755  21.903  0.00  0.00    +0.017 A 
ATOM      3  C   UNL     1       9.622   0.429  21.700  0.00  0.00    +0.050 A 
ATOM      4  C   UNL     1       9.568  -0.432  22.786  0.00  0.00    +0.158 A 
ATOM      5  C   UNL     1       9.867   0.001  24.083  0.00  0.00    +0.162 A 
ATOM      6  C   UNL     1      10.177   1.346  24.289  0.00  0.00    +0.062 A 
ENDROOT
BRANCH   1   8
ATOM      7  N   UNL     1       9.660   4.645  23.713  0.00  0.00    -0.298 N 
ATOM      8  C   UNL     1      10.620   3.646  23.471  0.00  0.00    +0.247 C 
ATOM      9  O   UNL     1      11.823   3.885  23.465  0.00  0.00    -0.270 OA
BRANCH   7  11
ATOM     10  C   UNL     1      10.120   6.725  25.010  0.00  0.00    +0.024 C 
ATOM     11  C   UNL     1      10.139   6.030  23.656  0.00  0.00    +0.104 C 
ENDBRANCH   7  11
BRANCH   7  12
ATOM     12  C   UNL     1       8.216   4.401  23.827  0.00  0.00    +0.104 C 
ATOM     13  C   UNL     1       7.383   4.615  22.574  0.00  0.00    +0.024 C 
ENDBRANCH   7  12
ENDBRANCH   1   8
BRANCH   4  14
ATOM     14  O   UNL     1       9.244  -1.741  22.550  0.00  0.00    -0.503 OA
ATOM     15  H   UNL     1       9.645  -1.946  21.681  0.00  0.00    +0.292 HD
ENDBRANCH   4  14
BRANCH   5  16
ATOM     16  O   UNL     1       9.830  -0.979  25.041  0.00  0.00    -0.491 OA
ATOM     17  C   UNL     1       8.847  -0.831  26.062  0.00  0.00    +0.277 C 
ENDBRANCH   5  16
TORSDOF 5
ENDMDL
MODEL 3
REMARK VINA RESULT:      -5.1      2.094      2.651
REMARK  Name = 
REMARK  8 active torsions:
REMARK  status: ('A' for Active; 'I' for Inactive)
REMARK    1  A    between atoms: C_1  and  C_2
REMARK    2  A    between atoms: C_2  and  N_3
REMARK    3  A    between atoms: N_3  and  C_4
REMARK    4  A    between atoms: C_4  and  C_5
REMARK    5  A    between atoms: C_6  and  C_8
REMARK    6  A    between atoms: C_10  and  O_11
REMARK    7  A    between atoms: O_11  and  C_12
REMARK    8  A    between atoms: C_13  and  O_14
REMARK                            x       y       z     vdW  Elec       q    Type
REMARK                         _______ _______ _______ _____ _____    ______ ____
ROOT
ATOM      1  C   UNL     1       7.917  -1.387  22.538  0.00  0.00    +0.041 A 
ATOM      2  C   UNL     1       9.075  -1.394  21.748  0.00  0.00    +0.017 A 
ATOM      3  C   UNL     1       9.756  -0.209  21.486  0.00  0.00    +0.050 A 
ATOM      4  C   UNL     1       9.225   0.990  21.940  0.00  0.00    +0.158 A 
ATOM      5  C   UNL     1       8.028   1.037  22.664  0.00  0.00    +0.162 A 
ATOM      6  C   UNL     1       7.384  -0.161  22.978  0.00  0.00    +0.062 A 
ENDROOT
BRANCH   1   8
ATOM      7  N   UNL     1       7.711  -3.655  23.630  0.00  0.00    -0.298 N 
ATOM      8  C   UNL     1       7.153  -2.628  22.849  0.00  0.00    +0.247 C 
ATOM      9  O   UNL     1       6.021  -2.704  22.382  0.00  0.00    -0.270 OA
BRANCH   7  11
ATOM     10  C   UNL     1       7.301  -5.765  22.364  0.00  0.00    +0.024 C 
ATOM     11  C   UNL     1       7.005  -4.940  23.609  0.00  0.00    +0.104 C 
ENDBRANCH   7  11
BRANCH   7  12
ATOM     12  C   UNL     1       9.020  -3.580  24.292  0.00  0.00    +0.104 C 
ATOM     13  C   UNL     1       9.389  -4.728  25.216  0.00  0.00    +0.024 C 
ENDBRANCH   7  12
ENDBRANCH   1   8
BRANCH   4  14
ATOM     14  O   UNL     1       9.891   2.144  21.628  0.00  0.00    -0.503 OA
ATOM     15  H   UNL     1      10.472   1.904  20.878  0.00  0.00    +0.292 HD
ENDBRANCH   4  14
BRANCH   5  16
ATOM     16  O   UNL     1       7.599   2.298  22.989  0.00  0.00    -0.491 OA
ATOM     17  C   UNL     1       6.446   2.772  22.301  0.00  0.00    +0.277 C 
ENDBRANCH   5  16
TORSDOF 5
ENDMDL
MODEL 4
REMARK VINA RESULT:      -5.1      2.299      5.818
REMARK  Name = 
REMARK  8 active torsions:
REMARK  status: ('A' for Active; 'I' for Inactive)
REMARK    1  A    between atoms: C_1  and  C_2
REMARK    2  A    between atoms: C_2  and  N_3
REMARK    3  A    between atoms: N_3  and  C_4
REMARK    4  A    between atoms: C_4  and  C_5
REMARK    5  A    between atoms: C_6  and  C_8
REMARK    6  A    between atoms: C_10  and  O_11
REMARK    7  A    between atoms: O_11  and  C_12
REMARK    8  A    between atoms: C_13  and  O_14
REMARK                            x       y       z     vdW  Elec       q    Type
REMARK                         _______ _______ _______ _____ _____    ______ ____
ROOT
ATOM      1  C   UNL     1       8.785  -2.858  23.736  0.00  0.00    +0.041 A 
ATOM      2  C   UNL     1       8.906  -2.886  25.132  0.00  0.00    +0.017 A 
ATOM      3  C   UNL     1       8.313  -3.906  25.870  0.00  0.00    +0.050 A 
ATOM      4  C   UNL     1       7.524  -4.842  25.216  0.00  0.00    +0.158 A 
ATOM      5  C   UNL     1       7.319  -4.793  23.833  0.00  0.00    +0.162 A 
ATOM      6  C   UNL     1       7.969  -3.806  23.091  0.00  0.00    +0.062 A 
ENDROOT
BRANCH   1   8
ATOM      7  N   UNL     1       8.683  -0.640  22.532  0.00  0.00    -0.298 N 
ATOM      8  C   UNL     1       9.402  -1.790  22.901  0.00  0.00    +0.247 C 
ATOM      9  O   UNL     1      10.564  -1.973  22.551  0.00  0.00    -0.270 OA
BRANCH   7  11
ATOM     10  C   UNL     1       9.918   1.457  21.988  0.00  0.00    +0.024 C 
ATOM     11  C   UNL     1       9.273   0.180  21.469  0.00  0.00    +0.104 C 
ENDBRANCH   7  11
BRANCH   7  12
ATOM     12  C   UNL     1       7.326  -0.323  22.997  0.00  0.00    +0.104 C 
ATOM     13  C   UNL     1       7.208   0.396  24.330  0.00  0.00    +0.024 C 
ENDBRANCH   7  12
ENDBRANCH   1   8
BRANCH   4  14
ATOM     14  O   UNL     1       6.916  -5.806  25.973  0.00  0.00    -0.503 OA
ATOM     15  H   UNL     1       6.002  -5.483  26.105  0.00  0.00    +0.292 HD
ENDBRANCH   4  14
BRANCH   5  16
ATOM     16  O   UNL     1       6.467  -5.748  23.341  0.00  0.00    -0.491 OA
ATOM     17  C   UNL     1       6.625  -6.094  21.969  0.00  0.00    +0.277 C 
ENDBRANCH   5  16
TORSDOF 5
ENDMDL
MODEL 5
REMARK VINA RESULT:      -5.0      1.883      2.771
REMARK  Name = 
REMARK  8 active torsions:
REMARK  status: ('A' for Active; 'I' for Inactive)
REMARK    1  A    between atoms: C_1  and  C_2
REMARK    2  A    between atoms: C_2  and  N_3
REMARK    3  A    between atoms: N_3  and  C_4
REMARK    4  A    between atoms: C_4  and  C_5
REMARK    5  A    between atoms: C_6  and  C_8
REMARK    6  A    between atoms: C_10  and  O_11
REMARK    7  A    between atoms: O_11  and  C_12
REMARK    8  A    between atoms: C_13  and  O_14
REMARK                            x       y       z     vdW  Elec       q    Type
REMARK                         _______ _______ _______ _____ _____    ______ ____
ROOT
ATOM      1  C   UNL     1       9.805   0.015  23.381  0.00  0.00    +0.041 A 
ATOM      2  C   UNL     1      10.775   0.795  24.024  0.00  0.00    +0.017 A 
ATOM      3  C   UNL     1      10.709   2.185  23.972  0.00  0.00    +0.050 A 
ATOM      4  C   UNL     1       9.725   2.785  23.201  0.00  0.00    +0.158 A 
ATOM      5  C   UNL     1       8.790   2.031  22.482  0.00  0.00    +0.162 A 
ATOM      6  C   UNL     1       8.823   0.639  22.590  0.00  0.00    +0.062 A 
ENDROOT
BRANCH   1   8
ATOM      7  N   UNL     1       9.076  -2.204  24.344  0.00  0.00    -0.298 N 
ATOM      8  C   UNL     1       9.831  -1.475  23.408  0.00  0.00    +0.247 C 
ATOM      9  O   UNL     1      10.549  -2.024  22.579  0.00  0.00    -0.270 OA
BRANCH   7  11
ATOM     10  C   UNL     1       8.240  -4.549  24.193  0.00  0.00    +0.024 C 
ATOM     11  C   UNL     1       9.414  -3.624  24.483  0.00  0.00    +0.104 C 
ENDBRANCH   7  11
BRANCH   7  12
ATOM     12  C   UNL     1       8.129  -1.607  25.295  0.00  0.00    +0.104 C 
ATOM     13  C   UNL     1       8.688  -1.178  26.642  0.00  0.00    +0.024 C 
ENDBRANCH   7  12
ENDBRANCH   1   8
BRANCH   4  14
ATOM     14  O   UNL     1       9.712   4.152  23.131  0.00  0.00    -0.503 OA
ATOM     15  H   UNL     1      10.355   4.445  23.807  0.00  0.00    +0.292 HD
ENDBRANCH   4  14
BRANCH   5  16
ATOM     16  O   UNL     1       7.920   2.765  21.718  0.00  0.00    -0.491 OA
ATOM     17  C   UNL     1       6.572   2.825  22.174  0.00  0.00    +0.277 C 
ENDBRANCH   5  16
TORSDOF 5
ENDMDL
MODEL 6
REMARK VINA RESULT:      -5.0      1.847      2.266
REMARK  Name = 
REMARK  8 active torsions:
REMARK  status: ('A' for Active; 'I' for Inactive)
REMARK    1  A    between atoms: C_1  and  C_2
REMARK    2  A    between atoms: C_2  and  N_3
REMARK    3  A    between atoms: N_3  and  C_4
REMARK    4  A    between atoms: C_4  and  C_5
REMARK    5  A    between atoms: C_6  and  C_8
REMARK    6  A    between atoms: C_10  and  O_11
REMARK    7  A    between atoms: O_11  and  C_12
REMARK    8  A    between atoms: C_13  and  O_14
REMARK                            x       y       z     vdW  Elec       q    Type
REMARK                         _______ _______ _______ _____ _____    ______ ____
ROOT
ATOM      1  C   UNL     1       8.073  -1.528  22.543  0.00  0.00    +0.041 A 
ATOM      2  C   UNL     1       9.239  -1.327  21.791  0.00  0.00    +0.017 A 
ATOM      3  C   UNL     1       9.664  -0.038  21.481  0.00  0.00    +0.050 A 
ATOM      4  C   UNL     1       8.872   1.040  21.847  0.00  0.00    +0.158 A 
ATOM      5  C   UNL     1       7.662   0.866  22.529  0.00  0.00    +0.162 A 
ATOM      6  C   UNL     1       7.274  -0.424  22.893  0.00  0.00    +0.062 A 
ENDROOT
BRANCH   1   8
ATOM      7  N   UNL     1       8.030  -3.550  24.056  0.00  0.00    -0.298 N 
ATOM      8  C   UNL     1       7.578  -2.886  22.902  0.00  0.00    +0.247 C 
ATOM      9  O   UNL     1       6.765  -3.392  22.134  0.00  0.00    -0.270 OA
BRANCH   7  11
ATOM     10  C   UNL     1       6.576  -5.290  25.094  0.00  0.00    +0.024 C 
ATOM     11  C   UNL     1       7.723  -4.981  24.142  0.00  0.00    +0.104 C 
ENDBRANCH   7  11
BRANCH   7  12
ATOM     12  C   UNL     1       8.927  -2.960  25.058  0.00  0.00    +0.104 C 
ATOM     13  C   UNL     1       8.275  -2.203  26.202  0.00  0.00    +0.024 C 
ENDBRANCH   7  12
ENDBRANCH   1   8
BRANCH   4  14
ATOM     14  O   UNL     1       9.291   2.293  21.489  0.00  0.00    -0.503 OA
ATOM     15  H   UNL     1       8.502   2.720  21.100  0.00  0.00    +0.292 HD
ENDBRANCH   4  14
BRANCH   5  16
ATOM     16  O   UNL     1       6.962   2.021  22.767  0.00  0.00    -0.491 OA
ATOM     17  C   UNL     1       6.844   2.422  24.129  0.00  0.00    +0.277 C 
ENDBRANCH   5  16
TORSDOF 5
ENDMDL
MODEL 7
REMARK VINA RESULT:      -5.0      1.696      1.808
REMARK  Name = 
REMARK  8 active torsions:
REMARK  status: ('A' for Active; 'I' for Inactive)
REMARK    1  A    between atoms: C_1  and  C_2
REMARK    2  A    between atoms: C_2  and  N_3
REMARK    3  A    between atoms: N_3  and  C_4
REMARK    4  A    between atoms: C_4  and  C_5
REMARK    5  A    between atoms: C_6  and  C_8
REMARK    6  A    between atoms: C_10  and  O_11
REMARK    7  A    between atoms: O_11  and  C_12
REMARK    8  A    between atoms: C_13  and  O_14
REMARK                            x       y       z     vdW  Elec       q    Type
REMARK                         _______ _______ _______ _____ _____    ______ ____
ROOT
ATOM      1  C   UNL     1       8.821  -1.785  23.137  0.00  0.00    +0.041 A 
ATOM      2  C   UNL     1       9.790  -1.517  22.160  0.00  0.00    +0.017 A 
ATOM      3  C   UNL     1       9.818  -0.282  21.518  0.00  0.00    +0.050 A 
ATOM      4  C   UNL     1       8.822   0.644  21.790  0.00  0.00    +0.158 A 
ATOM      5  C   UNL     1       7.796   0.374  22.702  0.00  0.00    +0.162 A 
ATOM      6  C   UNL     1       7.809  -0.841  23.390  0.00  0.00    +0.062 A 
ENDROOT
BRANCH   1   8
ATOM      7  N   UNL     1       7.925  -4.132  23.397  0.00  0.00    -0.298 N 
ATOM      8  C   UNL     1       8.749  -3.089  23.854  0.00  0.00    +0.247 C 
ATOM      9  O   UNL     1       9.440  -3.197  24.862  0.00  0.00    -0.270 OA
BRANCH   7  11
ATOM     10  C   UNL     1       6.454  -5.040  25.196  0.00  0.00    +0.024 C 
ATOM     11  C   UNL     1       7.696  -5.235  24.337  0.00  0.00    +0.104 C 
ENDBRANCH   7  11
BRANCH   7  12
ATOM     12  C   UNL     1       7.151  -4.096  22.150  0.00  0.00    +0.104 C 
ATOM     13  C   UNL     1       6.833  -5.432  21.499  0.00  0.00    +0.024 C 
ENDBRANCH   7  12
ENDBRANCH   1   8
BRANCH   4  14
ATOM     14  O   UNL     1       8.849   1.832  21.110  0.00  0.00    -0.503 OA
ATOM     15  H   UNL     1       8.417   2.474  21.708  0.00  0.00    +0.292 HD
ENDBRANCH   4  14
BRANCH   5  16
ATOM     16  O   UNL     1       6.851   1.362  22.819  0.00  0.00    -0.491 OA
ATOM     17  C   UNL     1       6.781   2.025  24.077  0.00  0.00    +0.277 C 
ENDBRANCH   5  16
TORSDOF 5
ENDMDL
MODEL 8
REMARK VINA RESULT:      -5.0      1.976      2.447
REMARK  Name = 
REMARK  8 active torsions:
REMARK  status: ('A' for Active; 'I' for Inactive)
REMARK    1  A    between atoms: C_1  and  C_2
REMARK    2  A    between atoms: C_2  and  N_3
REMARK    3  A    between atoms: N_3  and  C_4
REMARK    4  A    between atoms: C_4  and  C_5
REMARK    5  A    between atoms: C_6  and  C_8
REMARK    6  A    between atoms: C_10  and  O_11
REMARK    7  A    between atoms: O_11  and  C_12
REMARK    8  A    between atoms: C_13  and  O_14
REMARK                            x       y       z     vdW  Elec       q    Type
REMARK                         _______ _______ _______ _____ _____    ______ ____
ROOT
ATOM      1  C   UNL     1       9.225  -0.167  24.750  0.00  0.00    +0.041 A 
ATOM      2  C   UNL     1      10.544   0.304  24.681  0.00  0.00    +0.017 A 
ATOM      3  C   UNL     1      10.907   1.242  23.719  0.00  0.00    +0.050 A 
ATOM      4  C   UNL     1       9.972   1.636  22.773  0.00  0.00    +0.158 A 
ATOM      5  C   UNL     1       8.669   1.123  22.768  0.00  0.00    +0.162 A 
ATOM      6  C   UNL     1       8.294   0.232  23.774  0.00  0.00    +0.062 A 
ENDROOT
BRANCH   1   8
ATOM      7  N   UNL     1       8.678  -2.534  25.442  0.00  0.00    -0.298 N 
ATOM      8  C   UNL     1       8.786  -1.169  25.761  0.00  0.00    +0.247 C 
ATOM      9  O   UNL     1       8.520  -0.737  26.879  0.00  0.00    -0.270 OA
BRANCH   7  11
ATOM     10  C   UNL     1       8.613  -4.716  26.648  0.00  0.00    +0.024 C 
ATOM     11  C   UNL     1       7.949  -3.368  26.403  0.00  0.00    +0.104 C 
ENDBRANCH   7  11
BRANCH   7  12
ATOM     12  C   UNL     1       9.072  -3.121  24.155  0.00  0.00    +0.104 C 
ATOM     13  C   UNL     1       7.954  -3.461  23.184  0.00  0.00    +0.024 C 
ENDBRANCH   7  12
ENDBRANCH   1   8
BRANCH   4  14
ATOM     14  O   UNL     1      10.369   2.525  21.812  0.00  0.00    -0.503 OA
ATOM     15  H   UNL     1       9.579   3.073  21.633  0.00  0.00    +0.292 HD
ENDBRANCH   4  14
BRANCH   5  16
ATOM     16  O   UNL     1       7.880   1.561  21.735  0.00  0.00    -0.491 OA
ATOM     17  C   UNL     1       6.802   2.423  22.083  0.00  0.00    +0.277 C 
ENDBRANCH   5  16
TORSDOF 5
ENDMDL
MODEL 9
REMARK VINA RESULT:      -5.0      2.792      6.118
REMARK  Name = 
REMARK  8 active torsions:
REMARK  status: ('A' for Active; 'I' for Inactive)
REMARK    1  A    between atoms: C_1  and  C_2
REMARK    2  A    between atoms: C_2  and  N_3
REMARK    3  A    between atoms: N_3  and  C_4
REMARK    4  A    between atoms: C_4  and  C_5
REMARK    5  A    between atoms: C_6  and  C_8
REMARK    6  A    between atoms: C_10  and  O_11
REMARK    7  A    between atoms: O_11  and  C_12
REMARK    8  A    between atoms: C_13  and  O_14
REMARK                            x       y       z     vdW  Elec       q    Type
REMARK                         _______ _______ _______ _____ _____    ______ ____
ROOT
ATOM      1  C   UNL     1       7.511  -4.250  23.646  0.00  0.00    +0.041 A 
ATOM      2  C   UNL     1       7.164  -4.897  22.451  0.00  0.00    +0.017 A 
ATOM      3  C   UNL     1       6.163  -5.864  22.440  0.00  0.00    +0.050 A 
ATOM      4  C   UNL     1       5.578  -6.245  23.638  0.00  0.00    +0.158 A 
ATOM      5  C   UNL     1       5.960  -5.674  24.857  0.00  0.00    +0.162 A 
ATOM      6  C   UNL     1       6.918  -4.659  24.854  0.00  0.00    +0.062 A 
ENDROOT
BRANCH   1   8
ATOM      7  N   UNL     1       8.300  -1.863  23.407  0.00  0.00    -0.298 N 
ATOM      8  C   UNL     1       8.573  -3.208  23.711  0.00  0.00    +0.247 C 
ATOM      9  O   UNL     1       9.694  -3.588  24.036  0.00  0.00    -0.270 OA
BRANCH   7  11
ATOM     10  C   UNL     1       9.646  -0.575  21.749  0.00  0.00    +0.024 C 
ATOM     11  C   UNL     1       9.464  -0.995  23.201  0.00  0.00    +0.104 C 
ENDBRANCH   7  11
BRANCH   7  12
ATOM     12  C   UNL     1       6.963  -1.333  23.106  0.00  0.00    +0.104 C 
ATOM     13  C   UNL     1       6.149  -0.814  24.279  0.00  0.00    +0.024 C 
ENDBRANCH   7  12
ENDBRANCH   1   8
BRANCH   4  14
ATOM     14  O   UNL     1       4.629  -7.231  23.602  0.00  0.00    -0.503 OA
ATOM     15  H   UNL     1       4.232  -7.165  22.710  0.00  0.00    +0.292 HD
ENDBRANCH   4  14
BRANCH   5  16
ATOM     16  O   UNL     1       5.336  -6.197  25.961  0.00  0.00    -0.491 OA
ATOM     17  C   UNL     1       5.787  -5.726  27.227  0.00  0.00    +0.277 C 
ENDBRANCH   5  16
TORSDOF 5
ENDMDL
