MODEL 1
REMARK VINA RESULT:      -5.9      0.000      0.000
REMARK  Name = 
REMARK  36 active torsions:
REMARK  status: ('A' for Active; 'I' for Inactive)
REMARK    1  A    between atoms: CB_1  and  CA_2
REMARK    2  A    between atoms: CA_2  and  N_4
REMARK    3  A    between atoms: CA_2  and  C_78
REMARK    4  A    between atoms: C_5  and  CA_7
REMARK    5  A    between atoms: CA_7  and  C_9
REMARK    6  A    between atoms: CA_7  and  N_18
REMARK    7  A    between atoms: C_9  and  C_10
REMARK    8  A    between atoms: C_10  and  C_11
REMARK    9  A    between atoms: C_11  and  CA_12
REMARK   10  A    between atoms: CA_12  and  N_14
REMARK   11  A    between atoms: CA_12  and  C_15
REMARK   12  A    between atoms: C_15  and  O_16
REMARK   13  A    between atoms: CD_19  and  CG_21
REMARK   14  A    between atoms: CG_21  and  CB_22
REMARK   15  A    between atoms: CB_22  and  CA_23
REMARK   16  A    between atoms: CA_23  and  N_25
REMARK   17  A    between atoms: CA_23  and  C_75
REMARK   18  A    between atoms: C_26  and  CA_28
REMARK   19  A    between atoms: CA_28  and  CB_30
REMARK   20  A    between atoms: CA_28  and  N_31
REMARK   21  A    between atoms: C_32  and  C_34
REMARK   22  A    between atoms: C_34  and  C_36
REMARK   23  A    between atoms: C_34  and  O_37
REMARK   24  A    between atoms: O_37  and  C_38
REMARK   25  A    between atoms: C_40  and  N_42
REMARK   26  A    between atoms: C_43  and  C_44
REMARK   27  A    between atoms: C_53  and  O_55
REMARK   28  A    between atoms: O_55  and  C_56
REMARK   29  A    between atoms: C_59  and  C_61
REMARK   30  A    between atoms: C_61  and  O_62
REMARK   31  A    between atoms: C_63  and  O_65
REMARK   32  A    between atoms: C_66  and  O_68
REMARK   33  A    between atoms: C_69  and  N_71
REMARK   34  A    between atoms: C_72  and  C_73
REMARK   35  A    between atoms: C_75  and  O_76
REMARK   36  A    between atoms: C_78  and  O_79
REMARK                            x       y       z     vdW  Elec       q    Type
REMARK                         _______ _______ _______ _____ _____    ______ ____
ROOT
ATOM      1  C   UNK A   1       9.012  -4.283  25.746  0.00  0.00    +0.156 C 
ATOM      2  C   UNK A   1       9.797  -5.476  25.213  0.00  0.00    +0.038 C 
ENDROOT
BRANCH   1   3
ATOM      3  N   UNK A   1       7.643  -4.700  26.017  0.00  0.00    -0.302 N 
ATOM      4  H   UNK A   1       7.280  -5.458  25.449  0.00  0.00    +0.150 HD
ATOM      5  C   UNK A   0       6.857  -4.082  26.962  0.00  0.00    +0.242 C 
ATOM      6  O   UNK A   0       7.241  -3.050  27.508  0.00  0.00    -0.273 OA
BRANCH   5   7
ATOM      7  C   UNK A   0       5.470  -4.708  27.233  0.00  0.00    +0.201 C 
ATOM      8  C   UNK A   0       5.569  -6.089  27.886  0.00  0.00    +0.048 C 
BRANCH   7   9
ATOM      9  O   UNK A   0       4.710  -3.775  28.010  0.00  0.00    -0.360 OA
BRANCH   9  10
ATOM     10  C   UNK A   0       4.204  -2.617  27.305  0.00  0.00    +0.176 C 
ATOM     11  C   UNK A   0       2.800  -2.942  26.693  0.00  0.00    +0.183 C 
ATOM     12  C   UNK A   0       1.686  -1.947  27.083  0.00  0.00    +0.178 C 
ATOM     13  O   UNK A   0       2.247  -0.635  27.099  0.00  0.00    -0.341 OA
ATOM     14  C   UNK A   0       2.945  -0.649  28.352  0.00  0.00    +0.273 C 
ATOM     15  O   UNK A   0       2.221  -1.483  29.280  0.00  0.00    -0.347 OA
ATOM     16  C   UNK A   0       1.192  -2.083  28.503  0.00  0.00    +0.197 C 
ATOM     17  C   UNK A   0       4.323  -1.299  28.134  0.00  0.00    +0.160 C 
BRANCH  17  18
ATOM     18  N   UNK A   0       5.305  -0.414  27.475  0.00  0.00    -0.305 N 
ATOM     19  H   UNK A   0       5.350  -0.408  26.465  0.00  0.00    +0.149 HD
ATOM     20  C   UNK A   0       6.060   0.507  28.155  0.00  0.00    +0.210 C 
ATOM     21  O   UNK A   0       6.008   0.665  29.368  0.00  0.00    -0.276 OA
ATOM     22  C   UNK A   0       6.952   1.328  27.262  0.00  0.00    +0.109 C 
ENDBRANCH  17  18
BRANCH  11  23
ATOM     23  O   UNK A   0       3.013  -2.936  25.241  0.00  0.00    -0.341 OA
BRANCH  23  24
ATOM     24  C   UNK A   0       2.782  -4.204  24.619  0.00  0.00    +0.274 C 
ATOM     25  C   UNK A   0       4.081  -4.780  23.982  0.00  0.00    +0.160 C 
ATOM     26  C   UNK A   0       3.797  -6.219  23.477  0.00  0.00    +0.171 C 
ATOM     27  C   UNK A   0       3.053  -7.076  24.522  0.00  0.00    +0.176 C 
ATOM     28  C   UNK A   0       1.826  -6.321  25.031  0.00  0.00    +0.178 C 
ATOM     29  O   UNK A   0       2.263  -5.090  25.611  0.00  0.00    -0.341 OA
BRANCH  25  30
ATOM     30  N   UNK A   0       4.652  -3.920  22.920  0.00  0.00    -0.305 N 
ATOM     31  H   UNK A   0       4.069  -3.164  22.583  0.00  0.00    +0.149 HD
ATOM     32  C   UNK A   0       5.986  -3.915  22.593  0.00  0.00    +0.210 C 
ATOM     33  O   UNK A   0       6.808  -4.655  23.125  0.00  0.00    -0.276 OA
ATOM     34  C   UNK A   0       6.382  -2.928  21.527  0.00  0.00    +0.109 C 
ENDBRANCH  25  30
BRANCH  26  35
ATOM     35  O   UNK A   0       5.026  -6.877  23.128  0.00  0.00    -0.387 OA
ATOM     36  H   UNK A   0       5.615  -6.175  22.788  0.00  0.00    +0.210 HD
ENDBRANCH  26  35
BRANCH  27  37
ATOM     37  O   UNK A   0       2.706  -8.334  23.938  0.00  0.00    -0.387 OA
ATOM     38  H   UNK A   0       3.015  -9.049  24.525  0.00  0.00    +0.210 HD
ENDBRANCH  27  37
BRANCH  28  39
ATOM     39  C   UNK A   0       1.038  -7.078  26.099  0.00  0.00    +0.190 C 
BRANCH  39  40
ATOM     40  O   UNK A   0       1.933  -7.949  26.801  0.00  0.00    -0.392 OA
ATOM     41  H   UNK A   0       2.830  -7.675  26.533  0.00  0.00    +0.210 HD
ENDBRANCH  39  40
ENDBRANCH  28  39
ENDBRANCH  23  24
ENDBRANCH  11  23
ENDBRANCH   9  10
ENDBRANCH   7   9
ENDBRANCH   5   7
ENDBRANCH   1   3
BRANCH   1  44
ATOM     42  N   GLN A   2       8.106  -2.146  24.921  0.00  0.00    -0.301 N 
ATOM     43  H   GLN A   2       7.474  -2.273  25.702  0.00  0.00    +0.150 HD
ATOM     44  C   UNK A   1       9.053  -3.132  24.716  0.00  0.00    +0.234 C 
ATOM     45  O   UNK A   1       9.815  -3.148  23.753  0.00  0.00    -0.274 OA
BRANCH  42  46
ATOM     46  CA  GLN A   2       7.883  -0.963  24.078  0.00  0.00    +0.182 C 
BRANCH  46  47
ATOM     47  C   GLN A   2       6.461  -0.398  24.209  0.00  0.00    +0.325 C 
ATOM     48  OXT GLN A   2       6.166   0.755  23.927  0.00  0.00    -0.249 OA
BRANCH  47  49
ATOM     49  O   GLN A   2       5.533  -1.301  24.602  0.00  0.00    -0.479 OA
ATOM     50  H   GLN A   2       5.497  -2.101  24.038  0.00  0.00    +0.295 HD
ENDBRANCH  47  49
ENDBRANCH  46  47
BRANCH  46  51
ATOM     51  CB  GLN A   2       8.923   0.139  24.264  0.00  0.00    +0.043 C 
BRANCH  51  52
ATOM     52  CG  GLN A   2       9.466   0.652  22.928  0.00  0.00    +0.098 C 
BRANCH  52  55
ATOM     53  N   GLN A   2       8.787   2.911  23.412  0.00  0.00    -0.304 N 
ATOM     54  H   GLN A   2       9.106   2.698  24.356  0.00  0.00    +0.149 HD
ATOM     55  CD  GLN A   2       8.742   1.897  22.485  0.00  0.00    +0.214 C 
ATOM     56  OE1 GLN A   2       8.217   1.998  21.385  0.00  0.00    -0.276 OA
BRANCH  53  57
ATOM     57  C   UNK A   1       8.027   4.147  23.223  0.00  0.00    +0.159 C 
BRANCH  57  60
ATOM     58  N   GLN A   2      10.325   4.932  23.547  0.00  0.00    -0.301 N 
ATOM     59  H   GLN A   2      10.463   3.963  23.813  0.00  0.00    +0.150 HD
ATOM     60  C   UNK A   1       9.026   5.320  23.301  0.00  0.00    +0.234 C 
ATOM     61  O   UNK A   1       8.775   6.481  22.989  0.00  0.00    -0.274 OA
BRANCH  58  63
ATOM     62  CB  GLN A   2      12.770   5.201  23.187  0.00  0.00    +0.040 C 
ATOM     63  CA  GLN A   2      11.461   5.844  23.625  0.00  0.00    +0.179 C 
BRANCH  63  64
ATOM     64  C   GLN A   2      11.590   6.528  24.995  0.00  0.00    +0.325 C 
ATOM     65  OXT GLN A   2      12.670   6.743  25.532  0.00  0.00    -0.249 OA
BRANCH  64  66
ATOM     66  O   GLN A   2      10.421   6.846  25.594  0.00  0.00    -0.479 OA
ATOM     67  H   GLN A   2      10.466   6.793  26.581  0.00  0.00    +0.295 HD
ENDBRANCH  64  66
ENDBRANCH  63  64
ENDBRANCH  58  63
ENDBRANCH  57  60
BRANCH  57  68
ATOM     68  C   UNK A   1       6.883   4.216  24.241  0.00  0.00    +0.032 C 
BRANCH  68  69
ATOM     69  C   UNK A   1       5.542   4.625  23.632  0.00  0.00    +0.004 C 
BRANCH  69  70
ATOM     70  C   UNK A   1       4.432   4.690  24.684  0.00  0.00    +0.030 C 
BRANCH  70  71
ATOM     71  C   UNK A   1       3.513   3.463  24.636  0.00  0.00    +0.161 C 
BRANCH  71  72
ATOM     72  N   UNK A   1       3.805   2.614  23.445  0.00  0.00    -0.318 NA
ATOM     73  H   UNK A   1       3.080   1.889  23.395  0.00  0.00    +0.119 HD
ATOM     74  H   UNK A   1       3.634   3.179  22.606  0.00  0.00    +0.119 HD
ENDBRANCH  71  72
BRANCH  71  75
ATOM     75  C   UNK A   1       3.731   2.613  25.895  0.00  0.00    +0.322 C 
ATOM     76  O   UNK A   1       3.814   3.048  27.032  0.00  0.00    -0.249 OA
BRANCH  75  77
ATOM     77  O   UNK A   1       3.843   1.295  25.583  0.00  0.00    -0.480 OA
ATOM     78  H   UNK A   1       4.732   1.008  25.907  0.00  0.00    +0.295 HD
ENDBRANCH  75  77
ENDBRANCH  71  75
ENDBRANCH  70  71
ENDBRANCH  69  70
ENDBRANCH  68  69
ENDBRANCH  57  68
ENDBRANCH  53  57
ENDBRANCH  52  55
ENDBRANCH  51  52
ENDBRANCH  46  51
ENDBRANCH  42  46
ENDBRANCH   1  44
TORSDOF 31
ENDMDL
MODEL 2
REMARK VINA RESULT:      -5.8      2.619      6.840
REMARK  Name = 
REMARK  36 active torsions:
REMARK  status: ('A' for Active; 'I' for Inactive)
REMARK    1  A    between atoms: CB_1  and  CA_2
REMARK    2  A    between atoms: CA_2  and  N_4
REMARK    3  A    between atoms: CA_2  and  C_78
REMARK    4  A    between atoms: C_5  and  CA_7
REMARK    5  A    between atoms: CA_7  and  C_9
REMARK    6  A    between atoms: CA_7  and  N_18
REMARK    7  A    between atoms: C_9  and  C_10
REMARK    8  A    between atoms: C_10  and  C_11
REMARK    9  A    between atoms: C_11  and  CA_12
REMARK   10  A    between atoms: CA_12  and  N_14
REMARK   11  A    between atoms: CA_12  and  C_15
REMARK   12  A    between atoms: C_15  and  O_16
REMARK   13  A    between atoms: CD_19  and  CG_21
REMARK   14  A    between atoms: CG_21  and  CB_22
REMARK   15  A    between atoms: CB_22  and  CA_23
REMARK   16  A    between atoms: CA_23  and  N_25
REMARK   17  A    between atoms: CA_23  and  C_75
REMARK   18  A    between atoms: C_26  and  CA_28
REMARK   19  A    between atoms: CA_28  and  CB_30
REMARK   20  A    between atoms: CA_28  and  N_31
REMARK   21  A    between atoms: C_32  and  C_34
REMARK   22  A    between atoms: C_34  and  C_36
REMARK   23  A    between atoms: C_34  and  O_37
REMARK   24  A    between atoms: O_37  and  C_38
REMARK   25  A    between atoms: C_40  and  N_42
REMARK   26  A    between atoms: C_43  and  C_44
REMARK   27  A    between atoms: C_53  and  O_55
REMARK   28  A    between atoms: O_55  and  C_56
REMARK   29  A    between atoms: C_59  and  C_61
REMARK   30  A    between atoms: C_61  and  O_62
REMARK   31  A    between atoms: C_63  and  O_65
REMARK   32  A    between atoms: C_66  and  O_68
REMARK   33  A    between atoms: C_69  and  N_71
REMARK   34  A    between atoms: C_72  and  C_73
REMARK   35  A    between atoms: C_75  and  O_76
REMARK   36  A    between atoms: C_78  and  O_79
REMARK                            x       y       z     vdW  Elec       q    Type
REMARK                         _______ _______ _______ _____ _____    ______ ____
ROOT
ATOM      1  C   UNK A   1       2.495  -0.553  28.925  0.00  0.00    +0.156 C 
ATOM      2  C   UNK A   1       2.235  -0.600  30.427  0.00  0.00    +0.038 C 
ENDROOT
BRANCH   1   3
ATOM      3  N   UNK A   1       2.367  -1.897  28.381  0.00  0.00    -0.302 N 
ATOM      4  H   UNK A   1       2.715  -2.655  28.958  0.00  0.00    +0.150 HD
ATOM      5  C   UNK A   0       1.840  -2.141  27.133  0.00  0.00    +0.242 C 
ATOM      6  O   UNK A   0       1.598  -1.207  26.370  0.00  0.00    -0.273 OA
BRANCH   5   7
ATOM      7  C   UNK A   0       1.648  -3.621  26.734  0.00  0.00    +0.201 C 
ATOM      8  C   UNK A   0       1.722  -3.832  25.220  0.00  0.00    +0.048 C 
BRANCH   7   9
ATOM      9  O   UNK A   0       2.611  -4.400  27.454  0.00  0.00    -0.360 OA
BRANCH   9  10
ATOM     10  C   UNK A   0       3.649  -5.025  26.663  0.00  0.00    +0.176 C 
ATOM     11  C   UNK A   0       4.996  -4.250  26.850  0.00  0.00    +0.183 C 
ATOM     12  C   UNK A   0       6.186  -5.131  27.287  0.00  0.00    +0.178 C 
ATOM     13  O   UNK A   0       6.091  -6.379  26.601  0.00  0.00    -0.341 OA
ATOM     14  C   UNK A   0       5.070  -7.036  27.364  0.00  0.00    +0.273 C 
ATOM     15  O   UNK A   0       5.168  -6.608  28.738  0.00  0.00    -0.347 OA
ATOM     16  C   UNK A   0       6.144  -5.574  28.729  0.00  0.00    +0.197 C 
ATOM     17  C   UNK A   0       3.698  -6.576  26.839  0.00  0.00    +0.160 C 
BRANCH  17  18
ATOM     18  N   UNK A   0       3.302  -7.209  25.564  0.00  0.00    -0.305 N 
ATOM     19  H   UNK A   0       4.027  -7.496  24.921  0.00  0.00    +0.149 HD
ATOM     20  C   UNK A   0       2.010  -7.561  25.271  0.00  0.00    +0.210 C 
ATOM     21  O   UNK A   0       1.065  -7.363  26.024  0.00  0.00    -0.276 OA
ATOM     22  C   UNK A   0       1.862  -8.238  23.935  0.00  0.00    +0.109 C 
ENDBRANCH  17  18
BRANCH  11  23
ATOM     23  O   UNK A   0       5.261  -3.635  25.544  0.00  0.00    -0.341 OA
BRANCH  23  24
ATOM     24  C   UNK A   0       6.643  -3.343  25.314  0.00  0.00    +0.274 C 
ATOM     25  C   UNK A   0       6.972  -3.265  23.795  0.00  0.00    +0.160 C 
ATOM     26  C   UNK A   0       8.437  -2.784  23.622  0.00  0.00    +0.171 C 
ATOM     27  C   UNK A   0       8.766  -1.563  24.505  0.00  0.00    +0.176 C 
ATOM     28  C   UNK A   0       8.347  -1.840  25.948  0.00  0.00    +0.178 C 
ATOM     29  O   UNK A   0       6.944  -2.109  25.966  0.00  0.00    -0.341 OA
BRANCH  25  30
ATOM     30  N   UNK A   0       6.711  -4.528  23.066  0.00  0.00    -0.305 N 
ATOM     31  H   UNK A   0       6.762  -5.384  23.605  0.00  0.00    +0.149 HD
ATOM     32  C   UNK A   0       6.139  -4.572  21.818  0.00  0.00    +0.210 C 
ATOM     33  O   UNK A   0       5.836  -3.565  21.185  0.00  0.00    -0.276 OA
ATOM     34  C   UNK A   0       5.901  -5.954  21.269  0.00  0.00    +0.109 C 
ENDBRANCH  25  30
BRANCH  26  35
ATOM     35  O   UNK A   0       8.693  -2.446  22.249  0.00  0.00    -0.387 OA
ATOM     36  H   UNK A   0       9.643  -2.218  22.206  0.00  0.00    +0.210 HD
ENDBRANCH  26  35
BRANCH  27  37
ATOM     37  O   UNK A   0      10.160  -1.266  24.397  0.00  0.00    -0.387 OA
ATOM     38  H   UNK A   0      10.476  -1.553  23.520  0.00  0.00    +0.210 HD
ENDBRANCH  27  37
BRANCH  28  39
ATOM     39  C   UNK A   0       8.603  -0.670  26.897  0.00  0.00    +0.190 C 
BRANCH  39  40
ATOM     40  O   UNK A   0       8.871   0.503  26.121  0.00  0.00    -0.392 OA
ATOM     41  H   UNK A   0       8.578   1.255  26.670  0.00  0.00    +0.210 HD
ENDBRANCH  39  40
ENDBRANCH  28  39
ENDBRANCH  23  24
ENDBRANCH  11  23
ENDBRANCH   9  10
ENDBRANCH   7   9
ENDBRANCH   5   7
ENDBRANCH   1   3
BRANCH   1  44
ATOM     42  N   GLN A   2       4.106   0.466  27.365  0.00  0.00    -0.301 N 
ATOM     43  H   GLN A   2       3.336   0.355  26.718  0.00  0.00    +0.150 HD
ATOM     44  C   UNK A   1       3.903   0.027  28.661  0.00  0.00    +0.234 C 
ATOM     45  O   UNK A   1       4.782   0.016  29.517  0.00  0.00    -0.274 OA
BRANCH  42  46
ATOM     46  CA  GLN A   2       5.354   1.018  26.819  0.00  0.00    +0.182 C 
BRANCH  46  47
ATOM     47  C   GLN A   2       5.564   0.662  25.340  0.00  0.00    +0.325 C 
ATOM     48  OXT GLN A   2       6.302   1.291  24.594  0.00  0.00    -0.249 OA
BRANCH  47  49
ATOM     49  O   GLN A   2       4.915  -0.454  24.934  0.00  0.00    -0.479 OA
ATOM     50  H   GLN A   2       5.509  -1.155  24.596  0.00  0.00    +0.295 HD
ENDBRANCH  47  49
ENDBRANCH  46  47
BRANCH  46  51
ATOM     51  CB  GLN A   2       5.522   2.519  27.044  0.00  0.00    +0.043 C 
BRANCH  51  52
ATOM     52  CG  GLN A   2       4.203   3.277  26.887  0.00  0.00    +0.098 C 
BRANCH  52  55
ATOM     53  N   GLN A   2       4.021   3.627  24.512  0.00  0.00    -0.304 N 
ATOM     54  H   GLN A   2       4.032   2.610  24.462  0.00  0.00    +0.149 HD
ATOM     55  CD  GLN A   2       4.255   4.233  25.724  0.00  0.00    +0.214 C 
ATOM     56  OE1 GLN A   2       4.437   5.435  25.865  0.00  0.00    -0.276 OA
BRANCH  53  57
ATOM     57  C   UNK A   1       4.166   4.363  23.256  0.00  0.00    +0.159 C 
BRANCH  57  60
ATOM     58  N   GLN A   2       2.907   4.093  21.173  0.00  0.00    -0.301 N 
ATOM     59  H   GLN A   2       3.837   4.158  20.773  0.00  0.00    +0.150 HD
ATOM     60  C   UNK A   1       2.806   4.309  22.529  0.00  0.00    +0.234 C 
ATOM     61  O   UNK A   1       1.712   4.263  23.085  0.00  0.00    -0.274 OA
BRANCH  58  63
ATOM     62  CB  GLN A   2       1.355   2.511  20.043  0.00  0.00    +0.040 C 
ATOM     63  CA  GLN A   2       1.769   3.959  20.268  0.00  0.00    +0.179 C 
BRANCH  63  64
ATOM     64  C   GLN A   2       1.964   4.712  18.942  0.00  0.00    +0.325 C 
ATOM     65  OXT GLN A   2       1.795   4.186  17.849  0.00  0.00    -0.249 OA
BRANCH  64  66
ATOM     66  O   GLN A   2       2.376   5.993  19.061  0.00  0.00    -0.479 OA
ATOM     67  H   GLN A   2       3.159   6.092  19.658  0.00  0.00    +0.295 HD
ENDBRANCH  64  66
ENDBRANCH  63  64
ENDBRANCH  58  63
ENDBRANCH  57  60
BRANCH  57  68
ATOM     68  C   UNK A   1       5.341   3.793  22.452  0.00  0.00    +0.032 C 
BRANCH  68  69
ATOM     69  C   UNK A   1       6.699   4.362  22.860  0.00  0.00    +0.004 C 
BRANCH  69  70
ATOM     70  C   UNK A   1       7.857   3.489  22.369  0.00  0.00    +0.030 C 
BRANCH  70  71
ATOM     71  C   UNK A   1       9.022   3.453  23.366  0.00  0.00    +0.161 C 
BRANCH  71  72
ATOM     72  N   UNK A   1       8.534   3.253  24.761  0.00  0.00    -0.318 NA
ATOM     73  H   UNK A   1       7.918   2.432  24.760  0.00  0.00    +0.119 HD
ATOM     74  H   UNK A   1       9.330   2.951  25.333  0.00  0.00    +0.119 HD
ENDBRANCH  71  72
BRANCH  71  75
ATOM     75  C   UNK A   1       9.958   2.289  23.014  0.00  0.00    +0.322 C 
ATOM     76  O   UNK A   1      10.428   1.497  23.815  0.00  0.00    -0.249 OA
BRANCH  75  77
ATOM     77  O   UNK A   1      10.222   2.258  21.681  0.00  0.00    -0.480 OA
ATOM     78  H   UNK A   1      10.349   1.306  21.446  0.00  0.00    +0.295 HD
ENDBRANCH  75  77
ENDBRANCH  71  75
ENDBRANCH  70  71
ENDBRANCH  69  70
ENDBRANCH  68  69
ENDBRANCH  57  68
ENDBRANCH  53  57
ENDBRANCH  52  55
ENDBRANCH  51  52
ENDBRANCH  46  51
ENDBRANCH  42  46
ENDBRANCH   1  44
TORSDOF 31
ENDMDL
MODEL 3
REMARK VINA RESULT:      -5.6      2.056      5.774
REMARK  Name = 
REMARK  36 active torsions:
REMARK  status: ('A' for Active; 'I' for Inactive)
REMARK    1  A    between atoms: CB_1  and  CA_2
REMARK    2  A    between atoms: CA_2  and  N_4
REMARK    3  A    between atoms: CA_2  and  C_78
REMARK    4  A    between atoms: C_5  and  CA_7
REMARK    5  A    between atoms: CA_7  and  C_9
REMARK    6  A    between atoms: CA_7  and  N_18
REMARK    7  A    between atoms: C_9  and  C_10
REMARK    8  A    between atoms: C_10  and  C_11
REMARK    9  A    between atoms: C_11  and  CA_12
REMARK   10  A    between atoms: CA_12  and  N_14
REMARK   11  A    between atoms: CA_12  and  C_15
REMARK   12  A    between atoms: C_15  and  O_16
REMARK   13  A    between atoms: CD_19  and  CG_21
REMARK   14  A    between atoms: CG_21  and  CB_22
REMARK   15  A    between atoms: CB_22  and  CA_23
REMARK   16  A    between atoms: CA_23  and  N_25
REMARK   17  A    between atoms: CA_23  and  C_75
REMARK   18  A    between atoms: C_26  and  CA_28
REMARK   19  A    between atoms: CA_28  and  CB_30
REMARK   20  A    between atoms: CA_28  and  N_31
REMARK   21  A    between atoms: C_32  and  C_34
REMARK   22  A    between atoms: C_34  and  C_36
REMARK   23  A    between atoms: C_34  and  O_37
REMARK   24  A    between atoms: O_37  and  C_38
REMARK   25  A    between atoms: C_40  and  N_42
REMARK   26  A    between atoms: C_43  and  C_44
REMARK   27  A    between atoms: C_53  and  O_55
REMARK   28  A    between atoms: O_55  and  C_56
REMARK   29  A    between atoms: C_59  and  C_61
REMARK   30  A    between atoms: C_61  and  O_62
REMARK   31  A    between atoms: C_63  and  O_65
REMARK   32  A    between atoms: C_66  and  O_68
REMARK   33  A    between atoms: C_69  and  N_71
REMARK   34  A    between atoms: C_72  and  C_73
REMARK   35  A    between atoms: C_75  and  O_76
REMARK   36  A    between atoms: C_78  and  O_79
REMARK                            x       y       z     vdW  Elec       q    Type
REMARK                         _______ _______ _______ _____ _____    ______ ____
ROOT
ATOM      1  C   UNK A   1       1.847  -0.162  28.624  0.00  0.00    +0.156 C 
ATOM      2  C   UNK A   1       0.752  -0.302  29.675  0.00  0.00    +0.038 C 
ENDROOT
BRANCH   1   3
ATOM      3  N   UNK A   1       2.296  -1.490  28.230  0.00  0.00    -0.302 N 
ATOM      4  H   UNK A   1       2.103  -2.245  28.880  0.00  0.00    +0.150 HD
ATOM      5  C   UNK A   0       2.984  -1.720  27.061  0.00  0.00    +0.242 C 
ATOM      6  O   UNK A   0       3.376  -0.775  26.378  0.00  0.00    -0.273 OA
BRANCH   5   7
ATOM      7  C   UNK A   0       3.289  -3.193  26.709  0.00  0.00    +0.201 C 
ATOM      8  C   UNK A   0       3.338  -3.435  25.198  0.00  0.00    +0.048 C 
BRANCH   7   9
ATOM      9  O   UNK A   0       4.502  -3.563  27.373  0.00  0.00    -0.360 OA
BRANCH   9  10
ATOM     10  C   UNK A   0       4.928  -4.937  27.211  0.00  0.00    +0.176 C 
ATOM     11  C   UNK A   0       6.358  -5.123  27.819  0.00  0.00    +0.183 C 
ATOM     12  C   UNK A   0       6.469  -6.261  28.857  0.00  0.00    +0.178 C 
ATOM     13  O   UNK A   0       5.660  -7.350  28.412  0.00  0.00    -0.341 OA
ATOM     14  C   UNK A   0       4.352  -6.885  28.769  0.00  0.00    +0.273 C 
ATOM     15  O   UNK A   0       4.451  -6.083  29.964  0.00  0.00    -0.347 OA
ATOM     16  C   UNK A   0       5.848  -5.951  30.198  0.00  0.00    +0.197 C 
ATOM     17  C   UNK A   0       3.838  -5.968  27.645  0.00  0.00    +0.160 C 
BRANCH  17  18
ATOM     18  N   UNK A   0       3.370  -6.693  26.446  0.00  0.00    -0.305 N 
ATOM     19  H   UNK A   0       4.044  -7.216  25.904  0.00  0.00    +0.149 HD
ATOM     20  C   UNK A   0       2.045  -6.815  26.112  0.00  0.00    +0.210 C 
ATOM     21  O   UNK A   0       1.133  -6.317  26.759  0.00  0.00    -0.276 OA
ATOM     22  C   UNK A   0       1.813  -7.643  24.877  0.00  0.00    +0.109 C 
ENDBRANCH  17  18
BRANCH  11  23
ATOM     23  O   UNK A   0       7.226  -5.391  26.666  0.00  0.00    -0.341 OA
BRANCH  23  24
ATOM     24  C   UNK A   0       6.851  -4.676  25.485  0.00  0.00    +0.274 C 
ATOM     25  C   UNK A   0       8.057  -3.906  24.869  0.00  0.00    +0.160 C 
ATOM     26  C   UNK A   0       7.622  -3.295  23.511  0.00  0.00    +0.171 C 
ATOM     27  C   UNK A   0       6.868  -4.305  22.622  0.00  0.00    +0.176 C 
ATOM     28  C   UNK A   0       5.742  -4.959  23.423  0.00  0.00    +0.178 C 
ATOM     29  O   UNK A   0       6.316  -5.616  24.554  0.00  0.00    -0.341 OA
BRANCH  25  30
ATOM     30  N   UNK A   0       8.637  -2.890  25.777  0.00  0.00    -0.305 N 
ATOM     31  H   UNK A   0       9.639  -2.923  25.918  0.00  0.00    +0.149 HD
ATOM     32  C   UNK A   0       7.954  -1.769  26.185  0.00  0.00    +0.210 C 
ATOM     33  O   UNK A   0       6.792  -1.540  25.865  0.00  0.00    -0.276 OA
ATOM     34  C   UNK A   0       8.736  -0.825  27.059  0.00  0.00    +0.109 C 
ENDBRANCH  25  30
BRANCH  26  35
ATOM     35  O   UNK A   0       8.767  -2.809  22.792  0.00  0.00    -0.387 OA
ATOM     36  H   UNK A   0       8.431  -2.533  21.916  0.00  0.00    +0.210 HD
ENDBRANCH  26  35
BRANCH  27  37
ATOM     37  O   UNK A   0       6.381  -3.635  21.457  0.00  0.00    -0.387 OA
ATOM     38  H   UNK A   0       5.967  -2.794  21.727  0.00  0.00    +0.210 HD
ENDBRANCH  27  37
BRANCH  28  39
ATOM     39  C   UNK A   0       4.955  -6.005  22.633  0.00  0.00    +0.190 C 
BRANCH  39  40
ATOM     40  O   UNK A   0       5.646  -6.273  21.408  0.00  0.00    -0.392 OA
ATOM     41  H   UNK A   0       5.406  -5.544  20.805  0.00  0.00    +0.210 HD
ENDBRANCH  39  40
ENDBRANCH  28  39
ENDBRANCH  23  24
ENDBRANCH  11  23
ENDBRANCH   9  10
ENDBRANCH   7   9
ENDBRANCH   5   7
ENDBRANCH   1   3
BRANCH   1  44
ATOM     42  N   GLN A   2       3.639   1.490  28.271  0.00  0.00    -0.301 N 
ATOM     43  H   GLN A   2       3.296   1.452  27.319  0.00  0.00    +0.150 HD
ATOM     44  C   UNK A   1       3.011   0.677  29.196  0.00  0.00    +0.234 C 
ATOM     45  O   UNK A   1       3.389   0.557  30.358  0.00  0.00    -0.274 OA
BRANCH  42  46
ATOM     46  CA  GLN A   2       4.799   2.359  28.518  0.00  0.00    +0.182 C 
BRANCH  46  47
ATOM     47  C   GLN A   2       6.133   1.601  28.452  0.00  0.00    +0.325 C 
ATOM     48  OXT GLN A   2       6.238   0.404  28.676  0.00  0.00    -0.249 OA
BRANCH  47  49
ATOM     49  O   GLN A   2       7.186   2.354  28.059  0.00  0.00    -0.479 OA
ATOM     50  H   GLN A   2       7.829   2.538  28.775  0.00  0.00    +0.295 HD
ENDBRANCH  47  49
ENDBRANCH  46  47
BRANCH  46  51
ATOM     51  CB  GLN A   2       4.840   3.608  27.642  0.00  0.00    +0.043 C 
BRANCH  51  52
ATOM     52  CG  GLN A   2       4.271   3.352  26.245  0.00  0.00    +0.098 C 
BRANCH  52  55
ATOM     53  N   GLN A   2       6.270   2.619  25.120  0.00  0.00    -0.304 N 
ATOM     54  H   GLN A   2       6.333   1.947  25.884  0.00  0.00    +0.149 HD
ATOM     55  CD  GLN A   2       5.306   3.597  25.179  0.00  0.00    +0.214 C 
ATOM     56  OE1 GLN A   2       5.251   4.551  24.413  0.00  0.00    -0.276 OA
BRANCH  53  57
ATOM     57  C   UNK A   1       7.433   2.751  24.244  0.00  0.00    +0.159 C 
BRANCH  57  60
ATOM     58  N   GLN A   2       9.264   4.358  23.992  0.00  0.00    -0.301 N 
ATOM     59  H   GLN A   2       9.324   3.924  23.077  0.00  0.00    +0.150 HD
ATOM     60  C   UNK A   1       8.376   3.793  24.880  0.00  0.00    +0.234 C 
ATOM     61  O   UNK A   1       8.257   4.252  26.013  0.00  0.00    -0.274 OA
BRANCH  58  63
ATOM     62  CB  GLN A   2       9.732   6.800  24.013  0.00  0.00    +0.040 C 
ATOM     63  CA  GLN A   2      10.231   5.397  24.334  0.00  0.00    +0.179 C 
BRANCH  63  64
ATOM     64  C   GLN A   2      11.626   5.137  23.746  0.00  0.00    +0.325 C 
ATOM     65  OXT GLN A   2      11.882   4.161  23.051  0.00  0.00    -0.249 OA
BRANCH  64  66
ATOM     66  O   GLN A   2      12.572   6.042  24.080  0.00  0.00    -0.479 OA
ATOM     67  H   GLN A   2      13.421   5.623  24.370  0.00  0.00    +0.295 HD
ENDBRANCH  64  66
ENDBRANCH  63  64
ENDBRANCH  58  63
ENDBRANCH  57  60
BRANCH  57  68
ATOM     68  C   UNK A   1       6.977   3.090  22.820  0.00  0.00    +0.032 C 
BRANCH  68  69
ATOM     69  C   UNK A   1       7.502   2.124  21.759  0.00  0.00    +0.004 C 
BRANCH  69  70
ATOM     70  C   UNK A   1       8.139   0.879  22.384  0.00  0.00    +0.030 C 
BRANCH  70  71
ATOM     71  C   UNK A   1       9.657   0.832  22.166  0.00  0.00    +0.161 C 
BRANCH  71  72
ATOM     72  N   UNK A   1      10.181   2.154  21.717  0.00  0.00    -0.318 NA
ATOM     73  H   UNK A   1       9.425   2.633  21.215  0.00  0.00    +0.119 HD
ATOM     74  H   UNK A   1      10.320   2.737  22.549  0.00  0.00    +0.119 HD
ENDBRANCH  71  72
BRANCH  71  75
ATOM     75  C   UNK A   1      10.350   0.465  23.485  0.00  0.00    +0.322 C 
ATOM     76  O   UNK A   1      10.364  -0.647  23.987  0.00  0.00    -0.249 OA
BRANCH  75  77
ATOM     77  O   UNK A   1      10.938   1.553  24.049  0.00  0.00    -0.480 OA
ATOM     78  H   UNK A   1      10.362   1.818  24.807  0.00  0.00    +0.295 HD
ENDBRANCH  75  77
ENDBRANCH  71  75
ENDBRANCH  70  71
ENDBRANCH  69  70
ENDBRANCH  68  69
ENDBRANCH  57  68
ENDBRANCH  53  57
ENDBRANCH  52  55
ENDBRANCH  51  52
ENDBRANCH  46  51
ENDBRANCH  42  46
ENDBRANCH   1  44
TORSDOF 31
ENDMDL
MODEL 4
REMARK VINA RESULT:      -5.4      1.889      3.374
REMARK  Name = 
REMARK  36 active torsions:
REMARK  status: ('A' for Active; 'I' for Inactive)
REMARK    1  A    between atoms: CB_1  and  CA_2
REMARK    2  A    between atoms: CA_2  and  N_4
REMARK    3  A    between atoms: CA_2  and  C_78
REMARK    4  A    between atoms: C_5  and  CA_7
REMARK    5  A    between atoms: CA_7  and  C_9
REMARK    6  A    between atoms: CA_7  and  N_18
REMARK    7  A    between atoms: C_9  and  C_10
REMARK    8  A    between atoms: C_10  and  C_11
REMARK    9  A    between atoms: C_11  and  CA_12
REMARK   10  A    between atoms: CA_12  and  N_14
REMARK   11  A    between atoms: CA_12  and  C_15
REMARK   12  A    between atoms: C_15  and  O_16
REMARK   13  A    between atoms: CD_19  and  CG_21
REMARK   14  A    between atoms: CG_21  and  CB_22
REMARK   15  A    between atoms: CB_22  and  CA_23
REMARK   16  A    between atoms: CA_23  and  N_25
REMARK   17  A    between atoms: CA_23  and  C_75
REMARK   18  A    between atoms: C_26  and  CA_28
REMARK   19  A    between atoms: CA_28  and  CB_30
REMARK   20  A    between atoms: CA_28  and  N_31
REMARK   21  A    between atoms: C_32  and  C_34
REMARK   22  A    between atoms: C_34  and  C_36
REMARK   23  A    between atoms: C_34  and  O_37
REMARK   24  A    between atoms: O_37  and  C_38
REMARK   25  A    between atoms: C_40  and  N_42
REMARK   26  A    between atoms: C_43  and  C_44
REMARK   27  A    between atoms: C_53  and  O_55
REMARK   28  A    between atoms: O_55  and  C_56
REMARK   29  A    between atoms: C_59  and  C_61
REMARK   30  A    between atoms: C_61  and  O_62
REMARK   31  A    between atoms: C_63  and  O_65
REMARK   32  A    between atoms: C_66  and  O_68
REMARK   33  A    between atoms: C_69  and  N_71
REMARK   34  A    between atoms: C_72  and  C_73
REMARK   35  A    between atoms: C_75  and  O_76
REMARK   36  A    between atoms: C_78  and  O_79
REMARK                            x       y       z     vdW  Elec       q    Type
REMARK                         _______ _______ _______ _____ _____    ______ ____
ROOT
ATOM      1  C   UNK A   1       9.217  -2.988  25.111  0.00  0.00    +0.156 C 
ATOM      2  C   UNK A   1       9.205  -4.456  24.702  0.00  0.00    +0.038 C 
ENDROOT
BRANCH   1   3
ATOM      3  N   UNK A   1       7.853  -2.564  25.394  0.00  0.00    -0.302 N 
ATOM      4  H   UNK A   1       7.133  -2.909  24.769  0.00  0.00    +0.150 HD
ATOM      5  C   UNK A   0       7.546  -1.706  26.425  0.00  0.00    +0.242 C 
ATOM      6  O   UNK A   0       8.443  -1.147  27.053  0.00  0.00    -0.273 OA
BRANCH   5   7
ATOM      7  C   UNK A   0       6.046  -1.440  26.687  0.00  0.00    +0.201 C 
ATOM      8  C   UNK A   0       5.373  -0.700  25.528  0.00  0.00    +0.048 C 
BRANCH   7   9
ATOM      9  O   UNK A   0       5.423  -2.694  26.987  0.00  0.00    -0.360 OA
BRANCH   9  10
ATOM     10  C   UNK A   0       4.088  -2.628  27.545  0.00  0.00    +0.176 C 
ATOM     11  C   UNK A   0       3.444  -4.055  27.545  0.00  0.00    +0.183 C 
ATOM     12  C   UNK A   0       2.915  -4.518  28.920  0.00  0.00    +0.178 C 
ATOM     13  O   UNK A   0       2.326  -3.393  29.572  0.00  0.00    -0.341 OA
ATOM     14  C   UNK A   0       3.494  -2.700  30.034  0.00  0.00    +0.273 C 
ATOM     15  O   UNK A   0       4.517  -3.667  30.348  0.00  0.00    -0.347 OA
ATOM     16  C   UNK A   0       3.989  -4.912  29.905  0.00  0.00    +0.197 C 
ATOM     17  C   UNK A   0       4.028  -1.827  28.884  0.00  0.00    +0.160 C 
BRANCH  17  18
ATOM     18  N   UNK A   0       3.251  -0.591  28.660  0.00  0.00    -0.305 N 
ATOM     19  H   UNK A   0       2.263  -0.670  28.460  0.00  0.00    +0.149 HD
ATOM     20  C   UNK A   0       3.767   0.665  28.854  0.00  0.00    +0.210 C 
ATOM     21  O   UNK A   0       4.920   0.878  29.205  0.00  0.00    -0.276 OA
ATOM     22  C   UNK A   0       2.770   1.766  28.612  0.00  0.00    +0.109 C 
ENDBRANCH  17  18
BRANCH  11  23
ATOM     23  O   UNK A   0       2.348  -3.972  26.572  0.00  0.00    -0.341 OA
BRANCH  23  24
ATOM     24  C   UNK A   0       2.150  -5.175  25.824  0.00  0.00    +0.274 C 
ATOM     25  C   UNK A   0       3.427  -5.577  25.027  0.00  0.00    +0.160 C 
ATOM     26  C   UNK A   0       3.197  -6.966  24.378  0.00  0.00    +0.171 C 
ATOM     27  C   UNK A   0       2.600  -7.990  25.365  0.00  0.00    +0.176 C 
ATOM     28  C   UNK A   0       1.373  -7.391  26.052  0.00  0.00    +0.178 C 
ATOM     29  O   UNK A   0       1.775  -6.204  26.739  0.00  0.00    -0.341 OA
BRANCH  25  30
ATOM     30  N   UNK A   0       3.849  -4.562  24.035  0.00  0.00    -0.305 N 
ATOM     31  H   UNK A   0       3.137  -3.922  23.704  0.00  0.00    +0.149 HD
ATOM     32  C   UNK A   0       5.166  -4.268  23.774  0.00  0.00    +0.210 C 
ATOM     33  O   UNK A   0       6.101  -4.854  24.311  0.00  0.00    -0.276 OA
ATOM     34  C   UNK A   0       5.392  -3.164  22.775  0.00  0.00    +0.109 C 
ENDBRANCH  25  30
BRANCH  26  35
ATOM     35  O   UNK A   0       4.433  -7.487  23.862  0.00  0.00    -0.387 OA
ATOM     36  H   UNK A   0       4.427  -7.284  22.905  0.00  0.00    +0.210 HD
ENDBRANCH  26  35
BRANCH  27  37
ATOM     37  O   UNK A   0       2.289  -9.196  24.664  0.00  0.00    -0.387 OA
ATOM     38  H   UNK A   0       3.075  -9.774  24.668  0.00  0.00    +0.210 HD
ENDBRANCH  27  37
BRANCH  28  39
ATOM     39  C   UNK A   0       0.729  -8.321  27.078  0.00  0.00    +0.190 C 
BRANCH  39  40
ATOM     40  O   UNK A   0       1.578  -8.398  28.228  0.00  0.00    -0.392 OA
ATOM     41  H   UNK A   0       1.646  -7.485  28.567  0.00  0.00    +0.210 HD
ENDBRANCH  39  40
ENDBRANCH  28  39
ENDBRANCH  23  24
ENDBRANCH  11  23
ENDBRANCH   9  10
ENDBRANCH   7   9
ENDBRANCH   5   7
ENDBRANCH   1   3
BRANCH   1  44
ATOM     42  N   GLN A   2       9.553  -0.790  24.051  0.00  0.00    -0.301 N 
ATOM     43  H   GLN A   2       8.954  -0.489  24.808  0.00  0.00    +0.150 HD
ATOM     44  C   UNK A   1       9.846  -2.140  23.983  0.00  0.00    +0.234 C 
ATOM     45  O   UNK A   1      10.481  -2.649  23.064  0.00  0.00    -0.274 OA
BRANCH  42  46
ATOM     46  CA  GLN A   2       9.975   0.242  23.093  0.00  0.00    +0.182 C 
BRANCH  46  47
ATOM     47  C   GLN A   2       9.175   0.199  21.783  0.00  0.00    +0.325 C 
ATOM     48  OXT GLN A   2       8.312   1.016  21.495  0.00  0.00    -0.249 OA
BRANCH  47  49
ATOM     49  O   GLN A   2       9.546  -0.784  20.930  0.00  0.00    -0.479 OA
ATOM     50  H   GLN A   2       8.807  -1.145  20.398  0.00  0.00    +0.295 HD
ENDBRANCH  47  49
ENDBRANCH  46  47
BRANCH  46  51
ATOM     51  CB  GLN A   2       9.996   1.656  23.669  0.00  0.00    +0.043 C 
BRANCH  51  52
ATOM     52  CG  GLN A   2      10.847   2.609  22.829  0.00  0.00    +0.098 C 
BRANCH  52  55
ATOM     53  N   GLN A   2       9.791   4.379  24.074  0.00  0.00    -0.304 N 
ATOM     54  H   GLN A   2       8.931   3.874  23.869  0.00  0.00    +0.149 HD
ATOM     55  CD  GLN A   2      10.960   3.962  23.481  0.00  0.00    +0.214 C 
ATOM     56  OE1 GLN A   2      12.009   4.592  23.518  0.00  0.00    -0.276 OA
BRANCH  53  57
ATOM     57  C   UNK A   1       9.664   5.722  24.638  0.00  0.00    +0.159 C 
BRANCH  57  60
ATOM     58  N   GLN A   2       7.885   4.532  25.830  0.00  0.00    -0.301 N 
ATOM     59  H   GLN A   2       7.849   4.013  24.959  0.00  0.00    +0.150 HD
ATOM     60  C   UNK A   1       8.724   5.624  25.858  0.00  0.00    +0.234 C 
ATOM     61  O   UNK A   1       8.811   6.313  26.871  0.00  0.00    -0.274 OA
BRANCH  58  63
ATOM     62  CB  GLN A   2       7.063   2.749  27.356  0.00  0.00    +0.040 C 
ATOM     63  CA  GLN A   2       6.934   4.191  26.883  0.00  0.00    +0.179 C 
BRANCH  63  64
ATOM     64  C   GLN A   2       5.484   4.547  26.521  0.00  0.00    +0.325 C 
ATOM     65  OXT GLN A   2       4.690   3.728  26.074  0.00  0.00    -0.249 OA
BRANCH  64  66
ATOM     66  O   GLN A   2       5.148   5.845  26.691  0.00  0.00    -0.479 OA
ATOM     67  H   GLN A   2       4.352   5.965  27.268  0.00  0.00    +0.295 HD
ENDBRANCH  64  66
ENDBRANCH  63  64
ENDBRANCH  58  63
ENDBRANCH  57  60
BRANCH  57  68
ATOM     68  C   UNK A   1       9.198   6.700  23.553  0.00  0.00    +0.032 C 
BRANCH  68  69
ATOM     69  C   UNK A   1       7.698   6.988  23.588  0.00  0.00    +0.004 C 
BRANCH  69  70
ATOM     70  C   UNK A   1       6.962   6.338  22.412  0.00  0.00    +0.030 C 
BRANCH  70  71
ATOM     71  C   UNK A   1       5.930   5.301  22.874  0.00  0.00    +0.161 C 
BRANCH  71  72
ATOM     72  N   UNK A   1       4.662   5.416  22.097  0.00  0.00    -0.318 NA
ATOM     73  H   UNK A   1       4.783   4.886  21.226  0.00  0.00    +0.119 HD
ATOM     74  H   UNK A   1       3.938   4.890  22.597  0.00  0.00    +0.119 HD
ENDBRANCH  71  72
BRANCH  71  75
ATOM     75  C   UNK A   1       6.496   3.891  22.663  0.00  0.00    +0.322 C 
ATOM     76  O   UNK A   1       5.980   2.859  23.062  0.00  0.00    -0.249 OA
BRANCH  75  77
ATOM     77  O   UNK A   1       7.673   3.931  21.984  0.00  0.00    -0.480 OA
ATOM     78  H   UNK A   1       8.386   3.826  22.660  0.00  0.00    +0.295 HD
ENDBRANCH  75  77
ENDBRANCH  71  75
ENDBRANCH  70  71
ENDBRANCH  69  70
ENDBRANCH  68  69
ENDBRANCH  57  68
ENDBRANCH  53  57
ENDBRANCH  52  55
ENDBRANCH  51  52
ENDBRANCH  46  51
ENDBRANCH  42  46
ENDBRANCH   1  44
TORSDOF 31
ENDMDL
MODEL 5
REMARK VINA RESULT:      -5.3      2.335      7.798
REMARK  Name = 
REMARK  36 active torsions:
REMARK  status: ('A' for Active; 'I' for Inactive)
REMARK    1  A    between atoms: CB_1  and  CA_2
REMARK    2  A    between atoms: CA_2  and  N_4
REMARK    3  A    between atoms: CA_2  and  C_78
REMARK    4  A    between atoms: C_5  and  CA_7
REMARK    5  A    between atoms: CA_7  and  C_9
REMARK    6  A    between atoms: CA_7  and  N_18
REMARK    7  A    between atoms: C_9  and  C_10
REMARK    8  A    between atoms: C_10  and  C_11
REMARK    9  A    between atoms: C_11  and  CA_12
REMARK   10  A    between atoms: CA_12  and  N_14
REMARK   11  A    between atoms: CA_12  and  C_15
REMARK   12  A    between atoms: C_15  and  O_16
REMARK   13  A    between atoms: CD_19  and  CG_21
REMARK   14  A    between atoms: CG_21  and  CB_22
REMARK   15  A    between atoms: CB_22  and  CA_23
REMARK   16  A    between atoms: CA_23  and  N_25
REMARK   17  A    between atoms: CA_23  and  C_75
REMARK   18  A    between atoms: C_26  and  CA_28
REMARK   19  A    between atoms: CA_28  and  CB_30
REMARK   20  A    between atoms: CA_28  and  N_31
REMARK   21  A    between atoms: C_32  and  C_34
REMARK   22  A    between atoms: C_34  and  C_36
REMARK   23  A    between atoms: C_34  and  O_37
REMARK   24  A    between atoms: O_37  and  C_38
REMARK   25  A    between atoms: C_40  and  N_42
REMARK   26  A    between atoms: C_43  and  C_44
REMARK   27  A    between atoms: C_53  and  O_55
REMARK   28  A    between atoms: O_55  and  C_56
REMARK   29  A    between atoms: C_59  and  C_61
REMARK   30  A    between atoms: C_61  and  O_62
REMARK   31  A    between atoms: C_63  and  O_65
REMARK   32  A    between atoms: C_66  and  O_68
REMARK   33  A    between atoms: C_69  and  N_71
REMARK   34  A    between atoms: C_72  and  C_73
REMARK   35  A    between atoms: C_75  and  O_76
REMARK   36  A    between atoms: C_78  and  O_79
REMARK                            x       y       z     vdW  Elec       q    Type
REMARK                         _______ _______ _______ _____ _____    ______ ____
ROOT
ATOM      1  C   UNK A   1       2.629  -3.834  27.765  0.00  0.00    +0.156 C 
ATOM      2  C   UNK A   1       1.351  -4.357  27.119  0.00  0.00    +0.038 C 
ENDROOT
BRANCH   1   3
ATOM      3  N   UNK A   1       2.871  -2.475  27.301  0.00  0.00    -0.302 N 
ATOM      4  H   UNK A   1       2.650  -2.281  26.330  0.00  0.00    +0.150 HD
ATOM      5  C   UNK A   0       3.409  -1.503  28.114  0.00  0.00    +0.242 C 
ATOM      6  O   UNK A   0       3.846  -1.797  29.225  0.00  0.00    -0.273 OA
BRANCH   5   7
ATOM      7  C   UNK A   0       3.494  -0.074  27.529  0.00  0.00    +0.201 C 
ATOM      8  C   UNK A   0       2.114   0.539  27.281  0.00  0.00    +0.048 C 
BRANCH   7   9
ATOM      9  O   UNK A   0       4.305   0.713  28.409  0.00  0.00    -0.360 OA
BRANCH   9  10
ATOM     10  C   UNK A   0       5.468   1.340  27.817  0.00  0.00    +0.176 C 
ATOM     11  C   UNK A   0       5.048   2.672  27.109  0.00  0.00    +0.183 C 
ATOM     12  C   UNK A   0       5.846   3.915  27.558  0.00  0.00    +0.178 C 
ATOM     13  O   UNK A   0       7.206   3.526  27.748  0.00  0.00    -0.341 OA
ATOM     14  C   UNK A   0       7.129   2.871  29.022  0.00  0.00    +0.273 C 
ATOM     15  O   UNK A   0       6.110   3.512  29.816  0.00  0.00    -0.347 OA
ATOM     16  C   UNK A   0       5.484   4.432  28.930  0.00  0.00    +0.197 C 
ATOM     17  C   UNK A   0       6.684   1.415  28.794  0.00  0.00    +0.160 C 
BRANCH  17  18
ATOM     18  N   UNK A   0       7.754   0.534  28.285  0.00  0.00    -0.305 N 
ATOM     19  H   UNK A   0       8.611   0.456  28.817  0.00  0.00    +0.149 HD
ATOM     20  C   UNK A   0       7.592  -0.297  27.206  0.00  0.00    +0.210 C 
ATOM     21  O   UNK A   0       6.560  -0.369  26.553  0.00  0.00    -0.276 OA
ATOM     22  C   UNK A   0       8.807  -1.137  26.909  0.00  0.00    +0.109 C 
ENDBRANCH  17  18
BRANCH  11  23
ATOM     23  O   UNK A   0       5.251   2.418  25.678  0.00  0.00    -0.341 OA
BRANCH  23  24
ATOM     24  C   UNK A   0       4.671   3.412  24.828  0.00  0.00    +0.274 C 
ATOM     25  C   UNK A   0       5.740   4.099  23.929  0.00  0.00    +0.160 C 
ATOM     26  C   UNK A   0       5.023   5.038  22.924  0.00  0.00    +0.171 C 
ATOM     27  C   UNK A   0       3.817   4.362  22.239  0.00  0.00    +0.176 C 
ATOM     28  C   UNK A   0       2.907   3.736  23.295  0.00  0.00    +0.178 C 
ATOM     29  O   UNK A   0       3.667   2.778  24.034  0.00  0.00    -0.341 OA
BRANCH  25  30
ATOM     30  N   UNK A   0       6.793   4.804  24.695  0.00  0.00    -0.305 N 
ATOM     31  H   UNK A   0       6.572   5.055  25.651  0.00  0.00    +0.149 HD
ATOM     32  C   UNK A   0       8.104   4.869  24.287  0.00  0.00    +0.210 C 
ATOM     33  O   UNK A   0       8.500   4.385  23.231  0.00  0.00    -0.276 OA
ATOM     34  C   UNK A   0       9.036   5.580  25.232  0.00  0.00    +0.109 C 
ENDBRANCH  25  30
BRANCH  26  35
ATOM     35  O   UNK A   0       5.941   5.483  21.912  0.00  0.00    -0.387 OA
ATOM     36  H   UNK A   0       5.611   5.108  21.072  0.00  0.00    +0.210 HD
ENDBRANCH  26  35
BRANCH  27  37
ATOM     37  O   UNK A   0       3.129   5.325  21.438  0.00  0.00    -0.387 OA
ATOM     38  H   UNK A   0       2.222   5.006  21.273  0.00  0.00    +0.210 HD
ENDBRANCH  27  37
BRANCH  28  39
ATOM     39  C   UNK A   0       1.697   3.009  22.710  0.00  0.00    +0.190 C 
BRANCH  39  40
ATOM     40  O   UNK A   0       2.037   2.524  21.406  0.00  0.00    -0.392 OA
ATOM     41  H   UNK A   0       2.841   3.012  21.145  0.00  0.00    +0.210 HD
ENDBRANCH  39  40
ENDBRANCH  28  39
ENDBRANCH  23  24
ENDBRANCH  11  23
ENDBRANCH   9  10
ENDBRANCH   7   9
ENDBRANCH   5   7
ENDBRANCH   1   3
BRANCH   1  44
ATOM     42  N   GLN A   2       4.909  -4.637  28.237  0.00  0.00    -0.301 N 
ATOM     43  H   GLN A   2       4.848  -3.948  28.976  0.00  0.00    +0.150 HD
ATOM     44  C   UNK A   1       3.809  -4.766  27.409  0.00  0.00    +0.234 C 
ATOM     45  O   UNK A   1       3.787  -5.494  26.421  0.00  0.00    -0.274 OA
BRANCH  42  46
ATOM     46  CA  GLN A   2       6.184  -5.358  28.111  0.00  0.00    +0.182 C 
BRANCH  46  47
ATOM     47  C   GLN A   2       6.114  -6.789  28.664  0.00  0.00    +0.325 C 
ATOM     48  OXT GLN A   2       6.875  -7.217  29.520  0.00  0.00    -0.249 OA
BRANCH  47  49
ATOM     49  O   GLN A   2       5.093  -7.531  28.175  0.00  0.00    -0.479 OA
ATOM     50  H   GLN A   2       5.362  -8.157  27.471  0.00  0.00    +0.295 HD
ENDBRANCH  47  49
ENDBRANCH  46  47
BRANCH  46  51
ATOM     51  CB  GLN A   2       6.767  -5.350  26.700  0.00  0.00    +0.043 C 
BRANCH  51  52
ATOM     52  CG  GLN A   2       8.255  -4.996  26.693  0.00  0.00    +0.098 C 
BRANCH  52  55
ATOM     53  N   GLN A   2       7.724  -3.836  24.652  0.00  0.00    -0.304 N 
ATOM     54  H   GLN A   2       6.768  -3.867  25.000  0.00  0.00    +0.149 HD
ATOM     55  CD  GLN A   2       8.699  -4.524  25.333  0.00  0.00    +0.214 C 
ATOM     56  OE1 GLN A   2       9.836  -4.699  24.913  0.00  0.00    -0.276 OA
BRANCH  53  57
ATOM     57  C   UNK A   1       7.920  -3.418  23.263  0.00  0.00    +0.159 C 
BRANCH  57  60
ATOM     58  N   GLN A   2       8.678  -1.109  22.961  0.00  0.00    -0.301 N 
ATOM     59  H   GLN A   2       9.587  -1.551  23.044  0.00  0.00    +0.150 HD
ATOM     60  C   UNK A   1       7.583  -1.915  23.180  0.00  0.00    +0.234 C 
ATOM     61  O   UNK A   1       6.448  -1.450  23.114  0.00  0.00    -0.274 OA
BRANCH  58  63
ATOM     62  CB  GLN A   2       9.411   0.837  21.598  0.00  0.00    +0.040 C 
ATOM     63  CA  GLN A   2       8.621   0.341  22.802  0.00  0.00    +0.179 C 
BRANCH  63  64
ATOM     64  C   GLN A   2       8.994   1.101  24.085  0.00  0.00    +0.325 C 
ATOM     65  OXT GLN A   2      10.139   1.154  24.516  0.00  0.00    -0.249 OA
BRANCH  64  66
ATOM     66  O   GLN A   2       7.960   1.680  24.734  0.00  0.00    -0.479 OA
ATOM     67  H   GLN A   2       7.452   2.311  24.164  0.00  0.00    +0.295 HD
ENDBRANCH  64  66
ENDBRANCH  63  64
ENDBRANCH  58  63
ENDBRANCH  57  60
BRANCH  57  68
ATOM     68  C   UNK A   1       7.091  -4.309  22.330  0.00  0.00    +0.032 C 
BRANCH  68  69
ATOM     69  C   UNK A   1       6.264  -5.365  23.062  0.00  0.00    +0.004 C 
BRANCH  69  70
ATOM     70  C   UNK A   1       4.767  -5.048  23.024  0.00  0.00    +0.030 C 
BRANCH  70  71
ATOM     71  C   UNK A   1       3.905  -6.317  22.974  0.00  0.00    +0.161 C 
BRANCH  71  72
ATOM     72  N   UNK A   1       4.394  -7.342  23.941  0.00  0.00    -0.318 NA
ATOM     73  H   UNK A   1       4.649  -8.179  23.404  0.00  0.00    +0.119 HD
ATOM     74  H   UNK A   1       5.292  -7.018  24.316  0.00  0.00    +0.119 HD
ENDBRANCH  71  72
BRANCH  71  75
ATOM     75  C   UNK A   1       2.458  -5.964  23.341  0.00  0.00    +0.322 C 
ATOM     76  O   UNK A   1       1.759  -5.156  22.752  0.00  0.00    -0.249 OA
BRANCH  75  77
ATOM     77  O   UNK A   1       2.046  -6.658  24.435  0.00  0.00    -0.480 OA
ATOM     78  H   UNK A   1       1.880  -5.988  25.143  0.00  0.00    +0.295 HD
ENDBRANCH  75  77
ENDBRANCH  71  75
ENDBRANCH  70  71
ENDBRANCH  69  70
ENDBRANCH  68  69
ENDBRANCH  57  68
ENDBRANCH  53  57
ENDBRANCH  52  55
ENDBRANCH  51  52
ENDBRANCH  46  51
ENDBRANCH  42  46
ENDBRANCH   1  44
TORSDOF 31
ENDMDL
MODEL 6
REMARK VINA RESULT:      -5.3      2.469      8.485
REMARK  Name = 
REMARK  36 active torsions:
REMARK  status: ('A' for Active; 'I' for Inactive)
REMARK    1  A    between atoms: CB_1  and  CA_2
REMARK    2  A    between atoms: CA_2  and  N_4
REMARK    3  A    between atoms: CA_2  and  C_78
REMARK    4  A    between atoms: C_5  and  CA_7
REMARK    5  A    between atoms: CA_7  and  C_9
REMARK    6  A    between atoms: CA_7  and  N_18
REMARK    7  A    between atoms: C_9  and  C_10
REMARK    8  A    between atoms: C_10  and  C_11
REMARK    9  A    between atoms: C_11  and  CA_12
REMARK   10  A    between atoms: CA_12  and  N_14
REMARK   11  A    between atoms: CA_12  and  C_15
REMARK   12  A    between atoms: C_15  and  O_16
REMARK   13  A    between atoms: CD_19  and  CG_21
REMARK   14  A    between atoms: CG_21  and  CB_22
REMARK   15  A    between atoms: CB_22  and  CA_23
REMARK   16  A    between atoms: CA_23  and  N_25
REMARK   17  A    between atoms: CA_23  and  C_75
REMARK   18  A    between atoms: C_26  and  CA_28
REMARK   19  A    between atoms: CA_28  and  CB_30
REMARK   20  A    between atoms: CA_28  and  N_31
REMARK   21  A    between atoms: C_32  and  C_34
REMARK   22  A    between atoms: C_34  and  C_36
REMARK   23  A    between atoms: C_34  and  O_37
REMARK   24  A    between atoms: O_37  and  C_38
REMARK   25  A    between atoms: C_40  and  N_42
REMARK   26  A    between atoms: C_43  and  C_44
REMARK   27  A    between atoms: C_53  and  O_55
REMARK   28  A    between atoms: O_55  and  C_56
REMARK   29  A    between atoms: C_59  and  C_61
REMARK   30  A    between atoms: C_61  and  O_62
REMARK   31  A    between atoms: C_63  and  O_65
REMARK   32  A    between atoms: C_66  and  O_68
REMARK   33  A    between atoms: C_69  and  N_71
REMARK   34  A    between atoms: C_72  and  C_73
REMARK   35  A    between atoms: C_75  and  O_76
REMARK   36  A    between atoms: C_78  and  O_79
REMARK                            x       y       z     vdW  Elec       q    Type
REMARK                         _______ _______ _______ _____ _____    ______ ____
ROOT
ATOM      1  C   UNK A   1       4.898  -1.131  26.658  0.00  0.00    +0.156 C 
ATOM      2  C   UNK A   1       5.735  -1.183  25.384  0.00  0.00    +0.038 C 
ENDROOT
BRANCH   1   3
ATOM      3  N   UNK A   1       5.330   0.005  27.460  0.00  0.00    -0.302 N 
ATOM      4  H   UNK A   1       5.994  -0.191  28.202  0.00  0.00    +0.150 HD
ATOM      5  C   UNK A   0       4.841   1.276  27.264  0.00  0.00    +0.242 C 
ATOM      6  O   UNK A   0       3.901   1.465  26.493  0.00  0.00    -0.273 OA
BRANCH   5   7
ATOM      7  C   UNK A   0       5.478   2.406  28.103  0.00  0.00    +0.201 C 
ATOM      8  C   UNK A   0       6.601   1.898  29.010  0.00  0.00    +0.048 C 
BRANCH   7   9
ATOM      9  O   UNK A   0       5.909   3.434  27.203  0.00  0.00    -0.360 OA
BRANCH   9  10
ATOM     10  C   UNK A   0       5.325   4.744  27.401  0.00  0.00    +0.176 C 
ATOM     11  C   UNK A   0       4.359   5.077  26.215  0.00  0.00    +0.183 C 
ATOM     12  C   UNK A   0       2.931   5.475  26.645  0.00  0.00    +0.178 C 
ATOM     13  O   UNK A   0       3.028   6.276  27.823  0.00  0.00    -0.341 OA
ATOM     14  C   UNK A   0       3.260   5.271  28.819  0.00  0.00    +0.273 C 
ATOM     15  O   UNK A   0       2.570   4.064  28.435  0.00  0.00    -0.347 OA
ATOM     16  C   UNK A   0       2.077   4.327  27.127  0.00  0.00    +0.197 C 
ATOM     17  C   UNK A   0       4.765   4.949  28.844  0.00  0.00    +0.160 C 
BRANCH  17  18
ATOM     18  N   UNK A   0       5.585   5.969  29.528  0.00  0.00    -0.305 N 
ATOM     19  H   UNK A   0       5.115   6.710  30.031  0.00  0.00    +0.149 HD
ATOM     20  C   UNK A   0       6.949   5.884  29.641  0.00  0.00    +0.210 C 
ATOM     21  O   UNK A   0       7.614   4.972  29.167  0.00  0.00    -0.276 OA
ATOM     22  C   UNK A   0       7.557   7.016  30.426  0.00  0.00    +0.109 C 
ENDBRANCH  17  18
BRANCH  11  23
ATOM     23  O   UNK A   0       5.009   6.181  25.499  0.00  0.00    -0.341 OA
BRANCH  23  24
ATOM     24  C   UNK A   0       6.196   5.795  24.800  0.00  0.00    +0.274 C 
ATOM     25  C   UNK A   0       6.078   6.059  23.270  0.00  0.00    +0.160 C 
ATOM     26  C   UNK A   0       7.450   5.776  22.603  0.00  0.00    +0.171 C 
ATOM     27  C   UNK A   0       8.624   6.421  23.368  0.00  0.00    +0.176 C 
ATOM     28  C   UNK A   0       8.540   6.053  24.849  0.00  0.00    +0.178 C 
ATOM     29  O   UNK A   0       7.290   6.520  25.360  0.00  0.00    -0.341 OA
BRANCH  25  30
ATOM     30  N   UNK A   0       4.978   5.307  22.622  0.00  0.00    -0.305 N 
ATOM     31  H   UNK A   0       4.449   5.796  21.911  0.00  0.00    +0.149 HD
ATOM     32  C   UNK A   0       4.838   3.944  22.724  0.00  0.00    +0.210 C 
ATOM     33  O   UNK A   0       5.587   3.243  23.396  0.00  0.00    -0.276 OA
ATOM     34  C   UNK A   0       3.691   3.358  21.944  0.00  0.00    +0.109 C 
ENDBRANCH  25  30
BRANCH  26  35
ATOM     35  O   UNK A   0       7.457   6.259  21.250  0.00  0.00    -0.387 OA
ATOM     36  H   UNK A   0       8.147   6.951  21.220  0.00  0.00    +0.210 HD
ENDBRANCH  26  35
BRANCH  27  37
ATOM     37  O   UNK A   0       9.857   6.003  22.778  0.00  0.00    -0.387 OA
ATOM     38  H   UNK A   0      10.551   6.649  23.009  0.00  0.00    +0.210 HD
ENDBRANCH  27  37
BRANCH  28  39
ATOM     39  C   UNK A   0       9.647   6.676  25.700  0.00  0.00    +0.190 C 
BRANCH  39  40
ATOM     40  O   UNK A   0       9.357   6.437  27.081  0.00  0.00    -0.392 OA
ATOM     41  H   UNK A   0       9.090   5.500  27.136  0.00  0.00    +0.210 HD
ENDBRANCH  39  40
ENDBRANCH  28  39
ENDBRANCH  23  24
ENDBRANCH  11  23
ENDBRANCH   9  10
ENDBRANCH   7   9
ENDBRANCH   5   7
ENDBRANCH   1   3
BRANCH   1  44
ATOM     42  N   GLN A   2       5.868  -3.389  26.820  0.00  0.00    -0.301 N 
ATOM     43  H   GLN A   2       6.270  -3.129  25.929  0.00  0.00    +0.150 HD
ATOM     44  C   UNK A   1       5.052  -2.457  27.435  0.00  0.00    +0.234 C 
ATOM     45  O   UNK A   1       4.428  -2.681  28.468  0.00  0.00    -0.274 OA
BRANCH  42  46
ATOM     46  CA  GLN A   2       6.158  -4.747  27.304  0.00  0.00    +0.182 C 
BRANCH  46  47
ATOM     47  C   GLN A   2       5.068  -5.759  26.923  0.00  0.00    +0.325 C 
ATOM     48  OXT GLN A   2       3.955  -5.434  26.532  0.00  0.00    -0.249 OA
BRANCH  47  49
ATOM     49  O   GLN A   2       5.456  -7.053  26.989  0.00  0.00    -0.479 OA
ATOM     50  H   GLN A   2       6.296  -7.238  26.519  0.00  0.00    +0.295 HD
ENDBRANCH  47  49
ENDBRANCH  46  47
BRANCH  46  51
ATOM     51  CB  GLN A   2       7.540  -5.265  26.913  0.00  0.00    +0.043 C 
BRANCH  51  52
ATOM     52  CG  GLN A   2       8.537  -4.129  26.679  0.00  0.00    +0.098 C 
BRANCH  52  55
ATOM     53  N   GLN A   2       8.442  -3.138  24.487  0.00  0.00    -0.304 N 
ATOM     54  H   GLN A   2       7.623  -2.655  24.851  0.00  0.00    +0.149 HD
ATOM     55  CD  GLN A   2       9.028  -4.116  25.255  0.00  0.00    +0.214 C 
ATOM     56  OE1 GLN A   2       9.901  -4.873  24.851  0.00  0.00    -0.276 OA
BRANCH  53  57
ATOM     57  C   UNK A   1       8.687  -3.055  23.047  0.00  0.00    +0.159 C 
BRANCH  57  60
ATOM     58  N   GLN A   2       8.973  -0.649  23.402  0.00  0.00    -0.301 N 
ATOM     59  H   GLN A   2       8.048  -0.747  23.808  0.00  0.00    +0.150 HD
ATOM     60  C   UNK A   1       9.494  -1.766  22.789  0.00  0.00    +0.234 C 
ATOM     61  O   UNK A   1      10.602  -1.722  22.260  0.00  0.00    -0.274 OA
BRANCH  58  63
ATOM     62  CB  GLN A   2       9.272   1.518  24.586  0.00  0.00    +0.040 C 
ATOM     63  CA  GLN A   2       9.570   0.682  23.348  0.00  0.00    +0.179 C 
BRANCH  63  64
ATOM     64  C   GLN A   2       9.237   1.438  22.052  0.00  0.00    +0.325 C 
ATOM     65  OXT GLN A   2       8.184   1.283  21.445  0.00  0.00    -0.249 OA
BRANCH  64  66
ATOM     66  O   GLN A   2      10.206   2.263  21.599  0.00  0.00    -0.479 OA
ATOM     67  H   GLN A   2      10.967   2.345  22.226  0.00  0.00    +0.295 HD
ENDBRANCH  64  66
ENDBRANCH  63  64
ENDBRANCH  58  63
ENDBRANCH  57  60
BRANCH  57  68
ATOM     68  C   UNK A   1       7.358  -3.138  22.287  0.00  0.00    +0.032 C 
BRANCH  68  69
ATOM     69  C   UNK A   1       6.855  -4.566  22.083  0.00  0.00    +0.004 C 
BRANCH  69  70
ATOM     70  C   UNK A   1       6.146  -5.107  23.328  0.00  0.00    +0.030 C 
BRANCH  70  71
ATOM     71  C   UNK A   1       4.851  -5.852  22.981  0.00  0.00    +0.161 C 
BRANCH  71  72
ATOM     72  N   UNK A   1       4.728  -7.118  23.761  0.00  0.00    -0.318 NA
ATOM     73  H   UNK A   1       4.923  -7.897  23.121  0.00  0.00    +0.119 HD
ATOM     74  H   UNK A   1       5.508  -7.154  24.425  0.00  0.00    +0.119 HD
ENDBRANCH  71  72
BRANCH  71  75
ATOM     75  C   UNK A   1       3.646  -4.963  23.318  0.00  0.00    +0.322 C 
ATOM     76  O   UNK A   1       2.502  -5.154  22.937  0.00  0.00    -0.249 OA
BRANCH  75  77
ATOM     77  O   UNK A   1       4.017  -3.907  24.089  0.00  0.00    -0.480 OA
ATOM     78  H   UNK A   1       3.182  -3.527  24.458  0.00  0.00    +0.295 HD
ENDBRANCH  75  77
ENDBRANCH  71  75
ENDBRANCH  70  71
ENDBRANCH  69  70
ENDBRANCH  68  69
ENDBRANCH  57  68
ENDBRANCH  53  57
ENDBRANCH  52  55
ENDBRANCH  51  52
ENDBRANCH  46  51
ENDBRANCH  42  46
ENDBRANCH   1  44
TORSDOF 31
ENDMDL
MODEL 7
REMARK VINA RESULT:      -5.2      2.355      6.117
REMARK  Name = 
REMARK  36 active torsions:
REMARK  status: ('A' for Active; 'I' for Inactive)
REMARK    1  A    between atoms: CB_1  and  CA_2
REMARK    2  A    between atoms: CA_2  and  N_4
REMARK    3  A    between atoms: CA_2  and  C_78
REMARK    4  A    between atoms: C_5  and  CA_7
REMARK    5  A    between atoms: CA_7  and  C_9
REMARK    6  A    between atoms: CA_7  and  N_18
REMARK    7  A    between atoms: C_9  and  C_10
REMARK    8  A    between atoms: C_10  and  C_11
REMARK    9  A    between atoms: C_11  and  CA_12
REMARK   10  A    between atoms: CA_12  and  N_14
REMARK   11  A    between atoms: CA_12  and  C_15
REMARK   12  A    between atoms: C_15  and  O_16
REMARK   13  A    between atoms: CD_19  and  CG_21
REMARK   14  A    between atoms: CG_21  and  CB_22
REMARK   15  A    between atoms: CB_22  and  CA_23
REMARK   16  A    between atoms: CA_23  and  N_25
REMARK   17  A    between atoms: CA_23  and  C_75
REMARK   18  A    between atoms: C_26  and  CA_28
REMARK   19  A    between atoms: CA_28  and  CB_30
REMARK   20  A    between atoms: CA_28  and  N_31
REMARK   21  A    between atoms: C_32  and  C_34
REMARK   22  A    between atoms: C_34  and  C_36
REMARK   23  A    between atoms: C_34  and  O_37
REMARK   24  A    between atoms: O_37  and  C_38
REMARK   25  A    between atoms: C_40  and  N_42
REMARK   26  A    between atoms: C_43  and  C_44
REMARK   27  A    between atoms: C_53  and  O_55
REMARK   28  A    between atoms: O_55  and  C_56
REMARK   29  A    between atoms: C_59  and  C_61
REMARK   30  A    between atoms: C_61  and  O_62
REMARK   31  A    between atoms: C_63  and  O_65
REMARK   32  A    between atoms: C_66  and  O_68
REMARK   33  A    between atoms: C_69  and  N_71
REMARK   34  A    between atoms: C_72  and  C_73
REMARK   35  A    between atoms: C_75  and  O_76
REMARK   36  A    between atoms: C_78  and  O_79
REMARK                            x       y       z     vdW  Elec       q    Type
REMARK                         _______ _______ _______ _____ _____    ______ ____
ROOT
ATOM      1  C   UNK A   1       5.287   1.020  25.451  0.00  0.00    +0.156 C 
ATOM      2  C   UNK A   1       4.142   2.021  25.562  0.00  0.00    +0.038 C 
ENDROOT
BRANCH   1   3
ATOM      3  N   UNK A   1       5.322   0.206  26.658  0.00  0.00    -0.302 N 
ATOM      4  H   UNK A   1       6.024   0.450  27.349  0.00  0.00    +0.150 HD
ATOM      5  C   UNK A   0       4.482  -0.867  26.849  0.00  0.00    +0.242 C 
ATOM      6  O   UNK A   0       3.769  -1.267  25.930  0.00  0.00    -0.273 OA
BRANCH   5   7
ATOM      7  C   UNK A   0       4.542  -1.563  28.227  0.00  0.00    +0.201 C 
ATOM      8  C   UNK A   0       3.153  -1.888  28.780  0.00  0.00    +0.048 C 
BRANCH   7   9
ATOM      9  O   UNK A   0       5.378  -2.720  28.100  0.00  0.00    -0.360 OA
BRANCH   9  10
ATOM     10  C   UNK A   0       5.159  -3.540  26.927  0.00  0.00    +0.176 C 
ATOM     11  C   UNK A   0       6.531  -3.863  26.245  0.00  0.00    +0.183 C 
ATOM     12  C   UNK A   0       6.795  -5.367  26.018  0.00  0.00    +0.178 C 
ATOM     13  O   UNK A   0       5.566  -5.982  25.632  0.00  0.00    -0.341 OA
ATOM     14  C   UNK A   0       4.902  -6.087  26.899  0.00  0.00    +0.273 C 
ATOM     15  O   UNK A   0       5.890  -6.294  27.928  0.00  0.00    -0.347 OA
ATOM     16  C   UNK A   0       7.141  -6.139  27.269  0.00  0.00    +0.197 C 
ATOM     17  C   UNK A   0       4.206  -4.747  27.196  0.00  0.00    +0.160 C 
BRANCH  17  18
ATOM     18  N   UNK A   0       2.956  -4.540  26.437  0.00  0.00    -0.305 N 
ATOM     19  H   UNK A   0       3.018  -4.211  25.483  0.00  0.00    +0.149 HD
ATOM     20  C   UNK A   0       1.722  -4.908  26.908  0.00  0.00    +0.210 C 
ATOM     21  O   UNK A   0       1.538  -5.418  28.006  0.00  0.00    -0.276 OA
ATOM     22  C   UNK A   0       0.605  -4.643  25.934  0.00  0.00    +0.109 C 
ENDBRANCH  17  18
BRANCH  11  23
ATOM     23  O   UNK A   0       6.491  -3.147  24.964  0.00  0.00    -0.341 OA
BRANCH  23  24
ATOM     24  C   UNK A   0       7.777  -2.730  24.497  0.00  0.00    +0.274 C 
ATOM     25  C   UNK A   0       7.812  -2.589  22.947  0.00  0.00    +0.160 C 
ATOM     26  C   UNK A   0       9.174  -1.977  22.527  0.00  0.00    +0.171 C 
ATOM     27  C   UNK A   0       9.560  -0.752  23.382  0.00  0.00    +0.176 C 
ATOM     28  C   UNK A   0       9.440  -1.098  24.866  0.00  0.00    +0.178 C 
ATOM     29  O   UNK A   0       8.092  -1.489  25.129  0.00  0.00    -0.341 OA
BRANCH  25  30
ATOM     30  N   UNK A   0       7.526  -3.853  22.230  0.00  0.00    -0.305 N 
ATOM     31  H   UNK A   0       8.213  -4.591  22.315  0.00  0.00    +0.149 HD
ATOM     32  C   UNK A   0       6.288  -4.166  21.722  0.00  0.00    +0.210 C 
ATOM     33  O   UNK A   0       5.328  -3.403  21.781  0.00  0.00    -0.276 OA
ATOM     34  C   UNK A   0       6.182  -5.524  21.080  0.00  0.00    +0.109 C 
ENDBRANCH  25  30
BRANCH  26  35
ATOM     35  O   UNK A   0       9.143  -1.587  21.145  0.00  0.00    -0.387 OA
ATOM     36  H   UNK A   0       8.217  -1.332  20.963  0.00  0.00    +0.210 HD
ENDBRANCH  26  35
BRANCH  27  37
ATOM     37  O   UNK A   0      10.881  -0.331  23.032  0.00  0.00    -0.387 OA
ATOM     38  H   UNK A   0      11.415  -0.263  23.846  0.00  0.00    +0.210 HD
ENDBRANCH  27  37
BRANCH  28  39
ATOM     39  C   UNK A   0       9.771   0.069  25.796  0.00  0.00    +0.190 C 
BRANCH  39  40
ATOM     40  O   UNK A   0       9.077  -0.118  27.035  0.00  0.00    -0.392 OA
ATOM     41  H   UNK A   0       8.358   0.541  27.036  0.00  0.00    +0.210 HD
ENDBRANCH  39  40
ENDBRANCH  28  39
ENDBRANCH  23  24
ENDBRANCH  11  23
ENDBRANCH   9  10
ENDBRANCH   7   9
ENDBRANCH   5   7
ENDBRANCH   1   3
BRANCH   1  44
ATOM     42  N   GLN A   2       6.973   1.961  23.921  0.00  0.00    -0.301 N 
ATOM     43  H   GLN A   2       6.348   1.579  23.222  0.00  0.00    +0.150 HD
ATOM     44  C   UNK A   1       6.619   1.775  25.245  0.00  0.00    +0.234 C 
ATOM     45  O   UNK A   1       7.333   2.103  26.188  0.00  0.00    -0.274 OA
BRANCH  42  46
ATOM     46  CA  GLN A   2       8.201   2.601  23.429  0.00  0.00    +0.182 C 
BRANCH  46  47
ATOM     47  C   GLN A   2       8.547   2.195  21.990  0.00  0.00    +0.325 C 
ATOM     48  OXT GLN A   2       7.707   1.874  21.161  0.00  0.00    -0.249 OA
BRANCH  47  49
ATOM     49  O   GLN A   2       9.862   2.283  21.683  0.00  0.00    -0.479 OA
ATOM     50  H   GLN A   2      10.455   1.939  22.383  0.00  0.00    +0.295 HD
ENDBRANCH  47  49
ENDBRANCH  46  47
BRANCH  46  51
ATOM     51  CB  GLN A   2       8.215   4.120  23.582  0.00  0.00    +0.043 C 
BRANCH  51  52
ATOM     52  CG  GLN A   2       9.328   4.595  24.519  0.00  0.00    +0.098 C 
BRANCH  52  55
ATOM     53  N   GLN A   2       7.477   5.090  25.978  0.00  0.00    -0.304 N 
ATOM     54  H   GLN A   2       6.945   4.503  25.338  0.00  0.00    +0.149 HD
ATOM     55  CD  GLN A   2       8.773   5.415  25.655  0.00  0.00    +0.214 C 
ATOM     56  OE1 GLN A   2       9.440   6.247  26.255  0.00  0.00    -0.276 OA
BRANCH  53  57
ATOM     57  C   UNK A   1       6.722   5.868  26.960  0.00  0.00    +0.159 C 
BRANCH  57  60
ATOM     58  N   GLN A   2       6.035   3.915  28.268  0.00  0.00    -0.301 N 
ATOM     59  H   GLN A   2       5.435   3.768  27.462  0.00  0.00    +0.150 HD
ATOM     60  C   UNK A   1       6.754   5.089  28.291  0.00  0.00    +0.234 C 
ATOM     61  O   UNK A   1       7.490   5.346  29.240  0.00  0.00    -0.274 OA
BRANCH  58  63
ATOM     62  CB  GLN A   2       7.065   1.951  29.392  0.00  0.00    +0.040 C 
ATOM     63  CA  GLN A   2       5.941   2.978  29.383  0.00  0.00    +0.179 C 
BRANCH  63  64
ATOM     64  C   GLN A   2       4.559   2.315  29.497  0.00  0.00    +0.325 C 
ATOM     65  OXT GLN A   2       3.562   2.759  28.940  0.00  0.00    -0.249 OA
BRANCH  64  66
ATOM     66  O   GLN A   2       4.506   1.223  30.290  0.00  0.00    -0.479 OA
ATOM     67  H   GLN A   2       5.401   0.872  30.525  0.00  0.00    +0.295 HD
ENDBRANCH  64  66
ENDBRANCH  63  64
ENDBRANCH  58  63
ENDBRANCH  57  60
BRANCH  57  68
ATOM     68  C   UNK A   1       5.314   6.157  26.425  0.00  0.00    +0.032 C 
BRANCH  68  69
ATOM     69  C   UNK A   1       5.229   6.180  24.900  0.00  0.00    +0.004 C 
BRANCH  69  70
ATOM     70  C   UNK A   1       4.033   5.377  24.381  0.00  0.00    +0.030 C 
BRANCH  70  71
ATOM     71  C   UNK A   1       3.975   5.345  22.848  0.00  0.00    +0.161 C 
BRANCH  71  72
ATOM     72  N   UNK A   1       5.175   5.998  22.247  0.00  0.00    -0.318 NA
ATOM     73  H   UNK A   1       5.197   5.750  21.251  0.00  0.00    +0.119 HD
ATOM     74  H   UNK A   1       5.010   7.009  22.236  0.00  0.00    +0.119 HD
ENDBRANCH  71  72
BRANCH  71  75
ATOM     75  C   UNK A   1       3.933   3.888  22.370  0.00  0.00    +0.322 C 
ATOM     76  O   UNK A   1       2.936   3.184  22.344  0.00  0.00    -0.249 OA
BRANCH  75  77
ATOM     77  O   UNK A   1       5.166   3.460  21.990  0.00  0.00    -0.480 OA
ATOM     78  H   UNK A   1       5.692   3.358  22.822  0.00  0.00    +0.295 HD
ENDBRANCH  75  77
ENDBRANCH  71  75
ENDBRANCH  70  71
ENDBRANCH  69  70
ENDBRANCH  68  69
ENDBRANCH  57  68
ENDBRANCH  53  57
ENDBRANCH  52  55
ENDBRANCH  51  52
ENDBRANCH  46  51
ENDBRANCH  42  46
ENDBRANCH   1  44
TORSDOF 31
ENDMDL
MODEL 8
REMARK VINA RESULT:      -5.2      1.675      2.464
REMARK  Name = 
REMARK  36 active torsions:
REMARK  status: ('A' for Active; 'I' for Inactive)
REMARK    1  A    between atoms: CB_1  and  CA_2
REMARK    2  A    between atoms: CA_2  and  N_4
REMARK    3  A    between atoms: CA_2  and  C_78
REMARK    4  A    between atoms: C_5  and  CA_7
REMARK    5  A    between atoms: CA_7  and  C_9
REMARK    6  A    between atoms: CA_7  and  N_18
REMARK    7  A    between atoms: C_9  and  C_10
REMARK    8  A    between atoms: C_10  and  C_11
REMARK    9  A    between atoms: C_11  and  CA_12
REMARK   10  A    between atoms: CA_12  and  N_14
REMARK   11  A    between atoms: CA_12  and  C_15
REMARK   12  A    between atoms: C_15  and  O_16
REMARK   13  A    between atoms: CD_19  and  CG_21
REMARK   14  A    between atoms: CG_21  and  CB_22
REMARK   15  A    between atoms: CB_22  and  CA_23
REMARK   16  A    between atoms: CA_23  and  N_25
REMARK   17  A    between atoms: CA_23  and  C_75
REMARK   18  A    between atoms: C_26  and  CA_28
REMARK   19  A    between atoms: CA_28  and  CB_30
REMARK   20  A    between atoms: CA_28  and  N_31
REMARK   21  A    between atoms: C_32  and  C_34
REMARK   22  A    between atoms: C_34  and  C_36
REMARK   23  A    between atoms: C_34  and  O_37
REMARK   24  A    between atoms: O_37  and  C_38
REMARK   25  A    between atoms: C_40  and  N_42
REMARK   26  A    between atoms: C_43  and  C_44
REMARK   27  A    between atoms: C_53  and  O_55
REMARK   28  A    between atoms: O_55  and  C_56
REMARK   29  A    between atoms: C_59  and  C_61
REMARK   30  A    between atoms: C_61  and  O_62
REMARK   31  A    between atoms: C_63  and  O_65
REMARK   32  A    between atoms: C_66  and  O_68
REMARK   33  A    between atoms: C_69  and  N_71
REMARK   34  A    between atoms: C_72  and  C_73
REMARK   35  A    between atoms: C_75  and  O_76
REMARK   36  A    between atoms: C_78  and  O_79
REMARK                            x       y       z     vdW  Elec       q    Type
REMARK                         _______ _______ _______ _____ _____    ______ ____
ROOT
ATOM      1  C   UNK A   1       9.043  -4.093  25.930  0.00  0.00    +0.156 C 
ATOM      2  C   UNK A   1       9.982  -5.248  25.602  0.00  0.00    +0.038 C 
ENDROOT
BRANCH   1   3
ATOM      3  N   UNK A   1       7.698  -4.617  26.124  0.00  0.00    -0.302 N 
ATOM      4  H   UNK A   1       7.497  -5.516  25.699  0.00  0.00    +0.150 HD
ATOM      5  C   UNK A   0       6.727  -3.923  26.809  0.00  0.00    +0.242 C 
ATOM      6  O   UNK A   0       6.925  -2.760  27.153  0.00  0.00    -0.273 OA
BRANCH   5   7
ATOM      7  C   UNK A   0       5.386  -4.652  27.046  0.00  0.00    +0.201 C 
ATOM      8  C   UNK A   0       5.575  -6.036  27.672  0.00  0.00    +0.048 C 
BRANCH   7   9
ATOM      9  O   UNK A   0       4.551  -3.793  27.831  0.00  0.00    -0.360 OA
BRANCH   9  10
ATOM     10  C   UNK A   0       3.908  -2.705  27.124  0.00  0.00    +0.176 C 
ATOM     11  C   UNK A   0       2.508  -3.168  26.600  0.00  0.00    +0.183 C 
ATOM     12  C   UNK A   0       1.333  -2.261  27.024  0.00  0.00    +0.178 C 
ATOM     13  O   UNK A   0       1.777  -0.905  26.975  0.00  0.00    -0.341 OA
ATOM     14  C   UNK A   0       2.539  -0.821  28.187  0.00  0.00    +0.273 C 
ATOM     15  O   UNK A   0       1.940  -1.685  29.175  0.00  0.00    -0.347 OA
ATOM     16  C   UNK A   0       0.928  -2.395  28.472  0.00  0.00    +0.197 C 
ATOM     17  C   UNK A   0       3.955  -1.356  27.910  0.00  0.00    +0.160 C 
BRANCH  17  18
ATOM     18  N   UNK A   0       4.820  -0.411  27.175  0.00  0.00    -0.305 N 
ATOM     19  H   UNK A   0       4.756  -0.381  26.166  0.00  0.00    +0.149 HD
ATOM     20  C   UNK A   0       5.600   0.530  27.796  0.00  0.00    +0.210 C 
ATOM     21  O   UNK A   0       5.671   0.660  29.011  0.00  0.00    -0.276 OA
ATOM     22  C   UNK A   0       6.352   1.413  26.835  0.00  0.00    +0.109 C 
ENDBRANCH  17  18
BRANCH  11  23
ATOM     23  O   UNK A   0       2.642  -3.189  25.138  0.00  0.00    -0.341 OA
BRANCH  23  24
ATOM     24  C   UNK A   0       2.479  -4.489  24.563  0.00  0.00    +0.274 C 
ATOM     25  C   UNK A   0       3.836  -5.081  24.081  0.00  0.00    +0.160 C 
ATOM     26  C   UNK A   0       3.611  -6.547  23.625  0.00  0.00    +0.171 C 
ATOM     27  C   UNK A   0       2.777  -7.360  24.637  0.00  0.00    +0.176 C 
ATOM     28  C   UNK A   0       1.502  -6.593  24.990  0.00  0.00    +0.178 C 
ATOM     29  O   UNK A   0       1.875  -5.331  25.545  0.00  0.00    -0.341 OA
BRANCH  25  30
ATOM     30  N   UNK A   0       4.499  -4.269  23.034  0.00  0.00    -0.305 N 
ATOM     31  H   UNK A   0       3.949  -3.530  22.614  0.00  0.00    +0.149 HD
ATOM     32  C   UNK A   0       5.857  -4.277  22.824  0.00  0.00    +0.210 C 
ATOM     33  O   UNK A   0       6.628  -4.991  23.458  0.00  0.00    -0.276 OA
ATOM     34  C   UNK A   0       6.346  -3.338  21.753  0.00  0.00    +0.109 C 
ENDBRANCH  25  30
BRANCH  26  35
ATOM     35  O   UNK A   0       4.871  -7.208  23.427  0.00  0.00    -0.387 OA
ATOM     36  H   UNK A   0       4.651  -8.132  23.192  0.00  0.00    +0.210 HD
ENDBRANCH  26  35
BRANCH  27  37
ATOM     37  O   UNK A   0       2.495  -8.649  24.088  0.00  0.00    -0.387 OA
ATOM     38  H   UNK A   0       2.673  -9.326  24.767  0.00  0.00    +0.210 HD
ENDBRANCH  27  37
BRANCH  28  39
ATOM     39  C   UNK A   0       0.623  -7.305  26.017  0.00  0.00    +0.190 C 
BRANCH  39  40
ATOM     40  O   UNK A   0       1.421  -8.260  26.726  0.00  0.00    -0.392 OA
ATOM     41  H   UNK A   0       2.323  -8.169  26.363  0.00  0.00    +0.210 HD
ENDBRANCH  39  40
ENDBRANCH  28  39
ENDBRANCH  23  24
ENDBRANCH  11  23
ENDBRANCH   9  10
ENDBRANCH   7   9
ENDBRANCH   5   7
ENDBRANCH   1   3
BRANCH   1  44
ATOM     42  N   GLN A   2       8.651  -1.790  25.150  0.00  0.00    -0.301 N 
ATOM     43  H   GLN A   2       8.342  -1.667  26.107  0.00  0.00    +0.150 HD
ATOM     44  C   UNK A   1       9.081  -3.053  24.788  0.00  0.00    +0.234 C 
ATOM     45  O   UNK A   1       9.390  -3.359  23.640  0.00  0.00    -0.274 OA
BRANCH  42  46
ATOM     46  CA  GLN A   2       8.536  -0.621  24.266  0.00  0.00    +0.182 C 
BRANCH  46  47
ATOM     47  C   GLN A   2       7.108  -0.409  23.744  0.00  0.00    +0.325 C 
ATOM     48  OXT GLN A   2       6.113  -0.837  24.313  0.00  0.00    -0.249 OA
BRANCH  47  49
ATOM     49  O   GLN A   2       7.025   0.354  22.630  0.00  0.00    -0.479 OA
ATOM     50  H   GLN A   2       7.855   0.385  22.110  0.00  0.00    +0.295 HD
ENDBRANCH  47  49
ENDBRANCH  46  47
BRANCH  46  51
ATOM     51  CB  GLN A   2       9.093   0.669  24.863  0.00  0.00    +0.043 C 
BRANCH  51  52
ATOM     52  CG  GLN A   2      10.032   1.393  23.896  0.00  0.00    +0.098 C 
BRANCH  52  55
ATOM     53  N   GLN A   2       8.565   3.232  24.412  0.00  0.00    -0.304 N 
ATOM     54  H   GLN A   2       7.859   2.507  24.523  0.00  0.00    +0.149 HD
ATOM     55  CD  GLN A   2       9.801   2.882  23.922  0.00  0.00    +0.214 C 
ATOM     56  OE1 GLN A   2      10.659   3.688  23.587  0.00  0.00    -0.276 OA
BRANCH  53  57
ATOM     57  C   UNK A   1       8.105   4.620  24.387  0.00  0.00    +0.159 C 
BRANCH  57  60
ATOM     58  N   GLN A   2       7.677   5.408  26.666  0.00  0.00    -0.301 N 
ATOM     59  H   GLN A   2       8.686   5.515  26.662  0.00  0.00    +0.150 HD
ATOM     60  C   UNK A   1       7.121   4.802  25.561  0.00  0.00    +0.234 C 
ATOM     61  O   UNK A   1       5.908   4.622  25.498  0.00  0.00    -0.274 OA
BRANCH  58  63
ATOM     62  CB  GLN A   2       7.678   6.739  28.766  0.00  0.00    +0.040 C 
ATOM     63  CA  GLN A   2       6.949   5.730  27.889  0.00  0.00    +0.179 C 
BRANCH  63  64
ATOM     64  C   GLN A   2       6.523   4.485  28.682  0.00  0.00    +0.325 C 
ATOM     65  OXT GLN A   2       5.352   4.157  28.826  0.00  0.00    -0.249 OA
BRANCH  64  66
ATOM     66  O   GLN A   2       7.533   3.788  29.249  0.00  0.00    -0.479 OA
ATOM     67  H   GLN A   2       8.411   3.972  28.830  0.00  0.00    +0.295 HD
ENDBRANCH  64  66
ENDBRANCH  63  64
ENDBRANCH  58  63
ENDBRANCH  57  60
BRANCH  57  68
ATOM     68  C   UNK A   1       7.519   4.950  23.009  0.00  0.00    +0.032 C 
BRANCH  68  69
ATOM     69  C   UNK A   1       6.682   3.821  22.410  0.00  0.00    +0.004 C 
BRANCH  69  70
ATOM     70  C   UNK A   1       5.196   4.185  22.340  0.00  0.00    +0.030 C 
BRANCH  70  71
ATOM     71  C   UNK A   1       4.288   2.982  22.630  0.00  0.00    +0.161 C 
BRANCH  71  72
ATOM     72  N   UNK A   1       4.820   2.161  23.756  0.00  0.00    -0.318 NA
ATOM     73  H   UNK A   1       4.089   2.112  24.475  0.00  0.00    +0.119 HD
ATOM     74  H   UNK A   1       4.898   1.193  23.430  0.00  0.00    +0.119 HD
ENDBRANCH  71  72
BRANCH  71  75
ATOM     75  C   UNK A   1       2.890   3.481  23.018  0.00  0.00    +0.322 C 
ATOM     76  O   UNK A   1       2.654   4.519  23.615  0.00  0.00    -0.249 OA
BRANCH  75  77
ATOM     77  O   UNK A   1       1.930   2.601  22.627  0.00  0.00    -0.480 OA
ATOM     78  H   UNK A   1       1.254   2.591  23.348  0.00  0.00    +0.295 HD
ENDBRANCH  75  77
ENDBRANCH  71  75
ENDBRANCH  70  71
ENDBRANCH  69  70
ENDBRANCH  68  69
ENDBRANCH  57  68
ENDBRANCH  53  57
ENDBRANCH  52  55
ENDBRANCH  51  52
ENDBRANCH  46  51
ENDBRANCH  42  46
ENDBRANCH   1  44
TORSDOF 31
ENDMDL
MODEL 9
REMARK VINA RESULT:      -5.2      2.848      6.926
REMARK  Name = 
REMARK  36 active torsions:
REMARK  status: ('A' for Active; 'I' for Inactive)
REMARK    1  A    between atoms: CB_1  and  CA_2
REMARK    2  A    between atoms: CA_2  and  N_4
REMARK    3  A    between atoms: CA_2  and  C_78
REMARK    4  A    between atoms: C_5  and  CA_7
REMARK    5  A    between atoms: CA_7  and  C_9
REMARK    6  A    between atoms: CA_7  and  N_18
REMARK    7  A    between atoms: C_9  and  C_10
REMARK    8  A    between atoms: C_10  and  C_11
REMARK    9  A    between atoms: C_11  and  CA_12
REMARK   10  A    between atoms: CA_12  and  N_14
REMARK   11  A    between atoms: CA_12  and  C_15
REMARK   12  A    between atoms: C_15  and  O_16
REMARK   13  A    between atoms: CD_19  and  CG_21
REMARK   14  A    between atoms: CG_21  and  CB_22
REMARK   15  A    between atoms: CB_22  and  CA_23
REMARK   16  A    between atoms: CA_23  and  N_25
REMARK   17  A    between atoms: CA_23  and  C_75
REMARK   18  A    between atoms: C_26  and  CA_28
REMARK   19  A    between atoms: CA_28  and  CB_30
REMARK   20  A    between atoms: CA_28  and  N_31
REMARK   21  A    between atoms: C_32  and  C_34
REMARK   22  A    between atoms: C_34  and  C_36
REMARK   23  A    between atoms: C_34  and  O_37
REMARK   24  A    between atoms: O_37  and  C_38
REMARK   25  A    between atoms: C_40  and  N_42
REMARK   26  A    between atoms: C_43  and  C_44
REMARK   27  A    between atoms: C_53  and  O_55
REMARK   28  A    between atoms: O_55  and  C_56
REMARK   29  A    between atoms: C_59  and  C_61
REMARK   30  A    between atoms: C_61  and  O_62
REMARK   31  A    between atoms: C_63  and  O_65
REMARK   32  A    between atoms: C_66  and  O_68
REMARK   33  A    between atoms: C_69  and  N_71
REMARK   34  A    between atoms: C_72  and  C_73
REMARK   35  A    between atoms: C_75  and  O_76
REMARK   36  A    between atoms: C_78  and  O_79
REMARK                            x       y       z     vdW  Elec       q    Type
REMARK                         _______ _______ _______ _____ _____    ______ ____
ROOT
ATOM      1  C   UNK A   1       5.394   0.962  26.343  0.00  0.00    +0.156 C 
ATOM      2  C   UNK A   1       4.518   1.624  25.286  0.00  0.00    +0.038 C 
ENDROOT
BRANCH   1   3
ATOM      3  N   UNK A   1       4.604  -0.032  27.056  0.00  0.00    -0.302 N 
ATOM      4  H   UNK A   1       4.431   0.148  28.040  0.00  0.00    +0.150 HD
ATOM      5  C   UNK A   0       4.145  -1.181  26.454  0.00  0.00    +0.242 C 
ATOM      6  O   UNK A   0       4.519  -1.478  25.321  0.00  0.00    -0.273 OA
BRANCH   5   7
ATOM      7  C   UNK A   0       3.215  -2.085  27.294  0.00  0.00    +0.201 C 
ATOM      8  C   UNK A   0       2.052  -2.648  26.474  0.00  0.00    +0.048 C 
BRANCH   7   9
ATOM      9  O   UNK A   0       4.020  -3.105  27.897  0.00  0.00    -0.360 OA
BRANCH   9  10
ATOM     10  C   UNK A   0       4.283  -4.275  27.086  0.00  0.00    +0.176 C 
ATOM     11  C   UNK A   0       5.825  -4.433  26.871  0.00  0.00    +0.183 C 
ATOM     12  C   UNK A   0       6.388  -5.815  27.269  0.00  0.00    +0.178 C 
ATOM     13  O   UNK A   0       5.439  -6.810  26.886  0.00  0.00    -0.341 OA
ATOM     14  C   UNK A   0       4.470  -6.683  27.935  0.00  0.00    +0.273 C 
ATOM     15  O   UNK A   0       5.145  -6.303  29.151  0.00  0.00    -0.347 OA
ATOM     16  C   UNK A   0       6.487  -6.047  28.757  0.00  0.00    +0.197 C 
ATOM     17  C   UNK A   0       3.505  -5.539  27.571  0.00  0.00    +0.160 C 
BRANCH  17  18
ATOM     18  N   UNK A   0       2.506  -5.902  26.545  0.00  0.00    -0.305 N 
ATOM     19  H   UNK A   0       2.744  -5.772  25.571  0.00  0.00    +0.149 HD
ATOM     20  C   UNK A   0       1.329  -6.541  26.837  0.00  0.00    +0.210 C 
ATOM     21  O   UNK A   0       0.987  -6.849  27.971  0.00  0.00    -0.276 OA
ATOM     22  C   UNK A   0       0.498  -6.852  25.621  0.00  0.00    +0.109 C 
ENDBRANCH  17  18
BRANCH  11  23
ATOM     23  O   UNK A   0       6.033  -4.184  25.439  0.00  0.00    -0.341 OA
BRANCH  23  24
ATOM     24  C   UNK A   0       7.296  -3.585  25.136  0.00  0.00    +0.274 C 
ATOM     25  C   UNK A   0       7.405  -3.197  23.632  0.00  0.00    +0.160 C 
ATOM     26  C   UNK A   0       8.722  -2.407  23.411  0.00  0.00    +0.171 C 
ATOM     27  C   UNK A   0       8.935  -1.304  24.469  0.00  0.00    +0.176 C 
ATOM     28  C   UNK A   0       8.765  -1.891  25.870  0.00  0.00    +0.178 C 
ATOM     29  O   UNK A   0       7.449  -2.438  25.972  0.00  0.00    -0.341 OA
BRANCH  25  30
ATOM     30  N   UNK A   0       7.287  -4.351  22.712  0.00  0.00    -0.305 N 
ATOM     31  H   UNK A   0       7.950  -5.105  22.839  0.00  0.00    +0.149 HD
ATOM     32  C   UNK A   0       6.185  -4.572  21.921  0.00  0.00    +0.210 C 
ATOM     33  O   UNK A   0       5.226  -3.808  21.880  0.00  0.00    -0.276 OA
ATOM     34  C   UNK A   0       6.230  -5.832  21.098  0.00  0.00    +0.109 C 
ENDBRANCH  25  30
BRANCH  26  35
ATOM     35  O   UNK A   0       8.732  -1.806  22.106  0.00  0.00    -0.387 OA
ATOM     36  H   UNK A   0       9.655  -1.874  21.790  0.00  0.00    +0.210 HD
ENDBRANCH  26  35
BRANCH  27  37
ATOM     37  O   UNK A   0      10.226  -0.718  24.284  0.00  0.00    -0.387 OA
ATOM     38  H   UNK A   0      10.897  -1.425  24.292  0.00  0.00    +0.210 HD
ENDBRANCH  27  37
BRANCH  28  39
ATOM     39  C   UNK A   0       8.925  -0.864  26.989  0.00  0.00    +0.190 C 
BRANCH  39  40
ATOM     40  O   UNK A   0       8.828   0.450  26.427  0.00  0.00    -0.392 OA
ATOM     41  H   UNK A   0       7.875   0.607  26.289  0.00  0.00    +0.210 HD
ENDBRANCH  39  40
ENDBRANCH  28  39
ENDBRANCH  23  24
ENDBRANCH  11  23
ENDBRANCH   9  10
ENDBRANCH   7   9
ENDBRANCH   5   7
ENDBRANCH   1   3
BRANCH   1  44
ATOM     42  N   GLN A   2       5.719   3.339  26.902  0.00  0.00    -0.301 N 
ATOM     43  H   GLN A   2       5.235   3.467  26.023  0.00  0.00    +0.150 HD
ATOM     44  C   UNK A   1       5.947   2.036  27.306  0.00  0.00    +0.234 C 
ATOM     45  O   UNK A   1       6.603   1.741  28.301  0.00  0.00    -0.274 OA
BRANCH  42  46
ATOM     46  CA  GLN A   2       6.169   4.556  27.593  0.00  0.00    +0.182 C 
BRANCH  46  47
ATOM     47  C   GLN A   2       7.545   5.039  27.112  0.00  0.00    +0.325 C 
ATOM     48  OXT GLN A   2       8.123   6.005  27.588  0.00  0.00    -0.249 OA
BRANCH  47  49
ATOM     49  O   GLN A   2       8.107   4.265  26.155  0.00  0.00    -0.479 OA
ATOM     50  H   GLN A   2       8.722   3.588  26.506  0.00  0.00    +0.295 HD
ENDBRANCH  47  49
ENDBRANCH  46  47
BRANCH  46  51
ATOM     51  CB  GLN A   2       5.154   5.697  27.567  0.00  0.00    +0.043 C 
BRANCH  51  52
ATOM     52  CG  GLN A   2       3.999   5.420  26.603  0.00  0.00    +0.098 C 
BRANCH  52  55
ATOM     53  N   GLN A   2       3.921   4.885  24.257  0.00  0.00    -0.304 N 
ATOM     54  H   GLN A   2       3.578   3.981  24.577  0.00  0.00    +0.149 HD
ATOM     55  CD  GLN A   2       4.365   5.792  25.190  0.00  0.00    +0.214 C 
ATOM     56  OE1 GLN A   2       4.954   6.828  24.912  0.00  0.00    -0.276 OA
BRANCH  53  57
ATOM     57  C   UNK A   1       4.296   5.000  22.848  0.00  0.00    +0.159 C 
BRANCH  57  60
ATOM     58  N   GLN A   2       2.864   4.115  21.069  0.00  0.00    -0.301 N 
ATOM     59  H   GLN A   2       3.687   3.551  20.887  0.00  0.00    +0.150 HD
ATOM     60  C   UNK A   1       2.993   5.095  22.028  0.00  0.00    +0.234 C 
ATOM     61  O   UNK A   1       2.045   5.830  22.294  0.00  0.00    -0.274 OA
BRANCH  58  63
ATOM     62  CB  GLN A   2       1.233   2.517  20.084  0.00  0.00    +0.040 C 
ATOM     63  CA  GLN A   2       1.707   3.960  20.192  0.00  0.00    +0.179 C 
BRANCH  63  64
ATOM     64  C   GLN A   2       1.910   4.602  18.811  0.00  0.00    +0.325 C 
ATOM     65  OXT GLN A   2       2.087   5.804  18.657  0.00  0.00    -0.249 OA
BRANCH  64  66
ATOM     66  O   GLN A   2       1.841   3.751  17.763  0.00  0.00    -0.479 OA
ATOM     67  H   GLN A   2       1.034   3.179  17.784  0.00  0.00    +0.295 HD
ENDBRANCH  64  66
ENDBRANCH  63  64
ENDBRANCH  58  63
ENDBRANCH  57  60
BRANCH  57  68
ATOM     68  C   UNK A   1       5.212   3.835  22.455  0.00  0.00    +0.032 C 
BRANCH  68  69
ATOM     69  C   UNK A   1       6.631   3.954  23.008  0.00  0.00    +0.004 C 
BRANCH  69  70
ATOM     70  C   UNK A   1       7.296   2.586  23.179  0.00  0.00    +0.030 C 
BRANCH  70  71
ATOM     71  C   UNK A   1       8.818   2.652  22.993  0.00  0.00    +0.161 C 
BRANCH  71  72
ATOM     72  N   UNK A   1       9.533   2.332  24.262  0.00  0.00    -0.318 NA
ATOM     73  H   UNK A   1       9.711   1.321  24.272  0.00  0.00    +0.119 HD
ATOM     74  H   UNK A   1      10.473   2.738  24.205  0.00  0.00    +0.119 HD
ENDBRANCH  71  72
BRANCH  71  75
ATOM     75  C   UNK A   1       9.247   1.631  21.931  0.00  0.00    +0.322 C 
ATOM     76  O   UNK A   1      10.228   0.910  22.003  0.00  0.00    -0.249 OA
BRANCH  75  77
ATOM     77  O   UNK A   1       8.396   1.641  20.870  0.00  0.00    -0.480 OA
ATOM     78  H   UNK A   1       7.508   1.887  21.229  0.00  0.00    +0.295 HD
ENDBRANCH  75  77
ENDBRANCH  71  75
ENDBRANCH  70  71
ENDBRANCH  69  70
ENDBRANCH  68  69
ENDBRANCH  57  68
ENDBRANCH  53  57
ENDBRANCH  52  55
ENDBRANCH  51  52
ENDBRANCH  46  51
ENDBRANCH  42  46
ENDBRANCH   1  44
TORSDOF 31
ENDMDL
