MODEL 1
REMARK VINA RESULT:      -7.3      0.000      0.000
REMARK  Name = 
REMARK  12 active torsions:
REMARK  status: ('A' for Active; 'I' for Inactive)
REMARK    1  A    between atoms: C_1  and  O_2
REMARK    2  A    between atoms: O_2  and  C_3
REMARK    3  A    between atoms: C_8  and  C_10
REMARK    4  A    between atoms: C_10  and  C_11
REMARK    5  A    between atoms: C_10  and  O_12
REMARK    6  A    between atoms: C_10  and  C_13
REMARK    7  A    between atoms: C_13  and  C_14
REMARK    8  A    between atoms: C_13  and  C_15
REMARK    9  A    between atoms: C_13  and  C_16
REMARK   10  A    between atoms: N_29  and  C_30
REMARK   11  A    between atoms: C_30  and  C_31
REMARK   12  A    between atoms: C_34  and  O_35
REMARK                            x       y       z     vdW  Elec       q    Type
REMARK                         _______ _______ _______ _____ _____    ______ ____
ROOT
ATOM      1  C   UNL     1       5.293  -3.420  22.408  0.00  0.00    +0.112 C 
ATOM      2  C   UNL     1       5.952  -1.930  23.458  0.00  0.00    +0.217 C 
ATOM      3  C   UNL     1       7.165  -2.279  24.400  0.00  0.00    +0.047 C 
ATOM      4  C   UNL     1       7.468  -2.116  26.023  0.00  0.00    +0.031 C 
ATOM      5  C   UNL     1       8.225  -3.292  26.889  0.00  0.00    +0.086 C 
ATOM      6  N   UNL     1       8.592  -4.623  26.228  0.00  0.00    -0.298 NA
ATOM      7  C   UNL     1       8.487  -4.339  24.712  0.00  0.00    +0.068 C 
ATOM      8  C   UNL     1       9.771  -3.336  24.440  0.00  0.00    +0.055 C 
ATOM      9  C   UNL     1       9.555  -1.848  24.016  0.00  0.00    -0.038 A 
ATOM     10  C   UNL     1      10.474  -0.895  23.629  0.00  0.00    +0.008 A 
ATOM     11  C   UNL     1      10.027   0.231  22.875  0.00  0.00    +0.049 A 
ATOM     12  C   UNL     1       8.671   0.391  22.509  0.00  0.00    +0.159 A 
ATOM     13  C   UNL     1       7.753  -0.502  23.018  0.00  0.00    +0.166 A 
ATOM     14  C   UNL     1       8.229  -1.470  23.841  0.00  0.00    +0.012 A 
ATOM     15  C   UNL     1       7.325  -3.661  23.880  0.00  0.00    +0.000 C 
ATOM     16  C   UNL     1       5.742  -4.082  24.550  0.00  0.00    +0.018 C 
ATOM     17  C   UNL     1       7.644  -3.456  22.186  0.00  0.00    +0.012 C 
ATOM     18  O   UNL     1       6.426  -0.708  22.694  0.00  0.00    -0.481 OA
ATOM     19  C   UNL     1       4.542  -4.071  23.605  0.00  0.00    +0.057 C 
ATOM     20  C   UNL     1       6.356  -3.252  21.379  0.00  0.00    +0.040 C 
ENDROOT
BRANCH   1  22
ATOM     21  C   UNL     1       6.114  -5.924  21.256  0.00  0.00    +0.194 C 
ATOM     22  O   UNL     1       5.629  -4.999  22.259  0.00  0.00    -0.373 OA
ENDBRANCH   1  22
BRANCH  12  23
ATOM     23  O   UNL     1       8.335   1.366  21.628  0.00  0.00    -0.503 OA
ATOM     24  H   UNL     1       7.358   1.392  21.609  0.00  0.00    +0.292 HD
ENDBRANCH  12  23
BRANCH  19  25
ATOM     25  C   UNL     1       3.802  -5.568  23.918  0.00  0.00    +0.074 C 
ATOM     26  C   UNL     1       4.978  -6.502  24.380  0.00  0.00    +0.042 C 
BRANCH  25  27
ATOM     27  C   UNL     1       2.516  -5.787  24.833  0.00  0.00    -0.009 C 
ATOM     28  C   UNL     1       1.249  -6.019  23.978  0.00  0.00    +0.013 C 
ATOM     29  C   UNL     1       2.214  -4.664  25.830  0.00  0.00    +0.013 C 
ATOM     30  C   UNL     1       2.679  -7.108  25.676  0.00  0.00    +0.013 C 
ENDBRANCH  25  27
BRANCH  25  31
ATOM     31  O   UNL     1       3.363  -6.156  22.660  0.00  0.00    -0.388 OA
ATOM     32  H   UNL     1       3.919  -6.931  22.438  0.00  0.00    +0.210 HD
ENDBRANCH  25  31
ENDBRANCH  19  25
BRANCH   6  33
ATOM     33  C   UNL     1       7.628  -5.675  26.799  0.00  0.00    +0.088 C 
BRANCH  33  34
ATOM     34  C   UNL     1       6.654  -5.410  27.920  0.00  0.00    +0.003 C 
ATOM     35  C   UNL     1       5.533  -6.449  28.068  0.00  0.00    +0.005 C 
ATOM     36  C   UNL     1       5.225  -5.009  27.947  0.00  0.00    +0.005 C 
ENDBRANCH  33  34
ENDBRANCH   6  33
TORSDOF 7
ENDMDL
MODEL 2
REMARK VINA RESULT:      -7.0      2.280      4.184
REMARK  Name = 
REMARK  12 active torsions:
REMARK  status: ('A' for Active; 'I' for Inactive)
REMARK    1  A    between atoms: C_1  and  O_2
REMARK    2  A    between atoms: O_2  and  C_3
REMARK    3  A    between atoms: C_8  and  C_10
REMARK    4  A    between atoms: C_10  and  C_11
REMARK    5  A    between atoms: C_10  and  O_12
REMARK    6  A    between atoms: C_10  and  C_13
REMARK    7  A    between atoms: C_13  and  C_14
REMARK    8  A    between atoms: C_13  and  C_15
REMARK    9  A    between atoms: C_13  and  C_16
REMARK   10  A    between atoms: N_29  and  C_30
REMARK   11  A    between atoms: C_30  and  C_31
REMARK   12  A    between atoms: C_34  and  O_35
REMARK                            x       y       z     vdW  Elec       q    Type
REMARK                         _______ _______ _______ _____ _____    ______ ____
ROOT
ATOM      1  C   UNL     1       6.133  -2.908  27.075  0.00  0.00    +0.112 C 
ATOM      2  C   UNL     1       7.716  -3.282  26.020  0.00  0.00    +0.217 C 
ATOM      3  C   UNL     1       7.436  -3.559  24.495  0.00  0.00    +0.047 C 
ATOM      4  C   UNL     1       7.803  -4.789  23.446  0.00  0.00    +0.031 C 
ATOM      5  C   UNL     1       6.717  -5.340  22.338  0.00  0.00    +0.086 C 
ATOM      6  N   UNL     1       5.292  -4.782  22.310  0.00  0.00    -0.298 NA
ATOM      7  C   UNL     1       5.373  -3.484  23.146  0.00  0.00    +0.068 C 
ATOM      8  C   UNL     1       6.262  -2.483  22.178  0.00  0.00    +0.055 C 
ATOM      9  C   UNL     1       7.688  -2.008  22.603  0.00  0.00    -0.038 A 
ATOM     10  C   UNL     1       8.531  -1.093  22.009  0.00  0.00    +0.008 A 
ATOM     11  C   UNL     1       9.565  -0.497  22.791  0.00  0.00    +0.049 A 
ATOM     12  C   UNL     1       9.744  -0.814  24.157  0.00  0.00    +0.159 A 
ATOM     13  C   UNL     1       8.976  -1.825  24.692  0.00  0.00    +0.166 A 
ATOM     14  C   UNL     1       8.106  -2.444  23.855  0.00  0.00    +0.012 A 
ATOM     15  C   UNL     1       5.990  -3.230  24.580  0.00  0.00    +0.000 C 
ATOM     16  C   UNL     1       5.745  -4.635  25.627  0.00  0.00    +0.018 C 
ATOM     17  C   UNL     1       5.946  -1.584  25.128  0.00  0.00    +0.012 C 
ATOM     18  O   UNL     1       8.797  -2.218  26.004  0.00  0.00    -0.481 OA
ATOM     19  C   UNL     1       5.690  -4.399  27.135  0.00  0.00    +0.057 C 
ATOM     20  C   UNL     1       6.105  -1.482  26.650  0.00  0.00    +0.040 C 
ENDROOT
BRANCH   1  22
ATOM     21  C   UNL     1       3.439  -1.909  26.974  0.00  0.00    +0.194 C 
ATOM     22  O   UNL     1       4.533  -2.844  26.820  0.00  0.00    -0.373 OA
ENDBRANCH   1  22
BRANCH  12  23
ATOM     23  O   UNL     1      10.606  -0.076  24.899  0.00  0.00    -0.503 OA
ATOM     24  H   UNL     1      11.482  -0.496  24.798  0.00  0.00    +0.292 HD
ENDBRANCH  12  23
BRANCH  19  25
ATOM     25  C   UNL     1       4.289  -5.242  27.598  0.00  0.00    +0.074 C 
ATOM     26  C   UNL     1       4.622  -6.750  27.312  0.00  0.00    +0.042 C 
BRANCH  25  27
ATOM     27  C   UNL     1       3.539  -5.086  28.995  0.00  0.00    -0.009 C 
ATOM     28  C   UNL     1       2.053  -4.708  28.798  0.00  0.00    +0.013 C 
ATOM     29  C   UNL     1       4.158  -4.077  29.969  0.00  0.00    +0.013 C 
ATOM     30  C   UNL     1       3.506  -6.473  29.741  0.00  0.00    +0.013 C 
ENDBRANCH  25  27
BRANCH  25  31
ATOM     31  O   UNL     1       3.216  -4.937  26.661  0.00  0.00    -0.388 OA
ATOM     32  H   UNL     1       2.488  -5.584  26.762  0.00  0.00    +0.210 HD
ENDBRANCH  25  31
ENDBRANCH  19  25
BRANCH   6  33
ATOM     33  C   UNL     1       4.378  -5.893  22.852  0.00  0.00    +0.088 C 
BRANCH  33  34
ATOM     34  C   UNL     1       2.962  -5.670  23.322  0.00  0.00    +0.003 C 
ATOM     35  C   UNL     1       2.279  -6.899  23.938  0.00  0.00    +0.005 C 
ATOM     36  C   UNL     1       1.645  -6.149  22.834  0.00  0.00    +0.005 C 
ENDBRANCH  33  34
ENDBRANCH   6  33
TORSDOF 7
ENDMDL
MODEL 3
REMARK VINA RESULT:      -6.9      2.838      7.241
REMARK  Name = 
REMARK  12 active torsions:
REMARK  status: ('A' for Active; 'I' for Inactive)
REMARK    1  A    between atoms: C_1  and  O_2
REMARK    2  A    between atoms: O_2  and  C_3
REMARK    3  A    between atoms: C_8  and  C_10
REMARK    4  A    between atoms: C_10  and  C_11
REMARK    5  A    between atoms: C_10  and  O_12
REMARK    6  A    between atoms: C_10  and  C_13
REMARK    7  A    between atoms: C_13  and  C_14
REMARK    8  A    between atoms: C_13  and  C_15
REMARK    9  A    between atoms: C_13  and  C_16
REMARK   10  A    between atoms: N_29  and  C_30
REMARK   11  A    between atoms: C_30  and  C_31
REMARK   12  A    between atoms: C_34  and  O_35
REMARK                            x       y       z     vdW  Elec       q    Type
REMARK                         _______ _______ _______ _____ _____    ______ ____
ROOT
ATOM      1  C   UNL     1       5.382   0.220  25.982  0.00  0.00    +0.112 C 
ATOM      2  C   UNL     1       5.219  -1.301  24.792  0.00  0.00    +0.217 C 
ATOM      3  C   UNL     1       6.578  -2.028  24.468  0.00  0.00    +0.047 C 
ATOM      4  C   UNL     1       7.380  -2.436  23.076  0.00  0.00    +0.031 C 
ATOM      5  C   UNL     1       9.012  -2.273  22.932  0.00  0.00    +0.086 C 
ATOM      6  N   UNL     1       9.828  -1.647  24.066  0.00  0.00    -0.298 NA
ATOM      7  C   UNL     1       8.880  -1.686  25.287  0.00  0.00    +0.068 C 
ATOM      8  C   UNL     1       8.799  -3.299  25.633  0.00  0.00    +0.055 C 
ATOM      9  C   UNL     1       7.466  -4.094  25.462  0.00  0.00    -0.038 A 
ATOM     10  C   UNL     1       7.160  -5.395  25.806  0.00  0.00    +0.008 A 
ATOM     11  C   UNL     1       5.790  -5.762  25.968  0.00  0.00    +0.049 A 
ATOM     12  C   UNL     1       4.742  -4.830  25.793  0.00  0.00    +0.159 A 
ATOM     13  C   UNL     1       5.064  -3.575  25.323  0.00  0.00    +0.166 A 
ATOM     14  C   UNL     1       6.373  -3.336  25.059  0.00  0.00    +0.012 A 
ATOM     15  C   UNL     1       7.375  -1.218  25.425  0.00  0.00    +0.000 C 
ATOM     16  C   UNL     1       7.071   0.220  24.441  0.00  0.00    +0.018 C 
ATOM     17  C   UNL     1       6.641  -1.518  26.969  0.00  0.00    +0.012 C 
ATOM     18  O   UNL     1       4.303  -2.426  25.237  0.00  0.00    -0.481 OA
ATOM     19  C   UNL     1       5.948   1.159  24.879  0.00  0.00    +0.057 C 
ATOM     20  C   UNL     1       5.401  -0.645  27.194  0.00  0.00    +0.040 C 
ENDROOT
BRANCH   1  22
ATOM     21  C   UNL     1       6.998   1.350  28.075  0.00  0.00    +0.194 C 
ATOM     22  O   UNL     1       6.584   1.009  26.731  0.00  0.00    -0.373 OA
ENDBRANCH   1  22
BRANCH  12  23
ATOM     23  O   UNL     1       3.481  -5.177  26.153  0.00  0.00    -0.503 OA
ATOM     24  H   UNL     1       2.950  -5.163  25.333  0.00  0.00    +0.292 HD
ENDBRANCH  12  23
BRANCH  19  25
ATOM     25  C   UNL     1       6.695   2.685  24.834  0.00  0.00    +0.074 C 
ATOM     26  C   UNL     1       8.204   2.398  25.163  0.00  0.00    +0.042 C 
BRANCH  25  27
ATOM     27  C   UNL     1       6.568   3.739  23.646  0.00  0.00    -0.009 C 
ATOM     28  C   UNL     1       5.575   4.869  23.998  0.00  0.00    +0.013 C 
ATOM     29  C   UNL     1       6.161   3.158  22.287  0.00  0.00    +0.013 C 
ATOM     30  C   UNL     1       7.948   4.468  23.430  0.00  0.00    +0.013 C 
ENDBRANCH  25  27
BRANCH  25  31
ATOM     31  O   UNL     1       6.235   3.475  25.968  0.00  0.00    -0.388 OA
ATOM     32  H   UNL     1       5.463   4.019  25.708  0.00  0.00    +0.210 HD
ENDBRANCH  25  31
ENDBRANCH  19  25
BRANCH   6  33
ATOM     33  C   UNL     1      10.261  -0.256  23.576  0.00  0.00    +0.088 C 
BRANCH  33  34
ATOM     34  C   UNL     1      10.072   0.240  22.164  0.00  0.00    +0.003 C 
ATOM     35  C   UNL     1      10.066   1.767  22.006  0.00  0.00    +0.005 C 
ATOM     36  C   UNL     1       8.960   0.942  21.477  0.00  0.00    +0.005 C 
ENDBRANCH  33  34
ENDBRANCH   6  33
TORSDOF 7
ENDMDL
MODEL 4
REMARK VINA RESULT:      -6.9      2.575      3.652
REMARK  Name = 
REMARK  12 active torsions:
REMARK  status: ('A' for Active; 'I' for Inactive)
REMARK    1  A    between atoms: C_1  and  O_2
REMARK    2  A    between atoms: O_2  and  C_3
REMARK    3  A    between atoms: C_8  and  C_10
REMARK    4  A    between atoms: C_10  and  C_11
REMARK    5  A    between atoms: C_10  and  O_12
REMARK    6  A    between atoms: C_10  and  C_13
REMARK    7  A    between atoms: C_13  and  C_14
REMARK    8  A    between atoms: C_13  and  C_15
REMARK    9  A    between atoms: C_13  and  C_16
REMARK   10  A    between atoms: N_29  and  C_30
REMARK   11  A    between atoms: C_30  and  C_31
REMARK   12  A    between atoms: C_34  and  O_35
REMARK                            x       y       z     vdW  Elec       q    Type
REMARK                         _______ _______ _______ _____ _____    ______ ____
ROOT
ATOM      1  C   UNL     1       6.338  -4.230  24.318  0.00  0.00    +0.112 C 
ATOM      2  C   UNL     1       6.629  -2.525  23.442  0.00  0.00    +0.217 C 
ATOM      3  C   UNL     1       6.800  -1.306  24.424  0.00  0.00    +0.047 C 
ATOM      4  C   UNL     1       6.059   0.168  24.595  0.00  0.00    +0.031 C 
ATOM      5  C   UNL     1       5.689   0.789  26.073  0.00  0.00    +0.086 C 
ATOM      6  N   UNL     1       5.942  -0.031  27.341  0.00  0.00    -0.298 NA
ATOM      7  C   UNL     1       6.899  -1.156  26.884  0.00  0.00    +0.068 C 
ATOM      8  C   UNL     1       8.306  -0.340  26.593  0.00  0.00    +0.055 C 
ATOM      9  C   UNL     1       8.887  -0.225  25.148  0.00  0.00    -0.038 A 
ATOM     10  C   UNL     1      10.088   0.297  24.715  0.00  0.00    +0.008 A 
ATOM     11  C   UNL     1      10.593  -0.098  23.440  0.00  0.00    +0.049 A 
ATOM     12  C   UNL     1       9.901  -1.013  22.615  0.00  0.00    +0.159 A 
ATOM     13  C   UNL     1       8.644  -1.418  23.009  0.00  0.00    +0.166 A 
ATOM     14  C   UNL     1       8.166  -0.897  24.167  0.00  0.00    +0.012 A 
ATOM     15  C   UNL     1       6.800  -2.142  25.651  0.00  0.00    +0.000 C 
ATOM     16  C   UNL     1       5.117  -2.585  25.334  0.00  0.00    +0.018 C 
ATOM     17  C   UNL     1       8.148  -3.217  25.448  0.00  0.00    +0.012 C 
ATOM     18  O   UNL     1       7.830  -2.422  22.522  0.00  0.00    -0.481 OA
ATOM     19  C   UNL     1       4.849  -3.926  24.653  0.00  0.00    +0.057 C 
ATOM     20  C   UNL     1       7.792  -4.424  24.572  0.00  0.00    +0.040 C 
ENDROOT
BRANCH   1  22
ATOM     21  C   UNL     1       6.882  -5.585  26.795  0.00  0.00    +0.194 C 
ATOM     22  O   UNL     1       6.171  -4.761  25.841  0.00  0.00    -0.373 OA
ENDBRANCH   1  22
BRANCH  12  23
ATOM     23  O   UNL     1      10.517  -1.506  21.511  0.00  0.00    -0.503 OA
ATOM     24  H   UNL     1      11.331  -1.946  21.827  0.00  0.00    +0.292 HD
ENDBRANCH  12  23
BRANCH  19  25
ATOM     25  C   UNL     1       3.650  -4.617  25.639  0.00  0.00    +0.074 C 
ATOM     26  C   UNL     1       2.347  -3.805  25.305  0.00  0.00    +0.042 C 
BRANCH  25  27
ATOM     27  C   UNL     1       3.332  -6.174  25.748  0.00  0.00    -0.009 C 
ATOM     28  C   UNL     1       3.560  -6.698  27.184  0.00  0.00    +0.013 C 
ATOM     29  C   UNL     1       4.111  -7.078  24.785  0.00  0.00    +0.013 C 
ATOM     30  C   UNL     1       1.802  -6.427  25.465  0.00  0.00    +0.013 C 
ENDBRANCH  25  27
BRANCH  25  31
ATOM     31  O   UNL     1       3.924  -4.282  27.030  0.00  0.00    -0.388 OA
ATOM     32  H   UNL     1       4.105  -5.097  27.542  0.00  0.00    +0.210 HD
ENDBRANCH  25  31
ENDBRANCH  19  25
BRANCH   6  33
ATOM     33  C   UNL     1       4.562  -0.471  27.859  0.00  0.00    +0.088 C 
BRANCH  33  34
ATOM     34  C   UNL     1       3.260  -0.159  27.165  0.00  0.00    +0.003 C 
ATOM     35  C   UNL     1       2.242   0.619  28.010  0.00  0.00    +0.005 C 
ATOM     36  C   UNL     1       1.871  -0.650  27.348  0.00  0.00    +0.005 C 
ENDBRANCH  33  34
ENDBRANCH   6  33
TORSDOF 7
ENDMDL
MODEL 5
REMARK VINA RESULT:      -6.8      3.046      7.210
REMARK  Name = 
REMARK  12 active torsions:
REMARK  status: ('A' for Active; 'I' for Inactive)
REMARK    1  A    between atoms: C_1  and  O_2
REMARK    2  A    between atoms: O_2  and  C_3
REMARK    3  A    between atoms: C_8  and  C_10
REMARK    4  A    between atoms: C_10  and  C_11
REMARK    5  A    between atoms: C_10  and  O_12
REMARK    6  A    between atoms: C_10  and  C_13
REMARK    7  A    between atoms: C_13  and  C_14
REMARK    8  A    between atoms: C_13  and  C_15
REMARK    9  A    between atoms: C_13  and  C_16
REMARK   10  A    between atoms: N_29  and  C_30
REMARK   11  A    between atoms: C_30  and  C_31
REMARK   12  A    between atoms: C_34  and  O_35
REMARK                            x       y       z     vdW  Elec       q    Type
REMARK                         _______ _______ _______ _____ _____    ______ ____
ROOT
ATOM      1  C   UNL     1       5.339   0.122  26.019  0.00  0.00    +0.112 C 
ATOM      2  C   UNL     1       5.183  -1.381  24.805  0.00  0.00    +0.217 C 
ATOM      3  C   UNL     1       6.545  -2.098  24.471  0.00  0.00    +0.047 C 
ATOM      4  C   UNL     1       7.351  -2.482  23.074  0.00  0.00    +0.031 C 
ATOM      5  C   UNL     1       8.983  -2.311  22.936  0.00  0.00    +0.086 C 
ATOM      6  N   UNL     1       9.794  -1.700  24.081  0.00  0.00    -0.298 NA
ATOM      7  C   UNL     1       8.844  -1.762  25.299  0.00  0.00    +0.068 C 
ATOM      8  C   UNL     1       8.769  -3.380  25.620  0.00  0.00    +0.055 C 
ATOM      9  C   UNL     1       7.438  -4.177  25.435  0.00  0.00    -0.038 A 
ATOM     10  C   UNL     1       7.136  -5.484  25.757  0.00  0.00    +0.008 A 
ATOM     11  C   UNL     1       5.767  -5.858  25.911  0.00  0.00    +0.049 A 
ATOM     12  C   UNL     1       4.717  -4.927  25.749  0.00  0.00    +0.159 A 
ATOM     13  C   UNL     1       5.035  -3.664  25.299  0.00  0.00    +0.166 A 
ATOM     14  C   UNL     1       6.344  -3.416  25.041  0.00  0.00    +0.012 A 
ATOM     15  C   UNL     1       7.338  -1.301  25.442  0.00  0.00    +0.000 C 
ATOM     16  C   UNL     1       7.030   0.152  24.480  0.00  0.00    +0.018 C 
ATOM     17  C   UNL     1       6.603  -1.627  26.980  0.00  0.00    +0.012 C 
ATOM     18  O   UNL     1       4.270  -2.516  25.230  0.00  0.00    -0.481 OA
ATOM     19  C   UNL     1       5.904   1.080  24.931  0.00  0.00    +0.057 C 
ATOM     20  C   UNL     1       5.359  -0.763  27.217  0.00  0.00    +0.040 C 
ENDROOT
BRANCH   1  22
ATOM     21  C   UNL     1       6.980   1.174  28.133  0.00  0.00    +0.194 C 
ATOM     22  O   UNL     1       6.537   0.903  26.781  0.00  0.00    -0.373 OA
ENDBRANCH   1  22
BRANCH  12  23
ATOM     23  O   UNL     1       3.456  -5.284  26.101  0.00  0.00    -0.503 OA
ATOM     24  H   UNL     1       3.076  -4.516  26.570  0.00  0.00    +0.292 HD
ENDBRANCH  12  23
BRANCH  19  25
ATOM     25  C   UNL     1       6.645   2.609  24.912  0.00  0.00    +0.074 C 
ATOM     26  C   UNL     1       6.770   2.969  23.388  0.00  0.00    +0.042 C 
BRANCH  25  27
ATOM     27  C   UNL     1       6.167   3.875  25.753  0.00  0.00    -0.009 C 
ATOM     28  C   UNL     1       7.260   4.342  26.740  0.00  0.00    +0.013 C 
ATOM     29  C   UNL     1       4.865   3.693  26.540  0.00  0.00    +0.013 C 
ATOM     30  C   UNL     1       5.944   5.102  24.789  0.00  0.00    +0.013 C 
ENDBRANCH  25  27
BRANCH  25  31
ATOM     31  O   UNL     1       8.026   2.476  25.354  0.00  0.00    -0.388 OA
ATOM     32  H   UNL     1       8.087   1.814  26.073  0.00  0.00    +0.210 HD
ENDBRANCH  25  31
ENDBRANCH  19  25
BRANCH   6  33
ATOM     33  C   UNL     1      10.224  -0.300  23.614  0.00  0.00    +0.088 C 
BRANCH  33  34
ATOM     34  C   UNL     1      10.093   0.195  22.195  0.00  0.00    +0.003 C 
ATOM     35  C   UNL     1      10.051   1.722  22.039  0.00  0.00    +0.005 C 
ATOM     36  C   UNL     1       8.998   0.867  21.452  0.00  0.00    +0.005 C 
ENDBRANCH  33  34
ENDBRANCH   6  33
TORSDOF 7
ENDMDL
MODEL 6
REMARK VINA RESULT:      -6.8      2.237      3.670
REMARK  Name = 
REMARK  12 active torsions:
REMARK  status: ('A' for Active; 'I' for Inactive)
REMARK    1  A    between atoms: C_1  and  O_2
REMARK    2  A    between atoms: O_2  and  C_3
REMARK    3  A    between atoms: C_8  and  C_10
REMARK    4  A    between atoms: C_10  and  C_11
REMARK    5  A    between atoms: C_10  and  O_12
REMARK    6  A    between atoms: C_10  and  C_13
REMARK    7  A    between atoms: C_13  and  C_14
REMARK    8  A    between atoms: C_13  and  C_15
REMARK    9  A    between atoms: C_13  and  C_16
REMARK   10  A    between atoms: N_29  and  C_30
REMARK   11  A    between atoms: C_30  and  C_31
REMARK   12  A    between atoms: C_34  and  O_35
REMARK                            x       y       z     vdW  Elec       q    Type
REMARK                         _______ _______ _______ _____ _____    ______ ____
ROOT
ATOM      1  C   UNL     1       8.454  -2.742  23.083  0.00  0.00    +0.112 C 
ATOM      2  C   UNL     1       7.748  -0.991  22.647  0.00  0.00    +0.217 C 
ATOM      3  C   UNL     1       7.241  -0.161  23.887  0.00  0.00    +0.047 C 
ATOM      4  C   UNL     1       5.818   0.590  24.286  0.00  0.00    +0.031 C 
ATOM      5  C   UNL     1       5.196   0.522  25.808  0.00  0.00    +0.086 C 
ATOM      6  N   UNL     1       5.881  -0.324  26.885  0.00  0.00    -0.298 NA
ATOM      7  C   UNL     1       7.289  -0.606  26.313  0.00  0.00    +0.068 C 
ATOM      8  C   UNL     1       8.013   0.877  26.383  0.00  0.00    +0.055 C 
ATOM      9  C   UNL     1       8.409   1.643  25.081  0.00  0.00    -0.038 A 
ATOM     10  C   UNL     1       9.119   2.815  24.924  0.00  0.00    +0.008 A 
ATOM     11  C   UNL     1       9.735   3.087  23.665  0.00  0.00    +0.049 A 
ATOM     12  C   UNL     1       9.642   2.186  22.580  0.00  0.00    +0.159 A 
ATOM     13  C   UNL     1       8.819   1.089  22.719  0.00  0.00    +0.166 A 
ATOM     14  C   UNL     1       8.156   0.963  23.896  0.00  0.00    +0.012 A 
ATOM     15  C   UNL     1       7.723  -1.145  24.890  0.00  0.00    +0.000 C 
ATOM     16  C   UNL     1       6.552  -2.322  24.279  0.00  0.00    +0.018 C 
ATOM     17  C   UNL     1       9.435  -1.242  24.622  0.00  0.00    +0.012 C 
ATOM     18  O   UNL     1       8.679  -0.034  21.927  0.00  0.00    -0.481 OA
ATOM     19  C   UNL     1       7.048  -3.376  23.292  0.00  0.00    +0.057 C 
ATOM     20  C   UNL     1       9.782  -2.185  23.464  0.00  0.00    +0.040 C 
ENDROOT
BRANCH   1  22
ATOM     21  C   UNL     1       9.680  -4.344  25.132  0.00  0.00    +0.194 C 
ATOM     22  O   UNL     1       8.634  -3.643  24.419  0.00  0.00    -0.373 OA
ENDBRANCH   1  22
BRANCH  12  23
ATOM     23  O   UNL     1      10.406   2.395  21.480  0.00  0.00    -0.503 OA
ATOM     24  H   UNL     1      10.052   1.805  20.785  0.00  0.00    +0.292 HD
ENDBRANCH  12  23
BRANCH  19  25
ATOM     25  C   UNL     1       6.443  -4.822  23.947  0.00  0.00    +0.074 C 
ATOM     26  C   UNL     1       6.406  -4.569  25.497  0.00  0.00    +0.042 C 
BRANCH  25  27
ATOM     27  C   UNL     1       5.119  -5.568  23.466  0.00  0.00    -0.009 C 
ATOM     28  C   UNL     1       5.331  -6.270  22.106  0.00  0.00    +0.013 C 
ATOM     29  C   UNL     1       3.867  -4.690  23.356  0.00  0.00    +0.013 C 
ATOM     30  C   UNL     1       4.768  -6.732  24.469  0.00  0.00    +0.013 C 
ENDBRANCH  25  27
BRANCH  25  31
ATOM     31  O   UNL     1       7.438  -5.873  23.788  0.00  0.00    -0.388 OA
ATOM     32  H   UNL     1       7.837  -6.092  24.655  0.00  0.00    +0.210 HD
ENDBRANCH  25  31
ENDBRANCH  19  25
BRANCH   6  33
ATOM     33  C   UNL     1       4.977  -1.546  27.120  0.00  0.00    +0.088 C 
BRANCH  33  34
ATOM     34  C   UNL     1       3.665  -1.777  26.412  0.00  0.00    +0.003 C 
ATOM     35  C   UNL     1       2.435  -1.846  27.327  0.00  0.00    +0.005 C 
ATOM     36  C   UNL     1       2.729  -2.927  26.363  0.00  0.00    +0.005 C 
ENDBRANCH  33  34
ENDBRANCH   6  33
TORSDOF 7
ENDMDL
MODEL 7
REMARK VINA RESULT:      -6.7      4.037      6.530
REMARK  Name = 
REMARK  12 active torsions:
REMARK  status: ('A' for Active; 'I' for Inactive)
REMARK    1  A    between atoms: C_1  and  O_2
REMARK    2  A    between atoms: O_2  and  C_3
REMARK    3  A    between atoms: C_8  and  C_10
REMARK    4  A    between atoms: C_10  and  C_11
REMARK    5  A    between atoms: C_10  and  O_12
REMARK    6  A    between atoms: C_10  and  C_13
REMARK    7  A    between atoms: C_13  and  C_14
REMARK    8  A    between atoms: C_13  and  C_15
REMARK    9  A    between atoms: C_13  and  C_16
REMARK   10  A    between atoms: N_29  and  C_30
REMARK   11  A    between atoms: C_30  and  C_31
REMARK   12  A    between atoms: C_34  and  O_35
REMARK                            x       y       z     vdW  Elec       q    Type
REMARK                         _______ _______ _______ _____ _____    ______ ____
ROOT
ATOM      1  C   UNL     1       8.061   1.234  22.639  0.00  0.00    +0.112 C 
ATOM      2  C   UNL     1       6.639   2.550  22.715  0.00  0.00    +0.217 C 
ATOM      3  C   UNL     1       6.375   3.146  24.149  0.00  0.00    +0.047 C 
ATOM      4  C   UNL     1       5.044   3.283  25.128  0.00  0.00    +0.031 C 
ATOM      5  C   UNL     1       5.126   3.017  26.751  0.00  0.00    +0.086 C 
ATOM      6  N   UNL     1       6.433   2.542  27.389  0.00  0.00    -0.298 NA
ATOM      7  C   UNL     1       7.509   2.825  26.316  0.00  0.00    +0.068 C 
ATOM      8  C   UNL     1       7.590   4.475  26.309  0.00  0.00    +0.055 C 
ATOM      9  C   UNL     1       7.139   5.298  25.060  0.00  0.00    -0.038 A 
ATOM     10  C   UNL     1       7.238   6.650  24.808  0.00  0.00    +0.008 A 
ATOM     11  C   UNL     1       7.174   7.108  23.458  0.00  0.00    +0.049 A 
ATOM     12  C   UNL     1       7.020   6.213  22.375  0.00  0.00    +0.159 A 
ATOM     13  C   UNL     1       6.791   4.885  22.660  0.00  0.00    +0.166 A 
ATOM     14  C   UNL     1       6.727   4.540  23.970  0.00  0.00    +0.012 A 
ATOM     15  C   UNL     1       7.534   2.462  24.777  0.00  0.00    +0.000 C 
ATOM     16  C   UNL     1       6.754   0.901  24.485  0.00  0.00    +0.018 C 
ATOM     17  C   UNL     1       8.913   3.042  23.897  0.00  0.00    +0.012 C 
ATOM     18  O   UNL     1       6.791   3.777  21.835  0.00  0.00    -0.481 OA
ATOM     19  C   UNL     1       7.192   0.102  23.259  0.00  0.00    +0.057 C 
ATOM     20  C   UNL     1       9.118   2.282  22.582  0.00  0.00    +0.040 C 
ENDROOT
BRANCH   1  22
ATOM     21  C   UNL     1      10.479   0.444  23.979  0.00  0.00    +0.194 C 
ATOM     22  O   UNL     1       9.062   0.516  23.693  0.00  0.00    -0.373 OA
ENDBRANCH   1  22
BRANCH  12  23
ATOM     23  O   UNL     1       7.166   6.677  21.108  0.00  0.00    -0.503 OA
ATOM     24  H   UNL     1       8.127   6.768  20.960  0.00  0.00    +0.292 HD
ENDBRANCH  12  23
BRANCH  19  25
ATOM     25  C   UNL     1       7.474  -1.447  23.899  0.00  0.00    +0.074 C 
ATOM     26  C   UNL     1       6.041  -2.029  24.172  0.00  0.00    +0.042 C 
BRANCH  25  27
ATOM     27  C   UNL     1       8.418  -2.554  23.249  0.00  0.00    -0.009 C 
ATOM     28  C   UNL     1       9.544  -2.975  24.219  0.00  0.00    +0.013 C 
ATOM     29  C   UNL     1       9.064  -2.171  21.912  0.00  0.00    +0.013 C 
ATOM     30  C   UNL     1       7.594  -3.873  22.991  0.00  0.00    +0.013 C 
ENDBRANCH  25  27
BRANCH  25  31
ATOM     31  O   UNL     1       8.057  -1.316  25.227  0.00  0.00    -0.388 OA
ATOM     32  H   UNL     1       7.842  -0.439  25.604  0.00  0.00    +0.210 HD
ENDBRANCH  25  31
ENDBRANCH  19  25
BRANCH   6  33
ATOM     33  C   UNL     1       6.219   1.070  27.778  0.00  0.00    +0.088 C 
BRANCH  33  34
ATOM     34  C   UNL     1       4.874   0.388  27.802  0.00  0.00    +0.003 C 
ATOM     35  C   UNL     1       4.922  -1.146  27.821  0.00  0.00    +0.005 C 
ATOM     36  C   UNL     1       4.130  -0.421  26.805  0.00  0.00    +0.005 C 
ENDBRANCH  33  34
ENDBRANCH   6  33
TORSDOF 7
ENDMDL
MODEL 8
REMARK VINA RESULT:      -6.7      4.111      8.155
REMARK  Name = 
REMARK  12 active torsions:
REMARK  status: ('A' for Active; 'I' for Inactive)
REMARK    1  A    between atoms: C_1  and  O_2
REMARK    2  A    between atoms: O_2  and  C_3
REMARK    3  A    between atoms: C_8  and  C_10
REMARK    4  A    between atoms: C_10  and  C_11
REMARK    5  A    between atoms: C_10  and  O_12
REMARK    6  A    between atoms: C_10  and  C_13
REMARK    7  A    between atoms: C_13  and  C_14
REMARK    8  A    between atoms: C_13  and  C_15
REMARK    9  A    between atoms: C_13  and  C_16
REMARK   10  A    between atoms: N_29  and  C_30
REMARK   11  A    between atoms: C_30  and  C_31
REMARK   12  A    between atoms: C_34  and  O_35
REMARK                            x       y       z     vdW  Elec       q    Type
REMARK                         _______ _______ _______ _____ _____    ______ ____
ROOT
ATOM      1  C   UNL     1       5.848   1.443  25.337  0.00  0.00    +0.112 C 
ATOM      2  C   UNL     1       6.288   0.269  23.858  0.00  0.00    +0.217 C 
ATOM      3  C   UNL     1       7.821   0.214  23.500  0.00  0.00    +0.047 C 
ATOM      4  C   UNL     1       8.707   0.456  22.120  0.00  0.00    +0.031 C 
ATOM      5  C   UNL     1      10.140   1.265  22.136  0.00  0.00    +0.086 C 
ATOM      6  N   UNL     1      10.652   1.901  23.431  0.00  0.00    -0.298 NA
ATOM      7  C   UNL     1       9.808   1.238  24.543  0.00  0.00    +0.068 C 
ATOM      8  C   UNL     1      10.374  -0.314  24.554  0.00  0.00    +0.055 C 
ATOM      9  C   UNL     1       9.461  -1.507  24.127  0.00  0.00    -0.038 A 
ATOM     10  C   UNL     1       9.697  -2.865  24.180  0.00  0.00    +0.008 A 
ATOM     11  C   UNL     1       8.585  -3.761  24.161  0.00  0.00    +0.049 A 
ATOM     12  C   UNL     1       7.253  -3.293  24.096  0.00  0.00    +0.159 A 
ATOM     13  C   UNL     1       7.049  -1.943  23.911  0.00  0.00    +0.166 A 
ATOM     14  C   UNL     1       8.155  -1.164  23.801  0.00  0.00    +0.012 A 
ATOM     15  C   UNL     1       8.242   1.045  24.657  0.00  0.00    +0.000 C 
ATOM     16  C   UNL     1       7.385   2.427  23.960  0.00  0.00    +0.018 C 
ATOM     17  C   UNL     1       7.700   0.162  26.050  0.00  0.00    +0.012 C 
ATOM     18  O   UNL     1       5.895  -1.189  23.999  0.00  0.00    -0.481 OA
ATOM     19  C   UNL     1       5.987   2.740  24.489  0.00  0.00    +0.057 C 
ATOM     20  C   UNL     1       6.218   0.416  26.350  0.00  0.00    +0.040 C 
ENDROOT
BRANCH   1  22
ATOM     21  C   UNL     1       6.899   2.640  27.730  0.00  0.00    +0.194 C 
ATOM     22  O   UNL     1       6.647   2.457  26.317  0.00  0.00    -0.373 OA
ENDBRANCH   1  22
BRANCH  12  23
ATOM     23  O   UNL     1       6.235  -4.170  24.282  0.00  0.00    -0.503 OA
ATOM     24  H   UNL     1       5.642  -4.066  23.513  0.00  0.00    +0.292 HD
ENDBRANCH  12  23
BRANCH  19  25
ATOM     25  C   UNL     1       6.070   4.407  24.807  0.00  0.00    +0.074 C 
ATOM     26  C   UNL     1       6.147   5.078  23.389  0.00  0.00    +0.042 C 
BRANCH  25  27
ATOM     27  C   UNL     1       5.077   5.214  25.758  0.00  0.00    -0.009 C 
ATOM     28  C   UNL     1       5.837   5.895  26.918  0.00  0.00    +0.013 C 
ATOM     29  C   UNL     1       3.927   4.398  26.359  0.00  0.00    +0.013 C 
ATOM     30  C   UNL     1       4.418   6.401  24.957  0.00  0.00    +0.013 C 
ENDBRANCH  25  27
BRANCH  25  31
ATOM     31  O   UNL     1       7.359   4.716  25.411  0.00  0.00    -0.388 OA
ATOM     32  H   UNL     1       8.074   4.605  24.751  0.00  0.00    +0.210 HD
ENDBRANCH  25  31
ENDBRANCH  19  25
BRANCH   6  33
ATOM     33  C   UNL     1      10.496   3.421  23.263  0.00  0.00    +0.088 C 
BRANCH  33  34
ATOM     34  C   UNL     1      11.544   4.429  23.664  0.00  0.00    +0.003 C 
ATOM     35  C   UNL     1      11.074   5.891  23.669  0.00  0.00    +0.005 C 
ATOM     36  C   UNL     1      12.278   5.480  22.917  0.00  0.00    +0.005 C 
ENDBRANCH  33  34
ENDBRANCH   6  33
TORSDOF 7
ENDMDL
MODEL 9
REMARK VINA RESULT:      -6.6      3.738      6.090
REMARK  Name = 
REMARK  12 active torsions:
REMARK  status: ('A' for Active; 'I' for Inactive)
REMARK    1  A    between atoms: C_1  and  O_2
REMARK    2  A    between atoms: O_2  and  C_3
REMARK    3  A    between atoms: C_8  and  C_10
REMARK    4  A    between atoms: C_10  and  C_11
REMARK    5  A    between atoms: C_10  and  O_12
REMARK    6  A    between atoms: C_10  and  C_13
REMARK    7  A    between atoms: C_13  and  C_14
REMARK    8  A    between atoms: C_13  and  C_15
REMARK    9  A    between atoms: C_13  and  C_16
REMARK   10  A    between atoms: N_29  and  C_30
REMARK   11  A    between atoms: C_30  and  C_31
REMARK   12  A    between atoms: C_34  and  O_35
REMARK                            x       y       z     vdW  Elec       q    Type
REMARK                         _______ _______ _______ _____ _____    ______ ____
ROOT
ATOM      1  C   UNL     1       8.603   0.941  22.758  0.00  0.00    +0.112 C 
ATOM      2  C   UNL     1       7.085   2.143  22.664  0.00  0.00    +0.217 C 
ATOM      3  C   UNL     1       6.599   2.695  24.056  0.00  0.00    +0.047 C 
ATOM      4  C   UNL     1       5.150   2.715  24.863  0.00  0.00    +0.031 C 
ATOM      5  C   UNL     1       5.051   2.431  26.481  0.00  0.00    +0.086 C 
ATOM      6  N   UNL     1       6.302   2.048  27.275  0.00  0.00    -0.298 NA
ATOM      7  C   UNL     1       7.477   2.428  26.346  0.00  0.00    +0.068 C 
ATOM      8  C   UNL     1       7.430   4.079  26.358  0.00  0.00    +0.055 C 
ATOM      9  C   UNL     1       7.075   4.885  25.068  0.00  0.00    -0.038 A 
ATOM     10  C   UNL     1       7.099   6.245  24.838  0.00  0.00    +0.008 A 
ATOM     11  C   UNL     1       7.168   6.716  23.493  0.00  0.00    +0.049 A 
ATOM     12  C   UNL     1       7.218   5.829  22.394  0.00  0.00    +0.159 A 
ATOM     13  C   UNL     1       7.060   4.483  22.641  0.00  0.00    +0.166 A 
ATOM     14  C   UNL     1       6.862   4.114  23.931  0.00  0.00    +0.012 A 
ATOM     15  C   UNL     1       7.721   2.092  24.820  0.00  0.00    +0.000 C 
ATOM     16  C   UNL     1       7.107   0.480  24.425  0.00  0.00    +0.018 C 
ATOM     17  C   UNL     1       9.150   2.790  24.123  0.00  0.00    +0.012 C 
ATOM     18  O   UNL     1       7.249   3.391  21.816  0.00  0.00    -0.481 OA
ATOM     19  C   UNL     1       7.755  -0.264  23.258  0.00  0.00    +0.057 C 
ATOM     20  C   UNL     1       9.574   2.067  22.839  0.00  0.00    +0.040 C 
ENDROOT
BRANCH   1  22
ATOM     21  C   UNL     1      10.874   0.365  24.424  0.00  0.00    +0.194 C 
ATOM     22  O   UNL     1       9.518   0.286  23.925  0.00  0.00    -0.373 OA
ENDBRANCH   1  22
BRANCH  12  23
ATOM     23  O   UNL     1       7.484   6.322  21.158  0.00  0.00    -0.503 OA
ATOM     24  H   UNL     1       8.204   5.771  20.793  0.00  0.00    +0.292 HD
ENDBRANCH  12  23
BRANCH  19  25
ATOM     25  C   UNL     1       8.075  -1.796  23.919  0.00  0.00    +0.074 C 
ATOM     26  C   UNL     1       8.375  -1.518  25.436  0.00  0.00    +0.042 C 
BRANCH  25  27
ATOM     27  C   UNL     1       7.149  -3.082  23.755  0.00  0.00    -0.009 C 
ATOM     28  C   UNL     1       7.671  -4.013  22.637  0.00  0.00    +0.013 C 
ATOM     29  C   UNL     1       5.667  -2.801  23.483  0.00  0.00    +0.013 C 
ATOM     30  C   UNL     1       7.210  -3.955  25.066  0.00  0.00    +0.013 C 
ENDBRANCH  25  27
BRANCH  25  31
ATOM     31  O   UNL     1       9.343  -2.286  23.397  0.00  0.00    -0.388 OA
ATOM     32  H   UNL     1       9.495  -3.207  23.693  0.00  0.00    +0.210 HD
ENDBRANCH  25  31
ENDBRANCH  19  25
BRANCH   6  33
ATOM     33  C   UNL     1       6.157   0.557  27.626  0.00  0.00    +0.088 C 
BRANCH  33  34
ATOM     34  C   UNL     1       4.890  -0.238  27.430  0.00  0.00    +0.003 C 
ATOM     35  C   UNL     1       5.065  -1.763  27.476  0.00  0.00    +0.005 C 
ATOM     36  C   UNL     1       4.399  -1.107  26.331  0.00  0.00    +0.005 C 
ENDBRANCH  33  34
ENDBRANCH   6  33
TORSDOF 7
ENDMDL
