MODEL 1
REMARK VINA RESULT:      -6.3      0.000      0.000
REMARK  Name = 
REMARK  9 active torsions:
REMARK  status: ('A' for Active; 'I' for Inactive)
REMARK    1  A    between atoms: C_1  and  C_2
REMARK    2  A    between atoms: C_2  and  C_3
REMARK    3  A    between atoms: C_3  and  C_5
REMARK    4  A    between atoms: N_16  and  C_17
REMARK    5  A    between atoms: C_17  and  C_18
REMARK    6  A    between atoms: C_18  and  C_19
REMARK    7  A    between atoms: C_18  and  N_20
REMARK    8  A    between atoms: N_20  and  C_21
REMARK    9  A    between atoms: N_20  and  C_22
REMARK                            x       y       z     vdW  Elec       q    Type
REMARK                         _______ _______ _______ _____ _____    ______ ____
ROOT
ATOM      1  C   UNL     1       7.422  -4.589  25.535  0.00  0.00    +0.019 A 
ATOM      2  C   UNL     1       7.493  -5.042  24.224  0.00  0.00    +0.012 A 
ATOM      3  C   UNL     1       7.927  -4.172  23.234  0.00  0.00    +0.017 A 
ATOM      4  C   UNL     1       8.266  -2.837  23.529  0.00  0.00    +0.034 A 
ATOM      5  S   UNL     1       8.645  -1.859  22.103  0.00  0.00    -0.086 S 
ATOM      6  C   UNL     1       9.229  -0.356  22.830  0.00  0.00    +0.034 A 
ATOM      7  C   UNL     1       9.254  -0.112  24.220  0.00  0.00    +0.048 A 
ATOM      8  N   UNL     1       8.608  -0.981  25.150  0.00  0.00    -0.297 N 
ATOM      9  C   UNL     1       9.943   1.051  24.610  0.00  0.00    +0.024 A 
ATOM     10  C   UNL     1      10.356   2.029  23.693  0.00  0.00    +0.002 A 
ATOM     11  C   UNL     1      10.205   1.815  22.334  0.00  0.00    +0.001 A 
ATOM     12  C   UNL     1       9.691   0.602  21.904  0.00  0.00    +0.017 A 
ATOM     13  C   UNL     1       8.233  -2.337  24.851  0.00  0.00    +0.049 A 
ATOM     14  C   UNL     1       7.824  -3.268  25.838  0.00  0.00    +0.036 A 
ENDROOT
BRANCH   1  15
ATOM     15  C   UNL     1       6.904  -5.469  26.629  0.00  0.00    +0.163 C 
ATOM     16  O   UNL     1       7.613  -5.675  27.618  0.00  0.00    -0.292 OA
BRANCH  15  18
ATOM     17  C   UNL     1       4.423  -4.991  26.442  0.00  0.00    +0.012 C 
ATOM     18  C   UNL     1       5.509  -6.058  26.489  0.00  0.00    +0.076 C 
ENDBRANCH  15  18
ENDBRANCH   1  15
BRANCH   8  19
ATOM     19  C   UNL     1       8.331  -0.488  26.550  0.00  0.00    +0.129 C 
BRANCH  19  20
ATOM     20  C   UNL     1       6.945   0.196  26.856  0.00  0.00    +0.071 C 
ATOM     21  C   UNL     1       7.134   1.717  26.980  0.00  0.00    +0.026 C 
BRANCH  20  22
ATOM     22  N   UNL     1       5.875  -0.114  25.842  0.00  0.00    -0.304 NA
ATOM     23  C   UNL     1       5.359   1.114  25.216  0.00  0.00    +0.104 C 
ATOM     24  C   UNL     1       4.738  -0.849  26.414  0.00  0.00    +0.104 C 
ENDBRANCH  20  22
ENDBRANCH  19  20
ENDBRANCH   8  19
TORSDOF 5
ENDMDL
MODEL 2
REMARK VINA RESULT:      -5.8      2.669      6.782
REMARK  Name = 
REMARK  9 active torsions:
REMARK  status: ('A' for Active; 'I' for Inactive)
REMARK    1  A    between atoms: C_1  and  C_2
REMARK    2  A    between atoms: C_2  and  C_3
REMARK    3  A    between atoms: C_3  and  C_5
REMARK    4  A    between atoms: N_16  and  C_17
REMARK    5  A    between atoms: C_17  and  C_18
REMARK    6  A    between atoms: C_18  and  C_19
REMARK    7  A    between atoms: C_18  and  N_20
REMARK    8  A    between atoms: N_20  and  C_21
REMARK    9  A    between atoms: N_20  and  C_22
REMARK                            x       y       z     vdW  Elec       q    Type
REMARK                         _______ _______ _______ _____ _____    ______ ____
ROOT
ATOM      1  C   UNL     1       9.221  -0.344  24.805  0.00  0.00    +0.019 A 
ATOM      2  C   UNL     1       8.516   0.493  25.660  0.00  0.00    +0.012 A 
ATOM      3  C   UNL     1       7.459  -0.028  26.393  0.00  0.00    +0.017 A 
ATOM      4  C   UNL     1       7.072  -1.377  26.262  0.00  0.00    +0.034 A 
ATOM      5  S   UNL     1       5.609  -1.796  27.167  0.00  0.00    -0.086 S 
ATOM      6  C   UNL     1       5.544  -3.553  26.971  0.00  0.00    +0.034 A 
ATOM      7  C   UNL     1       6.458  -4.292  26.189  0.00  0.00    +0.048 A 
ATOM      8  N   UNL     1       7.391  -3.655  25.316  0.00  0.00    -0.297 N 
ATOM      9  C   UNL     1       6.368  -5.689  26.325  0.00  0.00    +0.024 A 
ATOM     10  C   UNL     1       5.298  -6.317  26.980  0.00  0.00    +0.002 A 
ATOM     11  C   UNL     1       4.343  -5.559  27.636  0.00  0.00    +0.001 A 
ATOM     12  C   UNL     1       4.497  -4.183  27.674  0.00  0.00    +0.017 A 
ATOM     13  C   UNL     1       7.773  -2.273  25.423  0.00  0.00    +0.049 A 
ATOM     14  C   UNL     1       8.871  -1.712  24.724  0.00  0.00    +0.036 A 
ENDROOT
BRANCH   1  15
ATOM     15  C   UNL     1      10.329   0.183  23.949  0.00  0.00    +0.163 C 
ATOM     16  O   UNL     1      11.346   0.626  24.491  0.00  0.00    -0.292 OA
BRANCH  15  18
ATOM     17  C   UNL     1       9.729   1.465  21.848  0.00  0.00    +0.012 C 
ATOM     18  C   UNL     1      10.169   0.131  22.437  0.00  0.00    +0.076 C 
ENDBRANCH  15  18
ENDBRANCH   1  15
BRANCH   8  19
ATOM     19  C   UNL     1       8.063  -4.469  24.236  0.00  0.00    +0.129 C 
BRANCH  19  20
ATOM     20  C   UNL     1       7.371  -4.580  22.824  0.00  0.00    +0.071 C 
ATOM     21  C   UNL     1       7.439  -6.034  22.328  0.00  0.00    +0.026 C 
BRANCH  20  22
ATOM     22  N   UNL     1       5.947  -4.089  22.803  0.00  0.00    -0.304 NA
ATOM     23  C   UNL     1       4.996  -5.208  22.716  0.00  0.00    +0.104 C 
ATOM     24  C   UNL     1       5.675  -3.169  21.689  0.00  0.00    +0.104 C 
ENDBRANCH  20  22
ENDBRANCH  19  20
ENDBRANCH   8  19
TORSDOF 5
ENDMDL
MODEL 3
REMARK VINA RESULT:      -5.7      2.477      6.173
REMARK  Name = 
REMARK  9 active torsions:
REMARK  status: ('A' for Active; 'I' for Inactive)
REMARK    1  A    between atoms: C_1  and  C_2
REMARK    2  A    between atoms: C_2  and  C_3
REMARK    3  A    between atoms: C_3  and  C_5
REMARK    4  A    between atoms: N_16  and  C_17
REMARK    5  A    between atoms: C_17  and  C_18
REMARK    6  A    between atoms: C_18  and  C_19
REMARK    7  A    between atoms: C_18  and  N_20
REMARK    8  A    between atoms: N_20  and  C_21
REMARK    9  A    between atoms: N_20  and  C_22
REMARK                            x       y       z     vdW  Elec       q    Type
REMARK                         _______ _______ _______ _____ _____    ______ ____
ROOT
ATOM      1  C   UNL     1       9.879   2.242  23.376  0.00  0.00    +0.019 A 
ATOM      2  C   UNL     1      10.048   1.780  22.077  0.00  0.00    +0.012 A 
ATOM      3  C   UNL     1       9.732   0.461  21.786  0.00  0.00    +0.017 A 
ATOM      4  C   UNL     1       9.274  -0.420  22.785  0.00  0.00    +0.034 A 
ATOM      5  S   UNL     1       9.077  -2.092  22.235  0.00  0.00    -0.086 S 
ATOM      6  C   UNL     1       8.297  -2.850  23.630  0.00  0.00    +0.034 A 
ATOM      7  C   UNL     1       8.033  -2.181  24.844  0.00  0.00    +0.048 A 
ATOM      8  N   UNL     1       8.568  -0.887  25.124  0.00  0.00    -0.297 N 
ATOM      9  C   UNL     1       7.224  -2.888  25.753  0.00  0.00    +0.024 A 
ATOM     10  C   UNL     1       6.911  -4.246  25.588  0.00  0.00    +0.002 A 
ATOM     11  C   UNL     1       7.293  -4.912  24.437  0.00  0.00    +0.001 A 
ATOM     12  C   UNL     1       7.938  -4.200  23.438  0.00  0.00    +0.017 A 
ATOM     13  C   UNL     1       9.063   0.010  24.115  0.00  0.00    +0.049 A 
ATOM     14  C   UNL     1       9.359   1.373  24.362  0.00  0.00    +0.036 A 
ENDROOT
BRANCH   1  15
ATOM     15  C   UNL     1      10.262   3.639  23.754  0.00  0.00    +0.163 C 
ATOM     16  O   UNL     1       9.459   4.328  24.390  0.00  0.00    -0.292 OA
BRANCH  15  18
ATOM     17  C   UNL     1      11.856   5.608  23.735  0.00  0.00    +0.012 C 
ATOM     18  C   UNL     1      11.640   4.148  23.360  0.00  0.00    +0.076 C 
ENDBRANCH  15  18
ENDBRANCH   1  15
BRANCH   8  19
ATOM     19  C   UNL     1       8.584  -0.390  26.550  0.00  0.00    +0.129 C 
BRANCH  19  20
ATOM     20  C   UNL     1       7.231   0.077  27.209  0.00  0.00    +0.071 C 
ATOM     21  C   UNL     1       7.528   0.956  28.435  0.00  0.00    +0.026 C 
BRANCH  20  22
ATOM     22  N   UNL     1       6.309   0.799  26.262  0.00  0.00    -0.304 NA
ATOM     23  C   UNL     1       6.334   2.252  26.494  0.00  0.00    +0.104 C 
ATOM     24  C   UNL     1       4.914   0.344  26.361  0.00  0.00    +0.104 C 
ENDBRANCH  20  22
ENDBRANCH  19  20
ENDBRANCH   8  19
TORSDOF 5
ENDMDL
MODEL 4
REMARK VINA RESULT:      -5.6      2.771      4.780
REMARK  Name = 
REMARK  9 active torsions:
REMARK  status: ('A' for Active; 'I' for Inactive)
REMARK    1  A    between atoms: C_1  and  C_2
REMARK    2  A    between atoms: C_2  and  C_3
REMARK    3  A    between atoms: C_3  and  C_5
REMARK    4  A    between atoms: N_16  and  C_17
REMARK    5  A    between atoms: C_17  and  C_18
REMARK    6  A    between atoms: C_18  and  C_19
REMARK    7  A    between atoms: C_18  and  N_20
REMARK    8  A    between atoms: N_20  and  C_21
REMARK    9  A    between atoms: N_20  and  C_22
REMARK                            x       y       z     vdW  Elec       q    Type
REMARK                         _______ _______ _______ _____ _____    ______ ____
ROOT
ATOM      1  C   UNL     1       5.549  -3.169  23.310  0.00  0.00    +0.019 A 
ATOM      2  C   UNL     1       4.886  -3.498  24.485  0.00  0.00    +0.012 A 
ATOM      3  C   UNL     1       4.924  -2.609  25.550  0.00  0.00    +0.017 A 
ATOM      4  C   UNL     1       5.643  -1.400  25.470  0.00  0.00    +0.034 A 
ATOM      5  S   UNL     1       5.688  -0.488  26.987  0.00  0.00    -0.086 S 
ATOM      6  C   UNL     1       6.447   1.028  26.485  0.00  0.00    +0.034 A 
ATOM      7  C   UNL     1       6.922   1.276  25.179  0.00  0.00    +0.048 A 
ATOM      8  N   UNL     1       7.021   0.238  24.203  0.00  0.00    -0.297 N 
ATOM      9  C   UNL     1       7.301   2.605  24.923  0.00  0.00    +0.024 A 
ATOM     10  C   UNL     1       7.443   3.561  25.941  0.00  0.00    +0.002 A 
ATOM     11  C   UNL     1       7.085   3.249  27.240  0.00  0.00    +0.001 A 
ATOM     12  C   UNL     1       6.539   2.002  27.500  0.00  0.00    +0.017 A 
ATOM     13  C   UNL     1       6.312  -1.010  24.288  0.00  0.00    +0.049 A 
ATOM     14  C   UNL     1       6.216  -1.926  23.210  0.00  0.00    +0.036 A 
ENDROOT
BRANCH   1  15
ATOM     15  C   UNL     1       5.589  -4.119  22.154  0.00  0.00    +0.163 C 
ATOM     16  O   UNL     1       5.645  -3.666  21.007  0.00  0.00    -0.292 OA
BRANCH  15  18
ATOM     17  C   UNL     1       6.809  -6.323  21.880  0.00  0.00    +0.012 C 
ATOM     18  C   UNL     1       5.583  -5.613  22.440  0.00  0.00    +0.076 C 
ENDBRANCH  15  18
ENDBRANCH   1  15
BRANCH   8  19
ATOM     19  C   UNL     1       7.877   0.457  22.979  0.00  0.00    +0.129 C 
BRANCH  19  20
ATOM     20  C   UNL     1       9.309  -0.200  22.923  0.00  0.00    +0.071 C 
ATOM     21  C   UNL     1       9.510  -0.888  21.563  0.00  0.00    +0.026 C 
BRANCH  20  22
ATOM     22  N   UNL     1      10.433   0.766  23.188  0.00  0.00    -0.304 NA
ATOM     23  C   UNL     1      10.709   0.885  24.629  0.00  0.00    +0.104 C 
ATOM     24  C   UNL     1      10.168   2.113  22.661  0.00  0.00    +0.104 C 
ENDBRANCH  20  22
ENDBRANCH  19  20
ENDBRANCH   8  19
TORSDOF 5
ENDMDL
MODEL 5
REMARK VINA RESULT:      -5.6      2.305      4.355
REMARK  Name = 
REMARK  9 active torsions:
REMARK  status: ('A' for Active; 'I' for Inactive)
REMARK    1  A    between atoms: C_1  and  C_2
REMARK    2  A    between atoms: C_2  and  C_3
REMARK    3  A    between atoms: C_3  and  C_5
REMARK    4  A    between atoms: N_16  and  C_17
REMARK    5  A    between atoms: C_17  and  C_18
REMARK    6  A    between atoms: C_18  and  C_19
REMARK    7  A    between atoms: C_18  and  N_20
REMARK    8  A    between atoms: N_20  and  C_21
REMARK    9  A    between atoms: N_20  and  C_22
REMARK                            x       y       z     vdW  Elec       q    Type
REMARK                         _______ _______ _______ _____ _____    ______ ____
ROOT
ATOM      1  C   UNL     1       7.080  -3.604  23.914  0.00  0.00    +0.019 A 
ATOM      2  C   UNL     1       6.183  -3.697  24.969  0.00  0.00    +0.012 A 
ATOM      3  C   UNL     1       5.580  -2.541  25.444  0.00  0.00    +0.017 A 
ATOM      4  C   UNL     1       5.882  -1.279  24.896  0.00  0.00    +0.034 A 
ATOM      5  S   UNL     1       5.121   0.075  25.746  0.00  0.00    -0.086 S 
ATOM      6  C   UNL     1       5.513   1.440  24.692  0.00  0.00    +0.034 A 
ATOM      7  C   UNL     1       6.313   1.336  23.534  0.00  0.00    +0.048 A 
ATOM      8  N   UNL     1       7.051   0.152  23.232  0.00  0.00    -0.297 N 
ATOM      9  C   UNL     1       6.338   2.482  22.719  0.00  0.00    +0.024 A 
ATOM     10  C   UNL     1       5.823   3.719  23.139  0.00  0.00    +0.002 A 
ATOM     11  C   UNL     1       5.148   3.818  24.342  0.00  0.00    +0.001 A 
ATOM     12  C   UNL     1       4.949   2.669  25.091  0.00  0.00    +0.017 A 
ATOM     13  C   UNL     1       6.769  -1.136  23.805  0.00  0.00    +0.049 A 
ATOM     14  C   UNL     1       7.333  -2.344  23.324  0.00  0.00    +0.036 A 
ENDROOT
BRANCH   1  15
ATOM     15  C   UNL     1       7.803  -4.812  23.405  0.00  0.00    +0.163 C 
ATOM     16  O   UNL     1       8.721  -5.288  24.080  0.00  0.00    -0.292 OA
BRANCH  15  18
ATOM     17  C   UNL     1       5.969  -6.031  22.155  0.00  0.00    +0.012 C 
ATOM     18  C   UNL     1       7.362  -5.421  22.083  0.00  0.00    +0.076 C 
ENDBRANCH  15  18
ENDBRANCH   1  15
BRANCH   8  19
ATOM     19  C   UNL     1       8.170   0.220  22.220  0.00  0.00    +0.129 C 
BRANCH  19  20
ATOM     20  C   UNL     1       9.599   0.686  22.695  0.00  0.00    +0.071 C 
ATOM     21  C   UNL     1      10.052   1.897  21.862  0.00  0.00    +0.026 C 
BRANCH  20  22
ATOM     22  N   UNL     1       9.678   1.007  24.165  0.00  0.00    -0.304 NA
ATOM     23  C   UNL     1       9.677   2.460  24.397  0.00  0.00    +0.104 C 
ATOM     24  C   UNL     1      10.871   0.441  24.812  0.00  0.00    +0.104 C 
ENDBRANCH  20  22
ENDBRANCH  19  20
ENDBRANCH   8  19
TORSDOF 5
ENDMDL
MODEL 6
REMARK VINA RESULT:      -5.6      1.593      2.132
REMARK  Name = 
REMARK  9 active torsions:
REMARK  status: ('A' for Active; 'I' for Inactive)
REMARK    1  A    between atoms: C_1  and  C_2
REMARK    2  A    between atoms: C_2  and  C_3
REMARK    3  A    between atoms: C_3  and  C_5
REMARK    4  A    between atoms: N_16  and  C_17
REMARK    5  A    between atoms: C_17  and  C_18
REMARK    6  A    between atoms: C_18  and  C_19
REMARK    7  A    between atoms: C_18  and  N_20
REMARK    8  A    between atoms: N_20  and  C_21
REMARK    9  A    between atoms: N_20  and  C_22
REMARK                            x       y       z     vdW  Elec       q    Type
REMARK                         _______ _______ _______ _____ _____    ______ ____
ROOT
ATOM      1  C   UNL     1       5.837  -5.371  24.223  0.00  0.00    +0.019 A 
ATOM      2  C   UNL     1       6.218  -5.538  22.898  0.00  0.00    +0.012 A 
ATOM      3  C   UNL     1       7.074  -4.610  22.322  0.00  0.00    +0.017 A 
ATOM      4  C   UNL     1       7.535  -3.492  23.044  0.00  0.00    +0.034 A 
ATOM      5  S   UNL     1       8.489  -2.355  22.078  0.00  0.00    -0.086 S 
ATOM      6  C   UNL     1       9.079  -1.230  23.308  0.00  0.00    +0.034 A 
ATOM      7  C   UNL     1       8.727  -1.299  24.673  0.00  0.00    +0.048 A 
ATOM      8  N   UNL     1       7.691  -2.163  25.141  0.00  0.00    -0.297 N 
ATOM      9  C   UNL     1       9.458  -0.450  25.523  0.00  0.00    +0.024 A 
ATOM     10  C   UNL     1      10.290   0.570  25.039  0.00  0.00    +0.002 A 
ATOM     11  C   UNL     1      10.520   0.693  23.680  0.00  0.00    +0.001 A 
ATOM     12  C   UNL     1       9.957  -0.239  22.823  0.00  0.00    +0.017 A 
ATOM     13  C   UNL     1       7.194  -3.291  24.401  0.00  0.00    +0.049 A 
ATOM     14  C   UNL     1       6.352  -4.282  24.964  0.00  0.00    +0.036 A 
ENDROOT
BRANCH   1  15
ATOM     15  C   UNL     1       4.869  -6.310  24.872  0.00  0.00    +0.163 C 
ATOM     16  O   UNL     1       4.577  -7.362  24.296  0.00  0.00    -0.292 OA
BRANCH  15  18
ATOM     17  C   UNL     1       4.908  -6.756  27.365  0.00  0.00    +0.012 C 
ATOM     18  C   UNL     1       4.298  -5.940  26.232  0.00  0.00    +0.076 C 
ENDBRANCH  15  18
ENDBRANCH   1  15
BRANCH   8  19
ATOM     19  C   UNL     1       7.096  -1.926  26.509  0.00  0.00    +0.129 C 
BRANCH  19  20
ATOM     20  C   UNL     1       5.706  -1.191  26.618  0.00  0.00    +0.071 C 
ATOM     21  C   UNL     1       4.813  -1.921  27.635  0.00  0.00    +0.026 C 
BRANCH  20  22
ATOM     22  N   UNL     1       5.815   0.268  26.974  0.00  0.00    -0.304 NA
ATOM     23  C   UNL     1       6.013   1.099  25.775  0.00  0.00    +0.104 C 
ATOM     24  C   UNL     1       6.912   0.550  27.911  0.00  0.00    +0.104 C 
ENDBRANCH  20  22
ENDBRANCH  19  20
ENDBRANCH   8  19
TORSDOF 5
ENDMDL
MODEL 7
REMARK VINA RESULT:      -5.6      2.867      6.395
REMARK  Name = 
REMARK  9 active torsions:
REMARK  status: ('A' for Active; 'I' for Inactive)
REMARK    1  A    between atoms: C_1  and  C_2
REMARK    2  A    between atoms: C_2  and  C_3
REMARK    3  A    between atoms: C_3  and  C_5
REMARK    4  A    between atoms: N_16  and  C_17
REMARK    5  A    between atoms: C_17  and  C_18
REMARK    6  A    between atoms: C_18  and  C_19
REMARK    7  A    between atoms: C_18  and  N_20
REMARK    8  A    between atoms: N_20  and  C_21
REMARK    9  A    between atoms: N_20  and  C_22
REMARK                            x       y       z     vdW  Elec       q    Type
REMARK                         _______ _______ _______ _____ _____    ______ ____
ROOT
ATOM      1  C   UNL     1       9.532   2.421  23.277  0.00  0.00    +0.019 A 
ATOM      2  C   UNL     1      10.192   1.784  22.234  0.00  0.00    +0.012 A 
ATOM      3  C   UNL     1       9.844   0.479  21.914  0.00  0.00    +0.017 A 
ATOM      4  C   UNL     1       8.858  -0.215  22.643  0.00  0.00    +0.034 A 
ATOM      5  S   UNL     1       8.677  -1.912  22.170  0.00  0.00    -0.086 S 
ATOM      6  C   UNL     1       7.250  -2.402  23.093  0.00  0.00    +0.034 A 
ATOM      7  C   UNL     1       6.574  -1.562  24.004  0.00  0.00    +0.048 A 
ATOM      8  N   UNL     1       7.117  -0.307  24.417  0.00  0.00    -0.297 N 
ATOM      9  C   UNL     1       5.348  -2.058  24.480  0.00  0.00    +0.024 A 
ATOM     10  C   UNL     1       4.939  -3.385  24.275  0.00  0.00    +0.002 A 
ATOM     11  C   UNL     1       5.689  -4.227  23.474  0.00  0.00    +0.001 A 
ATOM     12  C   UNL     1       6.814  -3.719  22.843  0.00  0.00    +0.017 A 
ATOM     13  C   UNL     1       8.142   0.398  23.695  0.00  0.00    +0.049 A 
ATOM     14  C   UNL     1       8.499   1.743  23.965  0.00  0.00    +0.036 A 
ENDROOT
BRANCH   1  15
ATOM     15  C   UNL     1       9.912   3.805  23.701  0.00  0.00    +0.163 C 
ATOM     16  O   UNL     1       9.089   4.491  24.313  0.00  0.00    -0.292 OA
BRANCH  15  18
ATOM     17  C   UNL     1      11.511   5.770  23.749  0.00  0.00    +0.012 C 
ATOM     18  C   UNL     1      11.312   4.305  23.380  0.00  0.00    +0.076 C 
ENDBRANCH  15  18
ENDBRANCH   1  15
BRANCH   8  19
ATOM     19  C   UNL     1       6.569   0.361  25.655  0.00  0.00    +0.129 C 
BRANCH  19  20
ATOM     20  C   UNL     1       7.070  -0.126  27.068  0.00  0.00    +0.071 C 
ATOM     21  C   UNL     1       8.487  -0.711  26.942  0.00  0.00    +0.026 C 
BRANCH  20  22
ATOM     22  N   UNL     1       7.042   0.946  28.127  0.00  0.00    -0.304 NA
ATOM     23  C   UNL     1       5.894   0.775  29.031  0.00  0.00    +0.104 C 
ATOM     24  C   UNL     1       6.986   2.304  27.566  0.00  0.00    +0.104 C 
ENDBRANCH  20  22
ENDBRANCH  19  20
ENDBRANCH   8  19
TORSDOF 5
ENDMDL
MODEL 8
REMARK VINA RESULT:      -5.4      2.541      5.872
REMARK  Name = 
REMARK  9 active torsions:
REMARK  status: ('A' for Active; 'I' for Inactive)
REMARK    1  A    between atoms: C_1  and  C_2
REMARK    2  A    between atoms: C_2  and  C_3
REMARK    3  A    between atoms: C_3  and  C_5
REMARK    4  A    between atoms: N_16  and  C_17
REMARK    5  A    between atoms: C_17  and  C_18
REMARK    6  A    between atoms: C_18  and  C_19
REMARK    7  A    between atoms: C_18  and  N_20
REMARK    8  A    between atoms: N_20  and  C_21
REMARK    9  A    between atoms: N_20  and  C_22
REMARK                            x       y       z     vdW  Elec       q    Type
REMARK                         _______ _______ _______ _____ _____    ______ ____
ROOT
ATOM      1  C   UNL     1       9.176  -0.058  22.730  0.00  0.00    +0.019 A 
ATOM      2  C   UNL     1      10.066  -1.069  22.393  0.00  0.00    +0.012 A 
ATOM      3  C   UNL     1      10.017  -2.269  23.088  0.00  0.00    +0.017 A 
ATOM      4  C   UNL     1       9.105  -2.466  24.144  0.00  0.00    +0.034 A 
ATOM      5  S   UNL     1       9.312  -4.005  24.995  0.00  0.00    -0.086 S 
ATOM      6  C   UNL     1       7.907  -4.025  26.069  0.00  0.00    +0.034 A 
ATOM      7  C   UNL     1       6.979  -2.967  26.172  0.00  0.00    +0.048 A 
ATOM      8  N   UNL     1       7.216  -1.695  25.567  0.00  0.00    -0.297 N 
ATOM      9  C   UNL     1       5.823  -3.254  26.920  0.00  0.00    +0.024 A 
ATOM     10  C   UNL     1       5.706  -4.403  27.718  0.00  0.00    +0.002 A 
ATOM     11  C   UNL     1       6.695  -5.371  27.691  0.00  0.00    +0.001 A 
ATOM     12  C   UNL     1       7.767  -5.205  26.829  0.00  0.00    +0.017 A 
ATOM     13  C   UNL     1       8.163  -1.476  24.508  0.00  0.00    +0.049 A 
ATOM     14  C   UNL     1       8.219  -0.282  23.747  0.00  0.00    +0.036 A 
ENDROOT
BRANCH   1  15
ATOM     15  C   UNL     1       9.229   1.276  22.052  0.00  0.00    +0.163 C 
ATOM     16  O   UNL     1       8.394   1.537  21.181  0.00  0.00    -0.292 OA
BRANCH  15  18
ATOM     17  C   UNL     1       9.890   3.081  23.702  0.00  0.00    +0.012 C 
ATOM     18  C   UNL     1      10.298   2.268  22.480  0.00  0.00    +0.076 C 
ENDBRANCH  15  18
ENDBRANCH   1  15
BRANCH   8  19
ATOM     19  C   UNL     1       6.406  -0.503  26.017  0.00  0.00    +0.129 C 
BRANCH  19  20
ATOM     20  C   UNL     1       6.988   0.431  27.146  0.00  0.00    +0.071 C 
ATOM     21  C   UNL     1       7.213   1.845  26.583  0.00  0.00    +0.026 C 
BRANCH  20  22
ATOM     22  N   UNL     1       6.134   0.495  28.385  0.00  0.00    -0.304 NA
ATOM     23  C   UNL     1       4.743   0.111  28.097  0.00  0.00    +0.104 C 
ATOM     24  C   UNL     1       6.122   1.827  29.006  0.00  0.00    +0.104 C 
ENDBRANCH  20  22
ENDBRANCH  19  20
ENDBRANCH   8  19
TORSDOF 5
ENDMDL
MODEL 9
REMARK VINA RESULT:      -5.3      2.702      4.612
REMARK  Name = 
REMARK  9 active torsions:
REMARK  status: ('A' for Active; 'I' for Inactive)
REMARK    1  A    between atoms: C_1  and  C_2
REMARK    2  A    between atoms: C_2  and  C_3
REMARK    3  A    between atoms: C_3  and  C_5
REMARK    4  A    between atoms: N_16  and  C_17
REMARK    5  A    between atoms: C_17  and  C_18
REMARK    6  A    between atoms: C_18  and  C_19
REMARK    7  A    between atoms: C_18  and  N_20
REMARK    8  A    between atoms: N_20  and  C_21
REMARK    9  A    between atoms: N_20  and  C_22
REMARK                            x       y       z     vdW  Elec       q    Type
REMARK                         _______ _______ _______ _____ _____    ______ ____
ROOT
ATOM      1  C   UNL     1       5.843  -1.670  24.650  0.00  0.00    +0.019 A 
ATOM      2  C   UNL     1       5.128  -1.280  25.775  0.00  0.00    +0.012 A 
ATOM      3  C   UNL     1       5.357  -0.022  26.315  0.00  0.00    +0.017 A 
ATOM      4  C   UNL     1       6.318   0.848  25.763  0.00  0.00    +0.034 A 
ATOM      5  S   UNL     1       6.559   2.335  26.693  0.00  0.00    -0.086 S 
ATOM      6  C   UNL     1       7.624   3.266  25.631  0.00  0.00    +0.034 A 
ATOM      7  C   UNL     1       8.138   2.781  24.410  0.00  0.00    +0.048 A 
ATOM      8  N   UNL     1       8.011   1.410  24.030  0.00  0.00    -0.297 N 
ATOM      9  C   UNL     1       8.792   3.738  23.613  0.00  0.00    +0.024 A 
ATOM     10  C   UNL     1       9.137   5.011  24.092  0.00  0.00    +0.002 A 
ATOM     11  C   UNL     1       8.723   5.417  25.349  0.00  0.00    +0.001 A 
ATOM     12  C   UNL     1       7.924   4.564  26.094  0.00  0.00    +0.017 A 
ATOM     13  C   UNL     1       7.052   0.506  24.605  0.00  0.00    +0.049 A 
ATOM     14  C   UNL     1       6.760  -0.770  24.061  0.00  0.00    +0.036 A 
ENDROOT
BRANCH   1  15
ATOM     15  C   UNL     1       5.677  -3.038  24.066  0.00  0.00    +0.163 C 
ATOM     16  O   UNL     1       5.717  -4.018  24.816  0.00  0.00    -0.292 OA
BRANCH  15  18
ATOM     17  C   UNL     1       6.506  -4.012  21.879  0.00  0.00    +0.012 C 
ATOM     18  C   UNL     1       5.444  -3.166  22.569  0.00  0.00    +0.076 C 
ENDBRANCH  15  18
ENDBRANCH   1  15
BRANCH   8  19
ATOM     19  C   UNL     1       8.891   0.866  22.931  0.00  0.00    +0.129 C 
BRANCH  19  20
ATOM     20  C   UNL     1      10.224   0.120  23.322  0.00  0.00    +0.071 C 
ATOM     21  C   UNL     1      10.401   0.142  24.849  0.00  0.00    +0.026 C 
BRANCH  20  22
ATOM     22  N   UNL     1      10.304  -1.294  22.809  0.00  0.00    -0.304 NA
ATOM     23  C   UNL     1       9.384  -1.507  21.681  0.00  0.00    +0.104 C 
ATOM     24  C   UNL     1      10.003  -2.296  23.842  0.00  0.00    +0.104 C 
ENDBRANCH  20  22
ENDBRANCH  19  20
ENDBRANCH   8  19
TORSDOF 5
ENDMDL
