MODEL 1
REMARK VINA RESULT:      -6.7      0.000      0.000
REMARK  Name = 
REMARK  14 active torsions:
REMARK  status: ('A' for Active; 'I' for Inactive)
REMARK    1  A    between atoms: C_1  and  C_2
REMARK    2  A    between atoms: C_4  and  C_5
REMARK    3  A    between atoms: C_13  and  C_14
REMARK    4  A    between atoms: C_14  and  C_15
REMARK    5  A    between atoms: C_15  and  C_16
REMARK    6  A    between atoms: C_16  and  O_17
REMARK    7  A    between atoms: C_19  and  C_20
REMARK    8  A    between atoms: C_31  and  C_32
REMARK    9  A    between atoms: C_34  and  C_35
REMARK   10  A    between atoms: C_36  and  C_37
REMARK   11  A    between atoms: C_37  and  C_38
REMARK   12  A    between atoms: C_38  and  C_39
REMARK   13  A    between atoms: C_39  and  O_40
REMARK   14  A    between atoms: C_42  and  C_43
REMARK                            x       y       z     vdW  Elec       q    Type
REMARK                         _______ _______ _______ _____ _____    ______ ____
ROOT
ATOM      1  C   UNL     1      10.662   7.108  26.863  0.00  0.00    +0.000 C 
ATOM      2  C   UNL     1       9.481   6.196  26.146  0.00  0.00    +0.000 C 
ATOM      3  C   UNL     1       8.260   5.122  25.977  0.00  0.00    +0.000 A 
ATOM      4  C   UNL     1       6.938   3.944  26.390  0.00  0.00    +0.000 A 
ATOM      5  N   UNL     1       7.287   3.009  25.503  0.00  0.00    +0.000 N 
ATOM      6 FE   UNL     1       7.048   0.949  26.054  0.00  0.00    +0.000 Fe
ATOM      7  N   UNL     1       7.033  -1.230  26.466  0.00  0.00    +0.000 N 
ATOM      8  C   UNL     1       6.218  -2.213  26.808  0.00  0.00    +0.000 A 
ATOM      9  C   UNL     1       4.930  -1.918  26.970  0.00  0.00    +0.000 C 
ATOM     10  C   UNL     1       4.493  -0.667  27.069  0.00  0.00    +0.000 A 
ATOM     11  C   UNL     1       3.152  -0.602  27.279  0.00  0.00    +0.000 A 
ATOM     12  C   UNL     1       2.171  -1.803  27.328  0.00  0.00    +0.000 C 
ATOM     13  C   UNL     1       2.123  -3.473  27.215  0.00  0.00    +0.000 C 
ATOM     14  C   UNL     1       2.970   0.879  27.396  0.00  0.00    +0.000 A 
ATOM     15  C   UNL     1       1.354   0.936  27.652  0.00  0.00    +0.000 C 
ATOM     16  C   UNL     1       4.485   1.666  27.190  0.00  0.00    +0.000 A 
ATOM     17  C   UNL     1       6.798  -3.501  26.705  0.00  0.00    +0.000 A 
ATOM     18  C   UNL     1       6.182  -4.930  26.681  0.00  0.00    +0.000 C 
ATOM     19  C   UNL     1       8.116  -3.205  26.521  0.00  0.00    +0.000 A 
ATOM     20  C   UNL     1       8.165  -1.853  26.333  0.00  0.00    +0.000 A 
ATOM     21  C   UNL     1       9.162  -0.997  26.004  0.00  0.00    +0.000 C 
ATOM     22  C   UNL     1       8.856  -0.317  24.899  0.00  0.00    +0.000 A 
ATOM     23  C   UNL     1       7.855  -0.482  23.852  0.00  0.00    +0.000 A 
ATOM     24  C   UNL     1       7.874   0.697  23.128  0.00  0.00    +0.000 A 
ATOM     25  C   UNL     1       7.001   1.298  22.009  0.00  0.00    +0.000 C 
ATOM     26  C   UNL     1       8.632   1.511  23.893  0.00  0.00    +0.000 A 
ATOM     27  C   UNL     1       8.645   2.774  23.559  0.00  0.00    +0.000 C 
ATOM     28  N   UNL     1       5.219   0.592  26.923  0.00  0.00    +0.000 N 
ATOM     29  N   UNL     1       8.819   0.920  25.125  0.00  0.00    +0.000 N 
ATOM     30  C   UNL     1       8.134   3.556  24.565  0.00  0.00    +0.000 A 
ATOM     31  C   UNL     1       5.698   3.192  27.201  0.00  0.00    +0.000 C 
ATOM     32  C   UNL     1       8.367   4.871  24.557  0.00  0.00    +0.000 A 
ATOM     33  C   UNL     1       9.122   5.651  23.232  0.00  0.00    +0.000 C 
ENDROOT
BRANCH  19  34
ATOM     34  C   UNL     1       9.307  -4.045  26.456  0.00  0.00    +0.000 C 
BRANCH  34  35
ATOM     35  C   UNL     1       9.572  -4.266  24.957  0.00  0.00    +0.000 C 
BRANCH  35  36
ATOM     36  C   UNL     1       9.070  -5.593  24.524  0.00  0.00    +0.000 C 
ATOM     37  O   UNL     1       8.316  -5.676  23.570  0.00  0.00    +0.000 OA
BRANCH  36  38
ATOM     38  O   UNL     1       9.413  -6.700  25.217  0.00  0.00    +0.000 OA
ATOM     39  H   UNL     1       9.186  -6.800  26.154  0.00  0.00    +0.000 HD
ENDBRANCH  36  38
ENDBRANCH  35  36
ENDBRANCH  34  35
ENDBRANCH  19  34
BRANCH  23  40
ATOM     40  C   UNL     1       6.623  -1.380  23.868  0.00  0.00    +0.000 C 
BRANCH  40  41
ATOM     41  C   UNL     1       6.700  -2.686  23.139  0.00  0.00    +0.000 C 
BRANCH  41  42
ATOM     42  C   UNL     1       5.363  -3.330  23.002  0.00  0.00    +0.000 C 
ATOM     43  O   UNL     1       4.577  -3.308  23.937  0.00  0.00    +0.000 OA
BRANCH  42  44
ATOM     44  O   UNL     1       5.022  -3.940  21.854  0.00  0.00    +0.000 OA
ATOM     45  H   UNL     1       4.540  -4.779  21.864  0.00  0.00    +0.000 HD
ENDBRANCH  42  44
ENDBRANCH  41  42
ENDBRANCH  40  41
ENDBRANCH  23  40
TORSDOF 8
ENDMDL
MODEL 2
REMARK VINA RESULT:      -6.1      4.032      7.857
REMARK  Name = 
REMARK  14 active torsions:
REMARK  status: ('A' for Active; 'I' for Inactive)
REMARK    1  A    between atoms: C_1  and  C_2
REMARK    2  A    between atoms: C_4  and  C_5
REMARK    3  A    between atoms: C_13  and  C_14
REMARK    4  A    between atoms: C_14  and  C_15
REMARK    5  A    between atoms: C_15  and  C_16
REMARK    6  A    between atoms: C_16  and  O_17
REMARK    7  A    between atoms: C_19  and  C_20
REMARK    8  A    between atoms: C_31  and  C_32
REMARK    9  A    between atoms: C_34  and  C_35
REMARK   10  A    between atoms: C_36  and  C_37
REMARK   11  A    between atoms: C_37  and  C_38
REMARK   12  A    between atoms: C_38  and  C_39
REMARK   13  A    between atoms: C_39  and  O_40
REMARK   14  A    between atoms: C_42  and  C_43
REMARK                            x       y       z     vdW  Elec       q    Type
REMARK                         _______ _______ _______ _____ _____    ______ ____
ROOT
ATOM      1  C   UNL     1       7.195  -4.909  22.102  0.00  0.00    +0.000 C 
ATOM      2  C   UNL     1       7.623  -3.576  22.983  0.00  0.00    +0.000 C 
ATOM      3  C   UNL     1       7.496  -2.296  23.994  0.00  0.00    +0.000 A 
ATOM      4  C   UNL     1       6.814  -1.124  25.205  0.00  0.00    +0.000 A 
ATOM      5  N   UNL     1       7.184  -0.013  24.564  0.00  0.00    +0.000 N 
ATOM      6 FE   UNL     1       5.873   1.684  24.637  0.00  0.00    +0.000 Fe
ATOM      7  N   UNL     1       4.609   3.496  24.448  0.00  0.00    +0.000 N 
ATOM      8  C   UNL     1       4.004   4.417  25.179  0.00  0.00    +0.000 A 
ATOM      9  C   UNL     1       4.149   4.349  26.500  0.00  0.00    +0.000 C 
ATOM     10  C   UNL     1       4.630   3.269  27.109  0.00  0.00    +0.000 A 
ATOM     11  C   UNL     1       4.644   3.401  28.461  0.00  0.00    +0.000 A 
ATOM     12  C   UNL     1       4.236   4.663  29.265  0.00  0.00    +0.000 C 
ATOM     13  C   UNL     1       3.659   6.223  29.069  0.00  0.00    +0.000 C 
ATOM     14  C   UNL     1       5.170   2.057  28.856  0.00  0.00    +0.000 A 
ATOM     15  C   UNL     1       5.177   2.233  30.484  0.00  0.00    +0.000 C 
ATOM     16  C   UNL     1       5.480   1.120  27.448  0.00  0.00    +0.000 A 
ATOM     17  C   UNL     1       3.492   5.502  24.426  0.00  0.00    +0.000 A 
ATOM     18  C   UNL     1       3.008   6.924  24.831  0.00  0.00    +0.000 C 
ATOM     19  C   UNL     1       3.605   5.039  23.149  0.00  0.00    +0.000 A 
ATOM     20  C   UNL     1       4.323   3.881  23.240  0.00  0.00    +0.000 A 
ATOM     21  C   UNL     1       4.841   3.034  22.319  0.00  0.00    +0.000 C 
ATOM     22  C   UNL     1       6.157   2.903  22.483  0.00  0.00    +0.000 A 
ATOM     23  C   UNL     1       7.166   3.652  23.221  0.00  0.00    +0.000 A 
ATOM     24  C   UNL     1       8.301   2.861  23.212  0.00  0.00    +0.000 A 
ATOM     25  C   UNL     1       9.672   2.920  23.913  0.00  0.00    +0.000 C 
ATOM     26  C   UNL     1       7.845   1.681  22.737  0.00  0.00    +0.000 A 
ATOM     27  C   UNL     1       8.663   0.667  22.824  0.00  0.00    +0.000 C 
ATOM     28  N   UNL     1       5.183   2.044  26.540  0.00  0.00    +0.000 N 
ATOM     29  N   UNL     1       6.466   1.708  22.727  0.00  0.00    +0.000 N 
ATOM     30  C   UNL     1       8.144  -0.319  23.626  0.00  0.00    +0.000 A 
ATOM     31  C   UNL     1       5.937  -0.505  26.473  0.00  0.00    +0.000 C 
ATOM     32  C   UNL     1       8.659  -1.550  23.571  0.00  0.00    +0.000 A 
ATOM     33  C   UNL     1      10.076  -1.901  22.673  0.00  0.00    +0.000 C 
ENDROOT
BRANCH  19  34
ATOM     34  C   UNL     1       3.162   5.583  21.868  0.00  0.00    +0.000 C 
BRANCH  34  35
ATOM     35  C   UNL     1       1.816   4.898  21.577  0.00  0.00    +0.000 C 
BRANCH  35  36
ATOM     36  C   UNL     1       1.921   4.017  20.387  0.00  0.00    +0.000 C 
ATOM     37  O   UNL     1       1.692   2.825  20.492  0.00  0.00    +0.000 OA
BRANCH  36  38
ATOM     38  O   UNL     1       2.313   4.532  19.202  0.00  0.00    +0.000 OA
ATOM     39  H   UNL     1       3.104   5.089  19.131  0.00  0.00    +0.000 HD
ENDBRANCH  36  38
ENDBRANCH  35  36
ENDBRANCH  34  35
ENDBRANCH  19  34
BRANCH  23  40
ATOM     40  C   UNL     1       6.945   4.705  24.303  0.00  0.00    +0.000 C 
BRANCH  40  41
ATOM     41  C   UNL     1       7.122   6.143  23.925  0.00  0.00    +0.000 C 
BRANCH  41  42
ATOM     42  C   UNL     1       8.161   6.320  22.870  0.00  0.00    +0.000 C 
ATOM     43  O   UNL     1       9.337   6.419  23.184  0.00  0.00    +0.000 OA
BRANCH  42  44
ATOM     44  O   UNL     1       7.806   6.377  21.575  0.00  0.00    +0.000 OA
ATOM     45  H   UNL     1       8.269   5.848  20.912  0.00  0.00    +0.000 HD
ENDBRANCH  42  44
ENDBRANCH  41  42
ENDBRANCH  40  41
ENDBRANCH  23  40
TORSDOF 8
ENDMDL
MODEL 3
REMARK VINA RESULT:      -5.6      3.793      6.864
REMARK  Name = 
REMARK  14 active torsions:
REMARK  status: ('A' for Active; 'I' for Inactive)
REMARK    1  A    between atoms: C_1  and  C_2
REMARK    2  A    between atoms: C_4  and  C_5
REMARK    3  A    between atoms: C_13  and  C_14
REMARK    4  A    between atoms: C_14  and  C_15
REMARK    5  A    between atoms: C_15  and  C_16
REMARK    6  A    between atoms: C_16  and  O_17
REMARK    7  A    between atoms: C_19  and  C_20
REMARK    8  A    between atoms: C_31  and  C_32
REMARK    9  A    between atoms: C_34  and  C_35
REMARK   10  A    between atoms: C_36  and  C_37
REMARK   11  A    between atoms: C_37  and  C_38
REMARK   12  A    between atoms: C_38  and  C_39
REMARK   13  A    between atoms: C_39  and  O_40
REMARK   14  A    between atoms: C_42  and  C_43
REMARK                            x       y       z     vdW  Elec       q    Type
REMARK                         _______ _______ _______ _____ _____    ______ ____
ROOT
ATOM      1  C   UNL     1       9.013   1.408  21.246  0.00  0.00    +0.000 C 
ATOM      2  C   UNL     1       8.717  -0.130  21.779  0.00  0.00    +0.000 C 
ATOM      3  C   UNL     1       7.891  -1.468  22.229  0.00  0.00    +0.000 A 
ATOM      4  C   UNL     1       6.518  -2.627  22.508  0.00  0.00    +0.000 A 
ATOM      5  N   UNL     1       6.853  -2.958  23.758  0.00  0.00    +0.000 N 
ATOM      6 FE   UNL     1       5.277  -3.314  25.169  0.00  0.00    +0.000 Fe
ATOM      7  N   UNL     1       3.824  -3.572  26.824  0.00  0.00    +0.000 N 
ATOM      8  C   UNL     1       2.776  -4.296  27.178  0.00  0.00    +0.000 A 
ATOM      9  C   UNL     1       2.371  -5.247  26.340  0.00  0.00    +0.000 C 
ATOM     10  C   UNL     1       2.792  -5.311  25.080  0.00  0.00    +0.000 A 
ATOM     11  C   UNL     1       2.214  -6.331  24.392  0.00  0.00    +0.000 A 
ATOM     12  C   UNL     1       1.231  -7.384  24.966  0.00  0.00    +0.000 C 
ATOM     13  C   UNL     1       0.443  -7.823  26.378  0.00  0.00    +0.000 C 
ATOM     14  C   UNL     1       2.824  -6.123  23.042  0.00  0.00    +0.000 A 
ATOM     15  C   UNL     1       2.115  -7.355  22.229  0.00  0.00    +0.000 C 
ATOM     16  C   UNL     1       3.896  -4.780  23.091  0.00  0.00    +0.000 A 
ATOM     17  C   UNL     1       2.386  -4.120  28.529  0.00  0.00    +0.000 A 
ATOM     18  C   UNL     1       1.464  -4.946  29.471  0.00  0.00    +0.000 C 
ATOM     19  C   UNL     1       3.122  -3.033  28.897  0.00  0.00    +0.000 A 
ATOM     20  C   UNL     1       3.984  -2.806  27.862  0.00  0.00    +0.000 A 
ATOM     21  C   UNL     1       5.016  -1.947  27.685  0.00  0.00    +0.000 C 
ATOM     22  C   UNL     1       6.138  -2.610  27.398  0.00  0.00    +0.000 A 
ATOM     23  C   UNL     1       6.547  -4.004  27.506  0.00  0.00    +0.000 A 
ATOM     24  C   UNL     1       7.733  -4.101  26.800  0.00  0.00    +0.000 A 
ATOM     25  C   UNL     1       8.636  -5.266  26.349  0.00  0.00    +0.000 C 
ATOM     26  C   UNL     1       7.800  -2.916  26.154  0.00  0.00    +0.000 A 
ATOM     27  C   UNL     1       8.718  -2.811  25.232  0.00  0.00    +0.000 C 
ATOM     28  N   UNL     1       3.798  -4.510  24.388  0.00  0.00    +0.000 N 
ATOM     29  N   UNL     1       6.585  -2.275  26.271  0.00  0.00    +0.000 N 
ATOM     30  C   UNL     1       8.158  -2.589  23.999  0.00  0.00    +0.000 A 
ATOM     31  C   UNL     1       5.078  -3.434  22.321  0.00  0.00    +0.000 C 
ATOM     32  C   UNL     1       8.918  -2.125  23.004  0.00  0.00    +0.000 A 
ATOM     33  C   UNL     1      10.618  -1.976  23.156  0.00  0.00    +0.000 C 
ENDROOT
BRANCH  19  34
ATOM     34  C   UNL     1       3.137  -2.229  30.115  0.00  0.00    +0.000 C 
BRANCH  34  35
ATOM     35  C   UNL     1       2.096  -1.119  29.885  0.00  0.00    +0.000 C 
BRANCH  35  36
ATOM     36  C   UNL     1       2.733   0.219  29.948  0.00  0.00    +0.000 C 
ATOM     37  O   UNL     1       2.081   1.215  29.686  0.00  0.00    +0.000 OA
BRANCH  36  38
ATOM     38  O   UNL     1       4.044   0.327  30.252  0.00  0.00    +0.000 OA
ATOM     39  H   UNL     1       4.613   0.973  29.808  0.00  0.00    +0.000 HD
ENDBRANCH  36  38
ENDBRANCH  35  36
ENDBRANCH  34  35
ENDBRANCH  19  34
BRANCH  23  40
ATOM     40  C   UNL     1       5.661  -5.225  27.736  0.00  0.00    +0.000 C 
BRANCH  40  41
ATOM     41  C   UNL     1       5.702  -5.873  29.085  0.00  0.00    +0.000 C 
BRANCH  41  42
ATOM     42  C   UNL     1       4.620  -6.884  29.252  0.00  0.00    +0.000 C 
ATOM     43  O   UNL     1       4.195  -7.143  30.368  0.00  0.00    +0.000 OA
BRANCH  42  44
ATOM     44  O   UNL     1       4.114  -7.516  28.179  0.00  0.00    +0.000 OA
ATOM     45  H   UNL     1       4.120  -8.481  28.126  0.00  0.00    +0.000 HD
ENDBRANCH  42  44
ENDBRANCH  41  42
ENDBRANCH  40  41
ENDBRANCH  23  40
TORSDOF 8
ENDMDL
MODEL 4
REMARK VINA RESULT:      -5.5      3.564      7.470
REMARK  Name = 
REMARK  14 active torsions:
REMARK  status: ('A' for Active; 'I' for Inactive)
REMARK    1  A    between atoms: C_1  and  C_2
REMARK    2  A    between atoms: C_4  and  C_5
REMARK    3  A    between atoms: C_13  and  C_14
REMARK    4  A    between atoms: C_14  and  C_15
REMARK    5  A    between atoms: C_15  and  C_16
REMARK    6  A    between atoms: C_16  and  O_17
REMARK    7  A    between atoms: C_19  and  C_20
REMARK    8  A    between atoms: C_31  and  C_32
REMARK    9  A    between atoms: C_34  and  C_35
REMARK   10  A    between atoms: C_36  and  C_37
REMARK   11  A    between atoms: C_37  and  C_38
REMARK   12  A    between atoms: C_38  and  C_39
REMARK   13  A    between atoms: C_39  and  O_40
REMARK   14  A    between atoms: C_42  and  C_43
REMARK                            x       y       z     vdW  Elec       q    Type
REMARK                         _______ _______ _______ _____ _____    ______ ____
ROOT
ATOM      1  C   UNL     1       6.285  -6.357  21.528  0.00  0.00    +0.000 C 
ATOM      2  C   UNL     1       6.409  -5.476  22.924  0.00  0.00    +0.000 C 
ATOM      3  C   UNL     1       6.017  -4.437  24.125  0.00  0.00    +0.000 A 
ATOM      4  C   UNL     1       5.055  -3.301  25.168  0.00  0.00    +0.000 A 
ATOM      5  N   UNL     1       5.988  -2.351  25.257  0.00  0.00    +0.000 N 
ATOM      6 FE   UNL     1       5.351  -0.302  25.285  0.00  0.00    +0.000 Fe
ATOM      7  N   UNL     1       4.934   1.873  25.173  0.00  0.00    +0.000 N 
ATOM      8  C   UNL     1       4.256   2.830  25.785  0.00  0.00    +0.000 A 
ATOM      9  C   UNL     1       3.562   2.496  26.871  0.00  0.00    +0.000 C 
ATOM     10  C   UNL     1       3.307   1.232  27.192  0.00  0.00    +0.000 A 
ATOM     11  C   UNL     1       2.542   1.127  28.311  0.00  0.00    +0.000 A 
ATOM     12  C   UNL     1       2.055   2.297  29.204  0.00  0.00    +0.000 C 
ATOM     13  C   UNL     1       2.106   3.966  29.335  0.00  0.00    +0.000 C 
ATOM     14  C   UNL     1       2.385  -0.360  28.389  0.00  0.00    +0.000 A 
ATOM     15  C   UNL     1       1.461  -0.466  29.736  0.00  0.00    +0.000 C 
ATOM     16  C   UNL     1       3.236  -1.101  27.092  0.00  0.00    +0.000 A 
ATOM     17  C   UNL     1       4.575   4.135  25.337  0.00  0.00    +0.000 A 
ATOM     18  C   UNL     1       4.307   5.545  25.937  0.00  0.00    +0.000 C 
ATOM     19  C   UNL     1       5.313   3.879  24.220  0.00  0.00    +0.000 A 
ATOM     20  C   UNL     1       5.529   2.530  24.224  0.00  0.00    +0.000 A 
ATOM     21  C   UNL     1       6.270   1.706  23.445  0.00  0.00    +0.000 C 
ATOM     22  C   UNL     1       7.148   1.024  24.181  0.00  0.00    +0.000 A 
ATOM     23  C   UNL     1       7.660   1.165  25.538  0.00  0.00    +0.000 A 
ATOM     24  C   UNL     1       8.343  -0.008  25.805  0.00  0.00    +0.000 A 
ATOM     25  C   UNL     1       8.989  -0.628  27.059  0.00  0.00    +0.000 C 
ATOM     26  C   UNL     1       7.993  -0.804  24.771  0.00  0.00    +0.000 A 
ATOM     27  C   UNL     1       8.322  -2.064  24.874  0.00  0.00    +0.000 C 
ATOM     28  N   UNL     1       3.774  -0.004  26.570  0.00  0.00    +0.000 N 
ATOM     29  N   UNL     1       6.951  -0.215  24.087  0.00  0.00    +0.000 N 
ATOM     30  C   UNL     1       7.209  -2.867  24.884  0.00  0.00    +0.000 A 
ATOM     31  C   UNL     1       3.776  -2.591  25.956  0.00  0.00    +0.000 C 
ATOM     32  C   UNL     1       7.340  -4.175  24.645  0.00  0.00    +0.000 A 
ATOM     33  C   UNL     1       8.875  -4.924  24.515  0.00  0.00    +0.000 C 
ENDROOT
BRANCH  19  34
ATOM     34  C   UNL     1       5.869   4.754  23.193  0.00  0.00    +0.000 C 
BRANCH  34  35
ATOM     35  C   UNL     1       7.198   5.270  23.769  0.00  0.00    +0.000 C 
BRANCH  35  36
ATOM     36  C   UNL     1       7.983   5.979  22.729  0.00  0.00    +0.000 C 
ATOM     37  O   UNL     1       9.040   6.509  23.021  0.00  0.00    +0.000 OA
BRANCH  36  38
ATOM     38  O   UNL     1       7.501   6.073  21.471  0.00  0.00    +0.000 OA
ATOM     39  H   UNL     1       6.582   6.331  21.301  0.00  0.00    +0.000 HD
ENDBRANCH  36  38
ENDBRANCH  35  36
ENDBRANCH  34  35
ENDBRANCH  19  34
BRANCH  23  40
ATOM     40  C   UNL     1       7.099   2.027  26.665  0.00  0.00    +0.000 C 
BRANCH  40  41
ATOM     41  C   UNL     1       6.843   1.370  27.986  0.00  0.00    +0.000 C 
BRANCH  41  42
ATOM     42  C   UNL     1       6.783   2.359  29.100  0.00  0.00    +0.000 C 
ATOM     43  O   UNL     1       5.701   2.704  29.550  0.00  0.00    +0.000 OA
BRANCH  42  44
ATOM     44  O   UNL     1       7.916   2.876  29.607  0.00  0.00    +0.000 OA
ATOM     45  H   UNL     1       8.767   2.445  29.453  0.00  0.00    +0.000 HD
ENDBRANCH  42  44
ENDBRANCH  41  42
ENDBRANCH  40  41
ENDBRANCH  23  40
TORSDOF 8
ENDMDL
MODEL 5
REMARK VINA RESULT:      -4.7      3.842      7.808
REMARK  Name = 
REMARK  14 active torsions:
REMARK  status: ('A' for Active; 'I' for Inactive)
REMARK    1  A    between atoms: C_1  and  C_2
REMARK    2  A    between atoms: C_4  and  C_5
REMARK    3  A    between atoms: C_13  and  C_14
REMARK    4  A    between atoms: C_14  and  C_15
REMARK    5  A    between atoms: C_15  and  C_16
REMARK    6  A    between atoms: C_16  and  O_17
REMARK    7  A    between atoms: C_19  and  C_20
REMARK    8  A    between atoms: C_31  and  C_32
REMARK    9  A    between atoms: C_34  and  C_35
REMARK   10  A    between atoms: C_36  and  C_37
REMARK   11  A    between atoms: C_37  and  C_38
REMARK   12  A    between atoms: C_38  and  C_39
REMARK   13  A    between atoms: C_39  and  O_40
REMARK   14  A    between atoms: C_42  and  C_43
REMARK                            x       y       z     vdW  Elec       q    Type
REMARK                         _______ _______ _______ _____ _____    ______ ____
ROOT
ATOM      1  C   UNL     1       6.094  -6.028  21.307  0.00  0.00    +0.000 C 
ATOM      2  C   UNL     1       6.202  -5.243  22.760  0.00  0.00    +0.000 C 
ATOM      3  C   UNL     1       5.780  -4.320  24.043  0.00  0.00    +0.000 A 
ATOM      4  C   UNL     1       4.778  -3.324  25.187  0.00  0.00    +0.000 A 
ATOM      5  N   UNL     1       5.654  -2.326  25.325  0.00  0.00    +0.000 N 
ATOM      6 FE   UNL     1       4.896  -0.328  25.517  0.00  0.00    +0.000 Fe
ATOM      7  N   UNL     1       4.344   1.819  25.574  0.00  0.00    +0.000 N 
ATOM      8  C   UNL     1       3.626   2.685  26.270  0.00  0.00    +0.000 A 
ATOM      9  C   UNL     1       2.983   2.232  27.343  0.00  0.00    +0.000 C 
ATOM     10  C   UNL     1       2.813   0.934  27.576  0.00  0.00    +0.000 A 
ATOM     11  C   UNL     1       2.086   0.702  28.701  0.00  0.00    +0.000 A 
ATOM     12  C   UNL     1       1.552   1.773  29.687  0.00  0.00    +0.000 C 
ATOM     13  C   UNL     1       1.506   3.428  29.940  0.00  0.00    +0.000 C 
ATOM     14  C   UNL     1       2.021  -0.793  28.673  0.00  0.00    +0.000 A 
ATOM     15  C   UNL     1       1.141  -1.054  30.029  0.00  0.00    +0.000 C 
ATOM     16  C   UNL     1       2.881  -1.385  27.307  0.00  0.00    +0.000 A 
ATOM     17  C   UNL     1       3.854   4.036  25.912  0.00  0.00    +0.000 A 
ATOM     18  C   UNL     1       3.517   5.380  26.619  0.00  0.00    +0.000 C 
ATOM     19  C   UNL     1       4.576   3.908  24.762  0.00  0.00    +0.000 A 
ATOM     20  C   UNL     1       4.873   2.578  24.663  0.00  0.00    +0.000 A 
ATOM     21  C   UNL     1       5.642   1.860  23.810  0.00  0.00    +0.000 C 
ATOM     22  C   UNL     1       6.579   1.183  24.474  0.00  0.00    +0.000 A 
ATOM     23  C   UNL     1       7.117   1.258  25.826  0.00  0.00    +0.000 A 
ATOM     24  C   UNL     1       7.877   0.114  25.991  0.00  0.00    +0.000 A 
ATOM     25  C   UNL     1       8.592  -0.553  27.182  0.00  0.00    +0.000 C 
ATOM     26  C   UNL     1       7.548  -0.627  24.910  0.00  0.00    +0.000 A 
ATOM     27  C   UNL     1       7.956  -1.868  24.913  0.00  0.00    +0.000 C 
ATOM     28  N   UNL     1       3.337  -0.222  26.855  0.00  0.00    +0.000 N 
ATOM     29  N   UNL     1       6.454  -0.056  24.294  0.00  0.00    +0.000 N 
ATOM     30  C   UNL     1       6.894  -2.737  24.888  0.00  0.00    +0.000 A 
ATOM     31  C   UNL     1       3.480  -2.753  26.053  0.00  0.00    +0.000 C 
ATOM     32  C   UNL     1       7.097  -4.013  24.551  0.00  0.00    +0.000 A 
ATOM     33  C   UNL     1       8.671  -4.655  24.333  0.00  0.00    +0.000 C 
ENDROOT
BRANCH  19  34
ATOM     34  C   UNL     1       5.051   4.887  23.790  0.00  0.00    +0.000 C 
BRANCH  34  35
ATOM     35  C   UNL     1       3.933   4.996  22.739  0.00  0.00    +0.000 C 
BRANCH  35  36
ATOM     36  C   UNL     1       3.747   6.405  22.314  0.00  0.00    +0.000 C 
ATOM     37  O   UNL     1       2.812   7.054  22.751  0.00  0.00    +0.000 OA
BRANCH  36  38
ATOM     38  O   UNL     1       4.587   6.951  21.409  0.00  0.00    +0.000 OA
ATOM     39  H   UNL     1       4.269   7.572  20.735  0.00  0.00    +0.000 HD
ENDBRANCH  36  38
ENDBRANCH  35  36
ENDBRANCH  34  35
ENDBRANCH  19  34
BRANCH  23  40
ATOM     40  C   UNL     1       6.535   2.000  27.025  0.00  0.00    +0.000 C 
BRANCH  40  41
ATOM     41  C   UNL     1       7.150   3.313  27.400  0.00  0.00    +0.000 C 
BRANCH  41  42
ATOM     42  C   UNL     1       6.686   3.787  28.735  0.00  0.00    +0.000 C 
ATOM     43  O   UNL     1       5.632   3.376  29.195  0.00  0.00    +0.000 OA
BRANCH  42  44
ATOM     44  O   UNL     1       7.422   4.670  29.432  0.00  0.00    +0.000 OA
ATOM     45  H   UNL     1       8.199   4.382  29.930  0.00  0.00    +0.000 HD
ENDBRANCH  42  44
ENDBRANCH  41  42
ENDBRANCH  40  41
ENDBRANCH  23  40
TORSDOF 8
ENDMDL
MODEL 6
REMARK VINA RESULT:      -3.8      2.800      6.289
REMARK  Name = 
REMARK  14 active torsions:
REMARK  status: ('A' for Active; 'I' for Inactive)
REMARK    1  A    between atoms: C_1  and  C_2
REMARK    2  A    between atoms: C_4  and  C_5
REMARK    3  A    between atoms: C_13  and  C_14
REMARK    4  A    between atoms: C_14  and  C_15
REMARK    5  A    between atoms: C_15  and  C_16
REMARK    6  A    between atoms: C_16  and  O_17
REMARK    7  A    between atoms: C_19  and  C_20
REMARK    8  A    between atoms: C_31  and  C_32
REMARK    9  A    between atoms: C_34  and  C_35
REMARK   10  A    between atoms: C_36  and  C_37
REMARK   11  A    between atoms: C_37  and  C_38
REMARK   12  A    between atoms: C_38  and  C_39
REMARK   13  A    between atoms: C_39  and  O_40
REMARK   14  A    between atoms: C_42  and  C_43
REMARK                            x       y       z     vdW  Elec       q    Type
REMARK                         _______ _______ _______ _____ _____    ______ ____
ROOT
ATOM      1  C   UNL     1      10.054   3.824  22.547  0.00  0.00    +0.000 C 
ATOM      2  C   UNL     1       9.935   2.216  22.918  0.00  0.00    +0.000 C 
ATOM      3  C   UNL     1       9.343   0.693  22.979  0.00  0.00    +0.000 A 
ATOM      4  C   UNL     1       8.304  -0.761  22.645  0.00  0.00    +0.000 A 
ATOM      5  N   UNL     1       8.138  -1.124  23.919  0.00  0.00    +0.000 N 
ATOM      6 FE   UNL     1       6.245  -1.947  24.502  0.00  0.00    +0.000 Fe
ATOM      7  N   UNL     1       4.331  -2.672  25.356  0.00  0.00    +0.000 N 
ATOM      8  C   UNL     1       3.439  -3.639  25.225  0.00  0.00    +0.000 A 
ATOM      9  C   UNL     1       3.674  -4.574  24.308  0.00  0.00    +0.000 C 
ATOM     10  C   UNL     1       4.596  -4.427  23.361  0.00  0.00    +0.000 A 
ATOM     11  C   UNL     1       4.631  -5.482  22.504  0.00  0.00    +0.000 A 
ATOM     12  C   UNL     1       3.780  -6.775  22.604  0.00  0.00    +0.000 C 
ATOM     13  C   UNL     1       2.593  -7.505  23.534  0.00  0.00    +0.000 C 
ATOM     14  C   UNL     1       5.692  -5.021  21.555  0.00  0.00    +0.000 A 
ATOM     15  C   UNL     1       5.717  -6.299  20.532  0.00  0.00    +0.000 C 
ATOM     16  C   UNL     1       6.284  -3.485  22.050  0.00  0.00    +0.000 A 
ATOM     17  C   UNL     1       2.479  -3.679  26.265  0.00  0.00    +0.000 A 
ATOM     18  C   UNL     1       1.469  -4.772  26.720  0.00  0.00    +0.000 C 
ATOM     19  C   UNL     1       2.702  -2.495  26.903  0.00  0.00    +0.000 A 
ATOM     20  C   UNL     1       3.842  -1.988  26.347  0.00  0.00    +0.000 A 
ATOM     21  C   UNL     1       4.613  -0.910  26.629  0.00  0.00    +0.000 C 
ATOM     22  C   UNL     1       5.871  -1.279  26.872  0.00  0.00    +0.000 A 
ATOM     23  C   UNL     1       6.515  -2.552  27.169  0.00  0.00    +0.000 A 
ATOM     24  C   UNL     1       7.874  -2.320  27.055  0.00  0.00    +0.000 A 
ATOM     25  C   UNL     1       9.132  -3.210  27.063  0.00  0.00    +0.000 C 
ATOM     26  C   UNL     1       7.926  -1.095  26.488  0.00  0.00    +0.000 A 
ATOM     27  C   UNL     1       9.096  -0.704  26.060  0.00  0.00    +0.000 C 
ATOM     28  N   UNL     1       5.577  -3.363  23.168  0.00  0.00    +0.000 N 
ATOM     29  N   UNL     1       6.664  -0.752  26.050  0.00  0.00    +0.000 N 
ATOM     30  C   UNL     1       9.084  -0.500  24.703  0.00  0.00    +0.000 A 
ATOM     31  C   UNL     1       7.322  -1.845  21.857  0.00  0.00    +0.000 C 
ATOM     32  C   UNL     1      10.062   0.210  24.136  0.00  0.00    +0.000 A 
ATOM     33  C   UNL     1      11.442   0.717  25.015  0.00  0.00    +0.000 C 
ENDROOT
BRANCH  19  34
ATOM     34  C   UNL     1       2.000  -1.823  27.992  0.00  0.00    +0.000 C 
BRANCH  34  35
ATOM     35  C   UNL     1       0.878  -1.014  27.319  0.00  0.00    +0.000 C 
BRANCH  35  36
ATOM     36  C   UNL     1       1.139   0.442  27.433  0.00  0.00    +0.000 C 
ATOM     37  O   UNL     1       0.834   1.036  28.452  0.00  0.00    +0.000 OA
BRANCH  36  38
ATOM     38  O   UNL     1       1.672   1.113  26.389  0.00  0.00    +0.000 OA
ATOM     39  H   UNL     1       1.644   0.752  25.490  0.00  0.00    +0.000 HD
ENDBRANCH  36  38
ENDBRANCH  35  36
ENDBRANCH  34  35
ENDBRANCH  19  34
BRANCH  23  40
ATOM     40  C   UNL     1       5.936  -3.955  27.005  0.00  0.00    +0.000 C 
BRANCH  40  41
ATOM     41  C   UNL     1       5.654  -4.744  28.245  0.00  0.00    +0.000 C 
BRANCH  41  42
ATOM     42  C   UNL     1       6.349  -6.063  28.239  0.00  0.00    +0.000 C 
ATOM     43  O   UNL     1       5.766  -7.060  28.637  0.00  0.00    +0.000 OA
BRANCH  42  44
ATOM     44  O   UNL     1       7.617  -6.156  27.803  0.00  0.00    +0.000 OA
ATOM     45  H   UNL     1       8.357  -5.946  28.388  0.00  0.00    +0.000 HD
ENDBRANCH  42  44
ENDBRANCH  41  42
ENDBRANCH  40  41
ENDBRANCH  23  40
TORSDOF 8
ENDMDL
MODEL 7
REMARK VINA RESULT:      -3.8      1.486      2.027
REMARK  Name = 
REMARK  14 active torsions:
REMARK  status: ('A' for Active; 'I' for Inactive)
REMARK    1  A    between atoms: C_1  and  C_2
REMARK    2  A    between atoms: C_4  and  C_5
REMARK    3  A    between atoms: C_13  and  C_14
REMARK    4  A    between atoms: C_14  and  C_15
REMARK    5  A    between atoms: C_15  and  C_16
REMARK    6  A    between atoms: C_16  and  O_17
REMARK    7  A    between atoms: C_19  and  C_20
REMARK    8  A    between atoms: C_31  and  C_32
REMARK    9  A    between atoms: C_34  and  C_35
REMARK   10  A    between atoms: C_36  and  C_37
REMARK   11  A    between atoms: C_37  and  C_38
REMARK   12  A    between atoms: C_38  and  C_39
REMARK   13  A    between atoms: C_39  and  O_40
REMARK   14  A    between atoms: C_42  and  C_43
REMARK                            x       y       z     vdW  Elec       q    Type
REMARK                         _______ _______ _______ _____ _____    ______ ____
ROOT
ATOM      1  C   UNL     1       9.420   5.784  24.868  0.00  0.00    +0.000 C 
ATOM      2  C   UNL     1       8.237   4.701  24.460  0.00  0.00    +0.000 C 
ATOM      3  C   UNL     1       7.053   3.585  24.624  0.00  0.00    +0.000 A 
ATOM      4  C   UNL     1       5.810   2.498  25.385  0.00  0.00    +0.000 A 
ATOM      5  N   UNL     1       6.142   1.394  24.712  0.00  0.00    +0.000 N 
ATOM      6 FE   UNL     1       6.023  -0.490  25.730  0.00  0.00    +0.000 Fe
ATOM      7  N   UNL     1       6.124  -2.516  26.626  0.00  0.00    +0.000 N 
ATOM      8  C   UNL     1       5.374  -3.416  27.239  0.00  0.00    +0.000 A 
ATOM      9  C   UNL     1       4.087  -3.126  27.419  0.00  0.00    +0.000 C 
ATOM     10  C   UNL     1       3.606  -1.897  27.262  0.00  0.00    +0.000 A 
ATOM     11  C   UNL     1       2.278  -1.822  27.545  0.00  0.00    +0.000 A 
ATOM     12  C   UNL     1       1.353  -3.004  27.933  0.00  0.00    +0.000 C 
ATOM     13  C   UNL     1       1.368  -4.657  28.205  0.00  0.00    +0.000 C 
ATOM     14  C   UNL     1       2.042  -0.359  27.335  0.00  0.00    +0.000 A 
ATOM     15  C   UNL     1       0.444  -0.287  27.683  0.00  0.00    +0.000 C 
ATOM     16  C   UNL     1       3.507   0.400  26.851  0.00  0.00    +0.000 A 
ATOM     17  C   UNL     1       5.999  -4.678  27.390  0.00  0.00    +0.000 A 
ATOM     18  C   UNL     1       5.444  -6.090  27.734  0.00  0.00    +0.000 C 
ATOM     19  C   UNL     1       7.290  -4.397  27.053  0.00  0.00    +0.000 A 
ATOM     20  C   UNL     1       7.271  -3.123  26.560  0.00  0.00    +0.000 A 
ATOM     21  C   UNL     1       8.209  -2.339  25.976  0.00  0.00    +0.000 C 
ATOM     22  C   UNL     1       7.807  -1.939  24.770  0.00  0.00    +0.000 A 
ATOM     23  C   UNL     1       6.752  -2.365  23.860  0.00  0.00    +0.000 A 
ATOM     24  C   UNL     1       6.676  -1.384  22.888  0.00  0.00    +0.000 A 
ATOM     25  C   UNL     1       5.711  -1.079  21.725  0.00  0.00    +0.000 C 
ATOM     26  C   UNL     1       7.446  -0.396  23.394  0.00  0.00    +0.000 A 
ATOM     27  C   UNL     1       7.385   0.756  22.782  0.00  0.00    +0.000 C 
ATOM     28  N   UNL     1       4.268  -0.687  26.784  0.00  0.00    +0.000 N 
ATOM     29  N   UNL     1       7.733  -0.684  24.711  0.00  0.00    +0.000 N 
ATOM     30  C   UNL     1       6.905   1.734  23.617  0.00  0.00    +0.000 A 
ATOM     31  C   UNL     1       4.654   1.920  26.430  0.00  0.00    +0.000 C 
ATOM     32  C   UNL     1       7.082   3.018  23.295  0.00  0.00    +0.000 A 
ATOM     33  C   UNL     1       7.720   3.494  21.778  0.00  0.00    +0.000 C 
ENDROOT
BRANCH  19  34
ATOM     34  C   UNL     1       8.509  -5.198  27.097  0.00  0.00    +0.000 C 
BRANCH  34  35
ATOM     35  C   UNL     1       8.494  -6.038  25.809  0.00  0.00    +0.000 C 
BRANCH  35  36
ATOM     36  C   UNL     1       9.255  -5.361  24.730  0.00  0.00    +0.000 C 
ATOM     37  O   UNL     1       8.732  -5.169  23.646  0.00  0.00    +0.000 OA
BRANCH  36  38
ATOM     38  O   UNL     1      10.539  -4.999  24.938  0.00  0.00    +0.000 OA
ATOM     39  H   UNL     1      10.808  -4.533  25.745  0.00  0.00    +0.000 HD
ENDBRANCH  36  38
ENDBRANCH  35  36
ENDBRANCH  34  35
ENDBRANCH  19  34
BRANCH  23  40
ATOM     40  C   UNL     1       5.561  -3.269  24.165  0.00  0.00    +0.000 C 
BRANCH  40  41
ATOM     41  C   UNL     1       5.050  -4.148  23.066  0.00  0.00    +0.000 C 
BRANCH  41  42
ATOM     42  C   UNL     1       5.388  -5.582  23.295  0.00  0.00    +0.000 C 
ATOM     43  O   UNL     1       4.759  -6.233  24.115  0.00  0.00    +0.000 OA
BRANCH  42  44
ATOM     44  O   UNL     1       6.387  -6.159  22.604  0.00  0.00    +0.000 OA
ATOM     45  H   UNL     1       7.083  -6.650  23.060  0.00  0.00    +0.000 HD
ENDBRANCH  42  44
ENDBRANCH  41  42
ENDBRANCH  40  41
ENDBRANCH  23  40
TORSDOF 8
ENDMDL
MODEL 8
REMARK VINA RESULT:      -3.8      2.338      3.403
REMARK  Name = 
REMARK  14 active torsions:
REMARK  status: ('A' for Active; 'I' for Inactive)
REMARK    1  A    between atoms: C_1  and  C_2
REMARK    2  A    between atoms: C_4  and  C_5
REMARK    3  A    between atoms: C_13  and  C_14
REMARK    4  A    between atoms: C_14  and  C_15
REMARK    5  A    between atoms: C_15  and  C_16
REMARK    6  A    between atoms: C_16  and  O_17
REMARK    7  A    between atoms: C_19  and  C_20
REMARK    8  A    between atoms: C_31  and  C_32
REMARK    9  A    between atoms: C_34  and  C_35
REMARK   10  A    between atoms: C_36  and  C_37
REMARK   11  A    between atoms: C_37  and  C_38
REMARK   12  A    between atoms: C_38  and  C_39
REMARK   13  A    between atoms: C_39  and  O_40
REMARK   14  A    between atoms: C_42  and  C_43
REMARK                            x       y       z     vdW  Elec       q    Type
REMARK                         _______ _______ _______ _____ _____    ______ ____
ROOT
ATOM      1  C   UNL     1      11.661   3.082  23.498  0.00  0.00    +0.000 C 
ATOM      2  C   UNL     1      10.137   2.459  23.334  0.00  0.00    +0.000 C 
ATOM      3  C   UNL     1       8.629   1.964  23.728  0.00  0.00    +0.000 A 
ATOM      4  C   UNL     1       7.108   1.681  24.683  0.00  0.00    +0.000 A 
ATOM      5  N   UNL     1       6.963   0.394  24.359  0.00  0.00    +0.000 N 
ATOM      6 FE   UNL     1       6.194  -0.946  25.847  0.00  0.00    +0.000 Fe
ATOM      7  N   UNL     1       5.568  -2.529  27.268  0.00  0.00    +0.000 N 
ATOM      8  C   UNL     1       4.565  -2.873  28.059  0.00  0.00    +0.000 A 
ATOM      9  C   UNL     1       3.495  -2.082  28.077  0.00  0.00    +0.000 C 
ATOM     10  C   UNL     1       3.506  -0.857  27.561  0.00  0.00    +0.000 A 
ATOM     11  C   UNL     1       2.322  -0.212  27.734  0.00  0.00    +0.000 A 
ATOM     12  C   UNL     1       1.040  -0.802  28.377  0.00  0.00    +0.000 C 
ATOM     13  C   UNL     1       0.443  -2.194  29.092  0.00  0.00    +0.000 C 
ATOM     14  C   UNL     1       2.646   1.113  27.118  0.00  0.00    +0.000 A 
ATOM     15  C   UNL     1       1.214   1.875  27.338  0.00  0.00    +0.000 C 
ATOM     16  C   UNL     1       4.263   1.098  26.530  0.00  0.00    +0.000 A 
ATOM     17  C   UNL     1       4.674  -4.183  28.587  0.00  0.00    +0.000 A 
ATOM     18  C   UNL     1       3.644  -5.127  29.272  0.00  0.00    +0.000 C 
ATOM     19  C   UNL     1       5.956  -4.514  28.262  0.00  0.00    +0.000 A 
ATOM     20  C   UNL     1       6.395  -3.517  27.438  0.00  0.00    +0.000 A 
ATOM     21  C   UNL     1       7.528  -3.338  26.718  0.00  0.00    +0.000 C 
ATOM     22  C   UNL     1       7.245  -3.165  25.427  0.00  0.00    +0.000 A 
ATOM     23  C   UNL     1       6.061  -3.395  24.608  0.00  0.00    +0.000 A 
ATOM     24  C   UNL     1       6.313  -2.767  23.402  0.00  0.00    +0.000 A 
ATOM     25  C   UNL     1       5.476  -2.453  22.146  0.00  0.00    +0.000 C 
ATOM     26  C   UNL     1       7.424  -2.044  23.661  0.00  0.00    +0.000 A 
ATOM     27  C   UNL     1       7.771  -1.171  22.755  0.00  0.00    +0.000 C 
ATOM     28  N   UNL     1       4.551  -0.168  26.809  0.00  0.00    +0.000 N 
ATOM     29  N   UNL     1       7.648  -2.044  25.022  0.00  0.00    +0.000 N 
ATOM     30  C   UNL     1       7.741   0.105  23.260  0.00  0.00    +0.000 A 
ATOM     31  C   UNL     1       5.876   1.893  25.777  0.00  0.00    +0.000 C 
ATOM     32  C   UNL     1       8.374   1.085  22.609  0.00  0.00    +0.000 A 
ATOM     33  C   UNL     1       9.065   0.847  21.060  0.00  0.00    +0.000 C 
ENDROOT
BRANCH  19  34
ATOM     34  C   UNL     1       6.782  -5.670  28.595  0.00  0.00    +0.000 C 
BRANCH  34  35
ATOM     35  C   UNL     1       5.895  -6.898  28.330  0.00  0.00    +0.000 C 
BRANCH  35  36
ATOM     36  C   UNL     1       5.432  -6.918  26.921  0.00  0.00    +0.000 C 
ATOM     37  O   UNL     1       6.186  -6.573  26.028  0.00  0.00    +0.000 OA
BRANCH  36  38
ATOM     38  O   UNL     1       4.161  -7.274  26.636  0.00  0.00    +0.000 OA
ATOM     39  H   UNL     1       3.407  -6.825  27.048  0.00  0.00    +0.000 HD
ENDBRANCH  36  38
ENDBRANCH  35  36
ENDBRANCH  34  35
ENDBRANCH  19  34
BRANCH  23  40
ATOM     40  C   UNL     1       4.635  -3.661  25.080  0.00  0.00    +0.000 C 
BRANCH  40  41
ATOM     41  C   UNL     1       3.698  -4.335  24.126  0.00  0.00    +0.000 C 
BRANCH  41  42
ATOM     42  C   UNL     1       2.434  -4.761  24.791  0.00  0.00    +0.000 C 
ATOM     43  O   UNL     1       2.444  -5.086  25.969  0.00  0.00    +0.000 OA
BRANCH  42  44
ATOM     44  O   UNL     1       1.283  -4.794  24.097  0.00  0.00    +0.000 OA
ATOM     45  H   UNL     1       1.277  -4.632  23.144  0.00  0.00    +0.000 HD
ENDBRANCH  42  44
ENDBRANCH  41  42
ENDBRANCH  40  41
ENDBRANCH  23  40
TORSDOF 8
ENDMDL
