MODEL 1
REMARK VINA RESULT:      -4.6      0.000      0.000
REMARK  Name = 
REMARK  5 active torsions:
REMARK  status: ('A' for Active; 'I' for Inactive)
REMARK    1  A    between atoms: C_1  and  C_2
REMARK    2  A    between atoms: C_5  and  O_7
REMARK    3  A    between atoms: C_8  and  O_10
REMARK    4  A    between atoms: C_11  and  O_13
REMARK    5  A    between atoms: C_14  and  O_16
REMARK                            x       y       z     vdW  Elec       q    Type
REMARK                         _______ _______ _______ _____ _____    ______ ____
ROOT
ATOM      1  C   UNL     1       8.444   3.837  23.190  0.00  0.00    +0.041 C 
ATOM      2  C   UNL     1       8.515   2.322  23.327  0.00  0.00    +0.149 C 
ATOM      3  C   UNL     1       8.879   1.631  21.997  0.00  0.00    +0.174 C 
ATOM      4  C   UNL     1       9.053   0.128  22.219  0.00  0.00    +0.179 C 
ATOM      5  C   UNL     1      10.001  -0.159  23.384  0.00  0.00    +0.201 C 
ATOM      6  C   UNL     1       9.560   0.638  24.620  0.00  0.00    +0.279 C 
ATOM      7  O   UNL     1       9.473   2.026  24.358  0.00  0.00    -0.343 OA
ENDROOT
BRANCH   3   8
ATOM      8  O   UNL     1      10.095   2.161  21.455  0.00  0.00    -0.387 OA
ATOM      9  H   UNL     1      10.108   1.864  20.522  0.00  0.00    +0.210 HD
ENDBRANCH   3   8
BRANCH   4  10
ATOM     10  O   UNL     1       9.568  -0.472  21.017  0.00  0.00    -0.386 OA
ATOM     11  H   UNL     1      10.522  -0.613  21.189  0.00  0.00    +0.210 HD
ENDBRANCH   4  10
BRANCH   5  12
ATOM     12  O   UNL     1       9.976  -1.574  23.650  0.00  0.00    -0.384 OA
ATOM     13  H   UNL     1       9.091  -1.871  23.353  0.00  0.00    +0.210 HD
ENDBRANCH   5  12
BRANCH   6  14
ATOM     14  O   UNL     1      10.525   0.443  25.645  0.00  0.00    -0.365 OA
ATOM     15  H   UNL     1      11.289   0.079  25.163  0.00  0.00    +0.213 HD
ENDBRANCH   6  14
TORSDOF 4
ENDMDL
MODEL 2
REMARK VINA RESULT:      -4.5      1.159      3.797
REMARK  Name = 
REMARK  5 active torsions:
REMARK  status: ('A' for Active; 'I' for Inactive)
REMARK    1  A    between atoms: C_1  and  C_2
REMARK    2  A    between atoms: C_5  and  O_7
REMARK    3  A    between atoms: C_8  and  O_10
REMARK    4  A    between atoms: C_11  and  O_13
REMARK    5  A    between atoms: C_14  and  O_16
REMARK                            x       y       z     vdW  Elec       q    Type
REMARK                         _______ _______ _______ _____ _____    ______ ____
ROOT
ATOM      1  C   UNL     1       8.647  -1.586  25.582  0.00  0.00    +0.041 C 
ATOM      2  C   UNL     1       8.593  -0.545  24.472  0.00  0.00    +0.149 C 
ATOM      3  C   UNL     1       9.292   0.771  24.870  0.00  0.00    +0.174 C 
ATOM      4  C   UNL     1       9.312   1.733  23.681  0.00  0.00    +0.179 C 
ATOM      5  C   UNL     1       9.862   1.057  22.424  0.00  0.00    +0.201 C 
ATOM      6  C   UNL     1       9.123  -0.268  22.183  0.00  0.00    +0.279 C 
ATOM      7  O   UNL     1       9.191  -1.130  23.303  0.00  0.00    -0.343 OA
ENDROOT
BRANCH   3   8
ATOM      8  O   UNL     1      10.639   0.533  25.294  0.00  0.00    -0.387 OA
ATOM      9  H   UNL     1      10.733  -0.442  25.308  0.00  0.00    +0.210 HD
ENDBRANCH   3   8
BRANCH   4  10
ATOM     10  O   UNL     1      10.123   2.875  24.010  0.00  0.00    -0.386 OA
ATOM     11  H   UNL     1       9.495   3.543  24.356  0.00  0.00    +0.210 HD
ENDBRANCH   4  10
BRANCH   5  12
ATOM     12  O   UNL     1       9.684   1.954  21.313  0.00  0.00    -0.384 OA
ATOM     13  H   UNL     1      10.587   2.264  21.091  0.00  0.00    +0.210 HD
ENDBRANCH   5  12
BRANCH   6  14
ATOM     14  O   UNL     1       9.734  -0.925  21.082  0.00  0.00    -0.365 OA
ATOM     15  H   UNL     1      10.458  -1.426  21.497  0.00  0.00    +0.213 HD
ENDBRANCH   6  14
TORSDOF 4
ENDMDL
MODEL 3
REMARK VINA RESULT:      -4.5      4.507      5.994
REMARK  Name = 
REMARK  5 active torsions:
REMARK  status: ('A' for Active; 'I' for Inactive)
REMARK    1  A    between atoms: C_1  and  C_2
REMARK    2  A    between atoms: C_5  and  O_7
REMARK    3  A    between atoms: C_8  and  O_10
REMARK    4  A    between atoms: C_11  and  O_13
REMARK    5  A    between atoms: C_14  and  O_16
REMARK                            x       y       z     vdW  Elec       q    Type
REMARK                         _______ _______ _______ _____ _____    ______ ____
ROOT
ATOM      1  C   UNL     1       9.324  -2.071  22.964  0.00  0.00    +0.041 C 
ATOM      2  C   UNL     1       8.893  -2.827  24.214  0.00  0.00    +0.149 C 
ATOM      3  C   UNL     1       7.446  -3.349  24.111  0.00  0.00    +0.174 C 
ATOM      4  C   UNL     1       7.108  -4.198  25.338  0.00  0.00    +0.179 C 
ATOM      5  C   UNL     1       8.172  -5.268  25.587  0.00  0.00    +0.201 C 
ATOM      6  C   UNL     1       9.565  -4.621  25.602  0.00  0.00    +0.279 C 
ATOM      7  O   UNL     1       9.831  -3.897  24.415  0.00  0.00    -0.343 OA
ENDROOT
BRANCH   3   8
ATOM      8  O   UNL     1       7.267  -4.147  22.935  0.00  0.00    -0.387 OA
ATOM      9  H   UNL     1       6.642  -3.640  22.377  0.00  0.00    +0.210 HD
ENDBRANCH   3   8
BRANCH   4  10
ATOM     10  O   UNL     1       5.828  -4.825  25.142  0.00  0.00    -0.386 OA
ATOM     11  H   UNL     1       5.182  -4.227  25.572  0.00  0.00    +0.210 HD
ENDBRANCH   4  10
BRANCH   5  12
ATOM     12  O   UNL     1       7.888  -5.903  26.847  0.00  0.00    -0.384 OA
ATOM     13  H   UNL     1       8.672  -5.721  27.405  0.00  0.00    +0.210 HD
ENDBRANCH   5  12
BRANCH   6  14
ATOM     14  O   UNL     1      10.535  -5.652  25.717  0.00  0.00    -0.365 OA
ATOM     15  H   UNL     1      11.178  -5.429  25.022  0.00  0.00    +0.213 HD
ENDBRANCH   6  14
TORSDOF 4
ENDMDL
MODEL 4
REMARK VINA RESULT:      -4.4      4.599      5.853
REMARK  Name = 
REMARK  5 active torsions:
REMARK  status: ('A' for Active; 'I' for Inactive)
REMARK    1  A    between atoms: C_1  and  C_2
REMARK    2  A    between atoms: C_5  and  O_7
REMARK    3  A    between atoms: C_8  and  O_10
REMARK    4  A    between atoms: C_11  and  O_13
REMARK    5  A    between atoms: C_14  and  O_16
REMARK                            x       y       z     vdW  Elec       q    Type
REMARK                         _______ _______ _______ _____ _____    ______ ____
ROOT
ATOM      1  C   UNL     1       5.798  -2.119  26.002  0.00  0.00    +0.041 C 
ATOM      2  C   UNL     1       6.720  -3.230  25.516  0.00  0.00    +0.149 C 
ATOM      3  C   UNL     1       7.996  -2.680  24.848  0.00  0.00    +0.174 C 
ATOM      4  C   UNL     1       8.936  -3.832  24.489  0.00  0.00    +0.179 C 
ATOM      5  C   UNL     1       9.172  -4.756  25.685  0.00  0.00    +0.201 C 
ATOM      6  C   UNL     1       7.824  -5.175  26.289  0.00  0.00    +0.279 C 
ATOM      7  O   UNL     1       7.029  -4.060  26.649  0.00  0.00    -0.343 OA
ENDROOT
BRANCH   3   8
ATOM      8  O   UNL     1       8.687  -1.776  25.719  0.00  0.00    -0.387 OA
ATOM      9  H   UNL     1       8.014  -1.483  26.366  0.00  0.00    +0.210 HD
ENDBRANCH   3   8
BRANCH   4  10
ATOM     10  O   UNL     1      10.192  -3.295  24.037  0.00  0.00    -0.386 OA
ATOM     11  H   UNL     1       9.973  -2.424  23.647  0.00  0.00    +0.210 HD
ENDBRANCH   4  10
BRANCH   5  12
ATOM     12  O   UNL     1       9.910  -5.905  25.231  0.00  0.00    -0.384 OA
ATOM     13  H   UNL     1       9.824  -6.562  25.952  0.00  0.00    +0.210 HD
ENDBRANCH   5  12
BRANCH   6  14
ATOM     14  O   UNL     1       8.079  -5.932  27.464  0.00  0.00    -0.365 OA
ATOM     15  H   UNL     1       9.049  -5.920  27.530  0.00  0.00    +0.213 HD
ENDBRANCH   6  14
TORSDOF 4
ENDMDL
MODEL 5
REMARK VINA RESULT:      -4.4      1.344      3.108
REMARK  Name = 
REMARK  5 active torsions:
REMARK  status: ('A' for Active; 'I' for Inactive)
REMARK    1  A    between atoms: C_1  and  C_2
REMARK    2  A    between atoms: C_5  and  O_7
REMARK    3  A    between atoms: C_8  and  O_10
REMARK    4  A    between atoms: C_11  and  O_13
REMARK    5  A    between atoms: C_14  and  O_16
REMARK                            x       y       z     vdW  Elec       q    Type
REMARK                         _______ _______ _______ _____ _____    ______ ____
ROOT
ATOM      1  C   UNL     1       9.049  -0.902  26.019  0.00  0.00    +0.041 C 
ATOM      2  C   UNL     1       9.717  -0.155  24.872  0.00  0.00    +0.149 C 
ATOM      3  C   UNL     1       9.415  -0.796  23.503  0.00  0.00    +0.174 C 
ATOM      4  C   UNL     1      10.009   0.059  22.382  0.00  0.00    +0.179 C 
ATOM      5  C   UNL     1       9.600   1.526  22.521  0.00  0.00    +0.201 C 
ATOM      6  C   UNL     1       9.898   2.015  23.946  0.00  0.00    +0.279 C 
ATOM      7  O   UNL     1       9.272   1.211  24.929  0.00  0.00    -0.343 OA
ENDROOT
BRANCH   3   8
ATOM      8  O   UNL     1       8.003  -0.918  23.289  0.00  0.00    -0.387 OA
ATOM      9  H   UNL     1       7.905  -1.087  22.330  0.00  0.00    +0.210 HD
ENDBRANCH   3   8
BRANCH   4  10
ATOM     10  O   UNL     1       9.565  -0.449  21.112  0.00  0.00    -0.386 OA
ATOM     11  H   UNL     1      10.184  -0.071  20.454  0.00  0.00    +0.210 HD
ENDBRANCH   4  10
BRANCH   5  12
ATOM     12  O   UNL     1      10.334   2.295  21.551  0.00  0.00    -0.384 OA
ATOM     13  H   UNL     1      10.113   3.229  21.748  0.00  0.00    +0.210 HD
ENDBRANCH   5  12
BRANCH   6  14
ATOM     14  O   UNL     1       9.399   3.339  24.077  0.00  0.00    -0.365 OA
ATOM     15  H   UNL     1       9.285   3.625  23.154  0.00  0.00    +0.213 HD
ENDBRANCH   6  14
TORSDOF 4
ENDMDL
MODEL 6
REMARK VINA RESULT:      -4.3      4.803      6.138
REMARK  Name = 
REMARK  5 active torsions:
REMARK  status: ('A' for Active; 'I' for Inactive)
REMARK    1  A    between atoms: C_1  and  C_2
REMARK    2  A    between atoms: C_5  and  O_7
REMARK    3  A    between atoms: C_8  and  O_10
REMARK    4  A    between atoms: C_11  and  O_13
REMARK    5  A    between atoms: C_14  and  O_16
REMARK                            x       y       z     vdW  Elec       q    Type
REMARK                         _______ _______ _______ _____ _____    ______ ____
ROOT
ATOM      1  C   UNL     1       7.168  -2.455  23.006  0.00  0.00    +0.041 C 
ATOM      2  C   UNL     1       7.273  -3.619  23.982  0.00  0.00    +0.149 C 
ATOM      3  C   UNL     1       8.715  -4.154  24.100  0.00  0.00    +0.174 C 
ATOM      4  C   UNL     1       8.784  -5.238  25.176  0.00  0.00    +0.179 C 
ATOM      5  C   UNL     1       8.154  -4.766  26.487  0.00  0.00    +0.201 C 
ATOM      6  C   UNL     1       6.752  -4.201  26.215  0.00  0.00    +0.279 C 
ATOM      7  O   UNL     1       6.770  -3.166  25.250  0.00  0.00    -0.343 OA
ENDROOT
BRANCH   3   8
ATOM      8  O   UNL     1       9.629  -3.106  24.442  0.00  0.00    -0.387 OA
ATOM      9  H   UNL     1      10.365  -3.191  23.801  0.00  0.00    +0.210 HD
ENDBRANCH   3   8
BRANCH   4  10
ATOM     10  O   UNL     1      10.159  -5.596  25.401  0.00  0.00    -0.386 OA
ATOM     11  H   UNL     1      10.624  -4.746  25.545  0.00  0.00    +0.210 HD
ENDBRANCH   4  10
BRANCH   5  12
ATOM     12  O   UNL     1       8.091  -5.886  27.389  0.00  0.00    -0.384 OA
ATOM     13  H   UNL     1       9.016  -6.033  27.675  0.00  0.00    +0.210 HD
ENDBRANCH   5  12
BRANCH   6  14
ATOM     14  O   UNL     1       6.245  -3.665  27.429  0.00  0.00    -0.365 OA
ATOM     15  H   UNL     1       5.864  -2.813  27.152  0.00  0.00    +0.213 HD
ENDBRANCH   6  14
TORSDOF 4
ENDMDL
MODEL 7
REMARK VINA RESULT:      -4.2      1.744      3.223
REMARK  Name = 
REMARK  5 active torsions:
REMARK  status: ('A' for Active; 'I' for Inactive)
REMARK    1  A    between atoms: C_1  and  C_2
REMARK    2  A    between atoms: C_5  and  O_7
REMARK    3  A    between atoms: C_8  and  O_10
REMARK    4  A    between atoms: C_11  and  O_13
REMARK    5  A    between atoms: C_14  and  O_16
REMARK                            x       y       z     vdW  Elec       q    Type
REMARK                         _______ _______ _______ _____ _____    ______ ____
ROOT
ATOM      1  C   UNL     1       7.828  -0.161  26.644  0.00  0.00    +0.041 C 
ATOM      2  C   UNL     1       8.173  -0.544  25.211  0.00  0.00    +0.149 C 
ATOM      3  C   UNL     1       8.902   0.590  24.462  0.00  0.00    +0.174 C 
ATOM      4  C   UNL     1       9.328   0.111  23.074  0.00  0.00    +0.179 C 
ATOM      5  C   UNL     1      10.086  -1.215  23.148  0.00  0.00    +0.201 C 
ATOM      6  C   UNL     1       9.279  -2.229  23.972  0.00  0.00    +0.279 C 
ATOM      7  O   UNL     1       8.967  -1.741  25.263  0.00  0.00    -0.343 OA
ENDROOT
BRANCH   3   8
ATOM      8  O   UNL     1      10.066   1.018  25.179  0.00  0.00    -0.387 OA
ATOM      9  H   UNL     1      10.518   0.191  25.447  0.00  0.00    +0.210 HD
ENDBRANCH   3   8
BRANCH   4  10
ATOM     10  O   UNL     1      10.161   1.111  22.462  0.00  0.00    -0.386 OA
ATOM     11  H   UNL     1       9.871   1.960  22.854  0.00  0.00    +0.210 HD
ENDBRANCH   4  10
BRANCH   5  12
ATOM     12  O   UNL     1      10.295  -1.693  21.806  0.00  0.00    -0.384 OA
ATOM     13  H   UNL     1       9.787  -2.530  21.754  0.00  0.00    +0.210 HD
ENDBRANCH   5  12
BRANCH   6  14
ATOM     14  O   UNL     1      10.061  -3.406  24.121  0.00  0.00    -0.365 OA
ATOM     15  H   UNL     1       9.416  -4.120  23.978  0.00  0.00    +0.213 HD
ENDBRANCH   6  14
TORSDOF 4
ENDMDL
MODEL 8
REMARK VINA RESULT:      -4.2      6.115      7.768
REMARK  Name = 
REMARK  5 active torsions:
REMARK  status: ('A' for Active; 'I' for Inactive)
REMARK    1  A    between atoms: C_1  and  C_2
REMARK    2  A    between atoms: C_5  and  O_7
REMARK    3  A    between atoms: C_8  and  O_10
REMARK    4  A    between atoms: C_11  and  O_13
REMARK    5  A    between atoms: C_14  and  O_16
REMARK                            x       y       z     vdW  Elec       q    Type
REMARK                         _______ _______ _______ _____ _____    ______ ____
ROOT
ATOM      1  C   UNL     1       4.408  -4.655  24.413  0.00  0.00    +0.041 C 
ATOM      2  C   UNL     1       5.653  -4.414  25.256  0.00  0.00    +0.149 C 
ATOM      3  C   UNL     1       5.693  -5.313  26.508  0.00  0.00    +0.174 C 
ATOM      4  C   UNL     1       7.015  -5.116  27.252  0.00  0.00    +0.179 C 
ATOM      5  C   UNL     1       8.212  -5.253  26.310  0.00  0.00    +0.201 C 
ATOM      6  C   UNL     1       8.012  -4.355  25.081  0.00  0.00    +0.279 C 
ATOM      7  O   UNL     1       6.796  -4.629  24.411  0.00  0.00    -0.343 OA
ENDROOT
BRANCH   3   8
ATOM      8  O   UNL     1       5.565  -6.696  26.156  0.00  0.00    -0.387 OA
ATOM      9  H   UNL     1       6.389  -6.912  25.672  0.00  0.00    +0.210 HD
ENDBRANCH   3   8
BRANCH   4  10
ATOM     10  O   UNL     1       7.115  -6.088  28.308  0.00  0.00    -0.386 OA
ATOM     11  H   UNL     1       7.344  -6.928  27.861  0.00  0.00    +0.210 HD
ENDBRANCH   4  10
BRANCH   5  12
ATOM     12  O   UNL     1       9.401  -4.879  27.031  0.00  0.00    -0.384 OA
ATOM     13  H   UNL     1       9.934  -5.699  27.083  0.00  0.00    +0.210 HD
ENDBRANCH   5  12
BRANCH   6  14
ATOM     14  O   UNL     1       9.079  -4.595  24.175  0.00  0.00    -0.365 OA
ATOM     15  H   UNL     1       9.636  -5.234  24.652  0.00  0.00    +0.213 HD
ENDBRANCH   6  14
TORSDOF 4
ENDMDL
MODEL 9
REMARK VINA RESULT:      -4.1      2.439      3.502
REMARK  Name = 
REMARK  5 active torsions:
REMARK  status: ('A' for Active; 'I' for Inactive)
REMARK    1  A    between atoms: C_1  and  C_2
REMARK    2  A    between atoms: C_5  and  O_7
REMARK    3  A    between atoms: C_8  and  O_10
REMARK    4  A    between atoms: C_11  and  O_13
REMARK    5  A    between atoms: C_14  and  O_16
REMARK                            x       y       z     vdW  Elec       q    Type
REMARK                         _______ _______ _______ _____ _____    ______ ____
ROOT
ATOM      1  C   UNL     1       6.010   0.733  24.446  0.00  0.00    +0.041 C 
ATOM      2  C   UNL     1       7.300   0.104  23.935  0.00  0.00    +0.149 C 
ATOM      3  C   UNL     1       7.141  -1.404  23.650  0.00  0.00    +0.174 C 
ATOM      4  C   UNL     1       8.425  -1.957  23.029  0.00  0.00    +0.179 C 
ATOM      5  C   UNL     1       8.880  -1.111  21.838  0.00  0.00    +0.201 C 
ATOM      6  C   UNL     1       8.933   0.369  22.244  0.00  0.00    +0.279 C 
ATOM      7  O   UNL     1       7.696   0.827  22.758  0.00  0.00    -0.343 OA
ENDROOT
BRANCH   3   8
ATOM      8  O   UNL     1       6.053  -1.648  22.750  0.00  0.00    -0.387 OA
ATOM      9  H   UNL     1       5.245  -1.507  23.286  0.00  0.00    +0.210 HD
ENDBRANCH   3   8
BRANCH   4  10
ATOM     10  O   UNL     1       8.199  -3.312  22.602  0.00  0.00    -0.386 OA
ATOM     11  H   UNL     1       8.456  -3.329  21.658  0.00  0.00    +0.210 HD
ENDBRANCH   4  10
BRANCH   5  12
ATOM     12  O   UNL     1      10.177  -1.576  21.422  0.00  0.00    -0.384 OA
ATOM     13  H   UNL     1      10.733  -0.771  21.380  0.00  0.00    +0.210 HD
ENDBRANCH   5  12
BRANCH   6  14
ATOM     14  O   UNL     1       9.242   1.137  21.089  0.00  0.00    -0.365 OA
ATOM     15  H   UNL     1       8.531   1.801  21.068  0.00  0.00    +0.213 HD
ENDBRANCH   6  14
TORSDOF 4
ENDMDL
