MODEL 1
REMARK VINA RESULT:      -7.0      0.000      0.000
REMARK  Name = 
REMARK  8 active torsions:
REMARK  status: ('A' for Active; 'I' for Inactive)
REMARK    1  A    between atoms: C_1  and  O_2
REMARK    2  A    between atoms: O_2  and  C_3
REMARK    3  A    between atoms: C_4  and  O_5
REMARK    4  A    between atoms: O_5  and  C_6
REMARK    5  A    between atoms: C_13  and  C_14
REMARK    6  A    between atoms: C_14  and  C_15
REMARK    7  A    between atoms: C_15  and  C_16
REMARK    8  A    between atoms: C_15  and  C_17
REMARK                            x       y       z     vdW  Elec       q    Type
REMARK                         _______ _______ _______ _____ _____    ______ ____
ROOT
ATOM      1  C   UNL     1       5.024  -6.622  24.737  0.00  0.00    +0.162 A 
ATOM      2  C   UNL     1       5.521  -6.082  23.530  0.00  0.00    +0.053 A 
ATOM      3  C   UNL     1       6.552  -5.127  23.514  0.00  0.00    -0.038 A 
ATOM      4  C   UNL     1       7.124  -4.729  24.719  0.00  0.00    -0.023 A 
ATOM      5  C   UNL     1       8.146  -3.609  24.810  0.00  0.00    +0.094 C 
ATOM      6  N   UNL     1       8.723  -3.169  23.522  0.00  0.00    -0.294 NA
ATOM      7  C   UNL     1       7.776  -3.196  22.404  0.00  0.00    +0.089 C 
ATOM      8  C   UNL     1       9.561  -1.946  23.612  0.00  0.00    +0.096 C 
ATOM      9  C   UNL     1       9.073  -0.806  24.533  0.00  0.00    +0.070 C 
ATOM     10  C   UNL     1       8.578  -1.462  25.801  0.00  0.00    +0.139 C 
ATOM     11  O   UNL     1       9.017  -1.225  26.925  0.00  0.00    -0.297 OA
ATOM     12  C   UNL     1       7.500  -2.464  25.590  0.00  0.00    +0.098 C 
ATOM     13  C   UNL     1       6.690  -5.338  25.910  0.00  0.00    +0.054 A 
ATOM     14  C   UNL     1       7.115  -4.582  22.228  0.00  0.00    +0.051 C 
ATOM     15  C   UNL     1       5.633  -6.255  25.944  0.00  0.00    +0.162 A 
ENDROOT
BRANCH   1  17
ATOM     16  C   UNL     1       2.751  -6.972  24.030  0.00  0.00    +0.277 C 
ATOM     17  O   UNL     1       3.974  -7.481  24.545  0.00  0.00    -0.491 OA
ENDBRANCH   1  17
BRANCH  15  18
ATOM     18  O   UNL     1       5.235  -6.828  27.126  0.00  0.00    -0.491 OA
ATOM     19  C   UNL     1       5.691  -6.174  28.313  0.00  0.00    +0.277 C 
ENDBRANCH  15  18
BRANCH   9  20
ATOM     20  C   UNL     1      10.137   0.244  24.912  0.00  0.00    +0.015 C 
BRANCH  20  21
ATOM     21  C   UNL     1      10.007   1.651  24.310  0.00  0.00    -0.016 C 
ATOM     22  C   UNL     1       8.652   2.246  24.723  0.00  0.00    +0.007 C 
ATOM     23  C   UNL     1      10.104   1.657  22.786  0.00  0.00    +0.007 C 
ENDBRANCH  20  21
ENDBRANCH   9  20
TORSDOF 4
ENDMDL
MODEL 2
REMARK VINA RESULT:      -6.7      3.164      8.680
REMARK  Name = 
REMARK  8 active torsions:
REMARK  status: ('A' for Active; 'I' for Inactive)
REMARK    1  A    between atoms: C_1  and  O_2
REMARK    2  A    between atoms: O_2  and  C_3
REMARK    3  A    between atoms: C_4  and  O_5
REMARK    4  A    between atoms: O_5  and  C_6
REMARK    5  A    between atoms: C_13  and  C_14
REMARK    6  A    between atoms: C_14  and  C_15
REMARK    7  A    between atoms: C_15  and  C_16
REMARK    8  A    between atoms: C_15  and  C_17
REMARK                            x       y       z     vdW  Elec       q    Type
REMARK                         _______ _______ _______ _____ _____    ______ ____
ROOT
ATOM      1  C   UNL     1       9.735   4.543  23.835  0.00  0.00    +0.162 A 
ATOM      2  C   UNL     1       8.702   3.982  24.622  0.00  0.00    +0.053 A 
ATOM      3  C   UNL     1       8.661   2.610  24.922  0.00  0.00    -0.038 A 
ATOM      4  C   UNL     1       9.685   1.786  24.463  0.00  0.00    -0.023 A 
ATOM      5  C   UNL     1       9.654   0.276  24.625  0.00  0.00    +0.094 C 
ATOM      6  N   UNL     1       8.631  -0.244  25.556  0.00  0.00    -0.294 NA
ATOM      7  C   UNL     1       7.374   0.509  25.539  0.00  0.00    +0.089 C 
ATOM      8  C   UNL     1       8.485  -1.721  25.543  0.00  0.00    +0.096 C 
ATOM      9  C   UNL     1       8.549  -2.439  24.177  0.00  0.00    +0.070 C 
ATOM     10  C   UNL     1       9.683  -1.798  23.410  0.00  0.00    +0.139 C 
ATOM     11  O   UNL     1      10.661  -2.404  22.975  0.00  0.00    -0.297 OA
ATOM     12  C   UNL     1       9.542  -0.330  23.226  0.00  0.00    +0.098 C 
ATOM     13  C   UNL     1      10.758   2.364  23.761  0.00  0.00    +0.054 A 
ATOM     14  C   UNL     1       7.588   2.017  25.796  0.00  0.00    +0.051 C 
ATOM     15  C   UNL     1      10.787   3.719  23.415  0.00  0.00    +0.162 A 
ENDROOT
BRANCH   1  17
ATOM     16  C   UNL     1       8.350   6.318  22.988  0.00  0.00    +0.277 C 
ATOM     17  O   UNL     1       9.557   5.880  23.596  0.00  0.00    -0.491 OA
ENDBRANCH   1  17
BRANCH  15  18
ATOM     18  O   UNL     1      11.851   4.248  22.727  0.00  0.00    -0.491 OA
ATOM     19  C   UNL     1      12.756   5.039  23.503  0.00  0.00    +0.277 C 
ENDBRANCH  15  18
BRANCH   9  20
ATOM     20  C   UNL     1       8.800  -3.959  24.236  0.00  0.00    +0.015 C 
BRANCH  20  21
ATOM     21  C   UNL     1       7.686  -4.894  23.740  0.00  0.00    -0.016 C 
ATOM     22  C   UNL     1       7.222  -4.423  22.354  0.00  0.00    +0.007 C 
ATOM     23  C   UNL     1       6.481  -4.930  24.678  0.00  0.00    +0.007 C 
ENDBRANCH  20  21
ENDBRANCH   9  20
TORSDOF 4
ENDMDL
MODEL 3
REMARK VINA RESULT:      -6.6      1.846      3.211
REMARK  Name = 
REMARK  8 active torsions:
REMARK  status: ('A' for Active; 'I' for Inactive)
REMARK    1  A    between atoms: C_1  and  O_2
REMARK    2  A    between atoms: O_2  and  C_3
REMARK    3  A    between atoms: C_4  and  O_5
REMARK    4  A    between atoms: O_5  and  C_6
REMARK    5  A    between atoms: C_13  and  C_14
REMARK    6  A    between atoms: C_14  and  C_15
REMARK    7  A    between atoms: C_15  and  C_16
REMARK    8  A    between atoms: C_15  and  C_17
REMARK                            x       y       z     vdW  Elec       q    Type
REMARK                         _______ _______ _______ _____ _____    ______ ____
ROOT
ATOM      1  C   UNL     1       3.823  -7.013  24.662  0.00  0.00    +0.162 A 
ATOM      2  C   UNL     1       4.786  -6.806  25.675  0.00  0.00    +0.053 A 
ATOM      3  C   UNL     1       5.705  -5.743  25.619  0.00  0.00    -0.038 A 
ATOM      4  C   UNL     1       5.640  -4.848  24.555  0.00  0.00    -0.023 A 
ATOM      5  C   UNL     1       6.671  -3.754  24.342  0.00  0.00    +0.094 C 
ATOM      6  N   UNL     1       7.574  -3.499  25.485  0.00  0.00    -0.294 NA
ATOM      7  C   UNL     1       7.940  -4.704  26.234  0.00  0.00    +0.089 C 
ATOM      8  C   UNL     1       8.696  -2.574  25.185  0.00  0.00    +0.096 C 
ATOM      9  C   UNL     1       9.398  -2.716  23.816  0.00  0.00    +0.070 C 
ATOM     10  C   UNL     1       8.304  -2.913  22.792  0.00  0.00    +0.139 C 
ATOM     11  O   UNL     1       8.117  -2.180  21.822  0.00  0.00    -0.297 OA
ATOM     12  C   UNL     1       7.427  -4.084  23.055  0.00  0.00    +0.098 C 
ATOM     13  C   UNL     1       4.620  -5.004  23.599  0.00  0.00    +0.054 A 
ATOM     14  C   UNL     1       6.703  -5.493  26.718  0.00  0.00    +0.051 C 
ATOM     15  C   UNL     1       3.730  -6.084  23.618  0.00  0.00    +0.162 A 
ENDROOT
BRANCH   1  17
ATOM     16  C   UNL     1       1.892  -8.051  25.652  0.00  0.00    +0.277 C 
ATOM     17  O   UNL     1       3.071  -8.140  24.863  0.00  0.00    -0.491 OA
ENDBRANCH   1  17
BRANCH  15  18
ATOM     18  O   UNL     1       2.747  -6.204  22.667  0.00  0.00    -0.491 OA
ATOM     19  C   UNL     1       1.515  -5.543  22.966  0.00  0.00    +0.277 C 
ENDBRANCH  15  18
BRANCH   9  20
ATOM     20  C   UNL     1      10.258  -1.511  23.383  0.00  0.00    +0.015 C 
BRANCH  20  21
ATOM     21  C   UNL     1       9.822  -0.112  23.843  0.00  0.00    -0.016 C 
ATOM     22  C   UNL     1       9.784   0.824  22.625  0.00  0.00    +0.007 C 
ATOM     23  C   UNL     1      10.756   0.485  24.894  0.00  0.00    +0.007 C 
ENDBRANCH  20  21
ENDBRANCH   9  20
TORSDOF 4
ENDMDL
MODEL 4
REMARK VINA RESULT:      -6.6      2.320      7.735
REMARK  Name = 
REMARK  8 active torsions:
REMARK  status: ('A' for Active; 'I' for Inactive)
REMARK    1  A    between atoms: C_1  and  O_2
REMARK    2  A    between atoms: O_2  and  C_3
REMARK    3  A    between atoms: C_4  and  O_5
REMARK    4  A    between atoms: O_5  and  C_6
REMARK    5  A    between atoms: C_13  and  C_14
REMARK    6  A    between atoms: C_14  and  C_15
REMARK    7  A    between atoms: C_15  and  C_16
REMARK    8  A    between atoms: C_15  and  C_17
REMARK                            x       y       z     vdW  Elec       q    Type
REMARK                         _______ _______ _______ _____ _____    ______ ____
ROOT
ATOM      1  C   UNL     1       9.630   3.204  23.807  0.00  0.00    +0.162 A 
ATOM      2  C   UNL     1       9.951   2.343  22.733  0.00  0.00    +0.053 A 
ATOM      3  C   UNL     1       9.388   1.061  22.618  0.00  0.00    -0.038 A 
ATOM      4  C   UNL     1       8.461   0.640  23.568  0.00  0.00    -0.023 A 
ATOM      5  C   UNL     1       7.904  -0.772  23.598  0.00  0.00    +0.094 C 
ATOM      6  N   UNL     1       8.167  -1.586  22.393  0.00  0.00    -0.294 NA
ATOM      7  C   UNL     1       9.474  -1.336  21.778  0.00  0.00    +0.089 C 
ATOM      8  C   UNL     1       7.794  -3.017  22.526  0.00  0.00    +0.096 C 
ATOM      9  C   UNL     1       8.102  -3.718  23.868  0.00  0.00    +0.070 C 
ATOM     10  C   UNL     1       7.715  -2.746  24.958  0.00  0.00    +0.139 C 
ATOM     11  O   UNL     1       6.890  -2.978  25.839  0.00  0.00    -0.297 OA
ATOM     12  C   UNL     1       8.411  -1.434  24.880  0.00  0.00    +0.098 C 
ATOM     13  C   UNL     1       8.075   1.535  24.582  0.00  0.00    +0.054 A 
ATOM     14  C   UNL     1       9.692   0.159  21.451  0.00  0.00    +0.051 C 
ATOM     15  C   UNL     1       8.663   2.796  24.735  0.00  0.00    +0.162 A 
ENDROOT
BRANCH   1  17
ATOM     16  C   UNL     1      11.703   4.352  23.393  0.00  0.00    +0.277 C 
ATOM     17  O   UNL     1      10.336   4.378  23.780  0.00  0.00    -0.491 OA
ENDBRANCH   1  17
BRANCH  15  18
ATOM     18  O   UNL     1       8.262   3.643  25.738  0.00  0.00    -0.491 OA
ATOM     19  C   UNL     1       7.215   3.151  26.579  0.00  0.00    +0.277 C 
ENDBRANCH  15  18
BRANCH   9  20
ATOM     20  C   UNL     1       7.352  -5.045  24.111  0.00  0.00    +0.015 C 
BRANCH  20  21
ATOM     21  C   UNL     1       6.163  -5.378  23.198  0.00  0.00    -0.016 C 
ATOM     22  C   UNL     1       5.050  -6.018  24.043  0.00  0.00    +0.007 C 
ATOM     23  C   UNL     1       6.533  -6.334  22.066  0.00  0.00    +0.007 C 
ENDBRANCH  20  21
ENDBRANCH   9  20
TORSDOF 4
ENDMDL
MODEL 5
REMARK VINA RESULT:      -6.4      3.260      8.365
REMARK  Name = 
REMARK  8 active torsions:
REMARK  status: ('A' for Active; 'I' for Inactive)
REMARK    1  A    between atoms: C_1  and  O_2
REMARK    2  A    between atoms: O_2  and  C_3
REMARK    3  A    between atoms: C_4  and  O_5
REMARK    4  A    between atoms: O_5  and  C_6
REMARK    5  A    between atoms: C_13  and  C_14
REMARK    6  A    between atoms: C_14  and  C_15
REMARK    7  A    between atoms: C_15  and  C_16
REMARK    8  A    between atoms: C_15  and  C_17
REMARK                            x       y       z     vdW  Elec       q    Type
REMARK                         _______ _______ _______ _____ _____    ______ ____
ROOT
ATOM      1  C   UNL     1       8.569   4.412  23.444  0.00  0.00    +0.162 A 
ATOM      2  C   UNL     1       9.642   3.617  23.906  0.00  0.00    +0.053 A 
ATOM      3  C   UNL     1       9.679   2.228  23.695  0.00  0.00    -0.038 A 
ATOM      4  C   UNL     1       8.648   1.624  22.980  0.00  0.00    -0.023 A 
ATOM      5  C   UNL     1       8.537   0.118  22.820  0.00  0.00    +0.094 C 
ATOM      6  N   UNL     1       9.737  -0.654  23.205  0.00  0.00    -0.294 NA
ATOM      7  C   UNL     1      10.458  -0.099  24.353  0.00  0.00    +0.089 C 
ATOM      8  C   UNL     1       9.537  -2.125  23.233  0.00  0.00    +0.096 C 
ATOM      9  C   UNL     1       8.205  -2.658  23.806  0.00  0.00    +0.070 C 
ATOM     10  C   UNL     1       7.114  -1.771  23.253  0.00  0.00    +0.139 C 
ATOM     11  O   UNL     1       6.165  -2.170  22.581  0.00  0.00    -0.297 OA
ATOM     12  C   UNL     1       7.282  -0.329  23.570  0.00  0.00    +0.098 C 
ATOM     13  C   UNL     1       7.631   2.433  22.443  0.00  0.00    +0.054 A 
ATOM     14  C   UNL     1      10.841   1.384  24.146  0.00  0.00    +0.051 C 
ATOM     15  C   UNL     1       7.558   3.809  22.686  0.00  0.00    +0.162 A 
ENDROOT
BRANCH   1  17
ATOM     16  C   UNL     1       9.967   6.338  23.800  0.00  0.00    +0.277 C 
ATOM     17  O   UNL     1       8.683   5.727  23.811  0.00  0.00    -0.491 OA
ENDBRANCH   1  17
BRANCH  15  18
ATOM     18  O   UNL     1       6.549   4.567  22.145  0.00  0.00    -0.491 OA
ATOM     19  C   UNL     1       5.341   4.622  22.909  0.00  0.00    +0.277 C 
ENDBRANCH  15  18
BRANCH   9  20
ATOM     20  C   UNL     1       7.869  -4.122  23.452  0.00  0.00    +0.015 C 
BRANCH  20  21
ATOM     21  C   UNL     1       7.896  -5.161  24.583  0.00  0.00    -0.016 C 
ATOM     22  C   UNL     1       6.837  -4.787  25.630  0.00  0.00    +0.007 C 
ATOM     23  C   UNL     1       9.257  -5.254  25.270  0.00  0.00    +0.007 C 
ENDBRANCH  20  21
ENDBRANCH   9  20
TORSDOF 4
ENDMDL
MODEL 6
REMARK VINA RESULT:      -6.4      2.160      2.965
REMARK  Name = 
REMARK  8 active torsions:
REMARK  status: ('A' for Active; 'I' for Inactive)
REMARK    1  A    between atoms: C_1  and  O_2
REMARK    2  A    between atoms: O_2  and  C_3
REMARK    3  A    between atoms: C_4  and  O_5
REMARK    4  A    between atoms: O_5  and  C_6
REMARK    5  A    between atoms: C_13  and  C_14
REMARK    6  A    between atoms: C_14  and  C_15
REMARK    7  A    between atoms: C_15  and  C_16
REMARK    8  A    between atoms: C_15  and  C_17
REMARK                            x       y       z     vdW  Elec       q    Type
REMARK                         _______ _______ _______ _____ _____    ______ ____
ROOT
ATOM      1  C   UNL     1       5.607  -5.226  24.167  0.00  0.00    +0.162 A 
ATOM      2  C   UNL     1       7.003  -5.175  24.379  0.00  0.00    +0.053 A 
ATOM      3  C   UNL     1       7.715  -3.964  24.342  0.00  0.00    -0.038 A 
ATOM      4  C   UNL     1       7.020  -2.777  24.127  0.00  0.00    -0.023 A 
ATOM      5  C   UNL     1       7.720  -1.442  23.939  0.00  0.00    +0.094 C 
ATOM      6  N   UNL     1       9.155  -1.420  24.294  0.00  0.00    -0.294 NA
ATOM      7  C   UNL     1       9.866  -2.662  23.977  0.00  0.00    +0.089 C 
ATOM      8  C   UNL     1       9.861  -0.171  23.913  0.00  0.00    +0.096 C 
ATOM      9  C   UNL     1       9.516   0.462  22.547  0.00  0.00    +0.070 C 
ATOM     10  C   UNL     1       8.013   0.387  22.407  0.00  0.00    +0.139 C 
ATOM     11  O   UNL     1       7.279   1.359  22.244  0.00  0.00    -0.297 OA
ATOM     12  C   UNL     1       7.460  -0.990  22.502  0.00  0.00    +0.098 C 
ATOM     13  C   UNL     1       5.619  -2.823  24.010  0.00  0.00    +0.054 A 
ATOM     14  C   UNL     1       9.195  -3.901  24.612  0.00  0.00    +0.051 C 
ATOM     15  C   UNL     1       4.905  -4.026  23.997  0.00  0.00    +0.162 A 
ENDROOT
BRANCH   1  17
ATOM     16  C   UNL     1       4.470  -6.991  25.341  0.00  0.00    +0.277 C 
ATOM     17  O   UNL     1       5.113  -6.503  24.171  0.00  0.00    -0.491 OA
ENDBRANCH   1  17
BRANCH  15  18
ATOM     18  O   UNL     1       3.537  -4.032  23.880  0.00  0.00    -0.491 OA
ATOM     19  C   UNL     1       2.815  -3.662  25.057  0.00  0.00    +0.277 C 
ENDBRANCH  15  18
BRANCH   9  20
ATOM     20  C   UNL     1       9.948   1.932  22.368  0.00  0.00    +0.015 C 
BRANCH  20  21
ATOM     21  C   UNL     1      10.403   2.707  23.614  0.00  0.00    -0.016 C 
ATOM     22  C   UNL     1       9.205   3.482  24.183  0.00  0.00    +0.007 C 
ATOM     23  C   UNL     1      11.533   3.691  23.321  0.00  0.00    +0.007 C 
ENDBRANCH  20  21
ENDBRANCH   9  20
TORSDOF 4
ENDMDL
MODEL 7
REMARK VINA RESULT:      -6.3      3.853      9.055
REMARK  Name = 
REMARK  8 active torsions:
REMARK  status: ('A' for Active; 'I' for Inactive)
REMARK    1  A    between atoms: C_1  and  O_2
REMARK    2  A    between atoms: O_2  and  C_3
REMARK    3  A    between atoms: C_4  and  O_5
REMARK    4  A    between atoms: O_5  and  C_6
REMARK    5  A    between atoms: C_13  and  C_14
REMARK    6  A    between atoms: C_14  and  C_15
REMARK    7  A    between atoms: C_15  and  C_16
REMARK    8  A    between atoms: C_15  and  C_17
REMARK                            x       y       z     vdW  Elec       q    Type
REMARK                         _______ _______ _______ _____ _____    ______ ____
ROOT
ATOM      1  C   UNL     1      10.166   4.991  23.838  0.00  0.00    +0.162 A 
ATOM      2  C   UNL     1       8.886   4.504  24.187  0.00  0.00    +0.053 A 
ATOM      3  C   UNL     1       8.606   3.128  24.243  0.00  0.00    -0.038 A 
ATOM      4  C   UNL     1       9.628   2.218  23.984  0.00  0.00    -0.023 A 
ATOM      5  C   UNL     1       9.388   0.722  23.891  0.00  0.00    +0.094 C 
ATOM      6  N   UNL     1       8.075   0.256  24.385  0.00  0.00    -0.294 NA
ATOM      7  C   UNL     1       6.974   1.185  24.116  0.00  0.00    +0.089 C 
ATOM      8  C   UNL     1       7.784  -1.171  24.099  0.00  0.00    +0.096 C 
ATOM      9  C   UNL     1       8.196  -1.727  22.718  0.00  0.00    +0.070 C 
ATOM     10  C   UNL     1       9.575  -1.178  22.431  0.00  0.00    +0.139 C 
ATOM     11  O   UNL     1      10.569  -1.869  22.215  0.00  0.00    -0.297 OA
ATOM     12  C   UNL     1       9.656   0.306  22.445  0.00  0.00    +0.098 C 
ATOM     13  C   UNL     1      10.923   2.707  23.729  0.00  0.00    +0.054 A 
ATOM     14  C   UNL     1       7.257   2.604  24.657  0.00  0.00    +0.051 C 
ATOM     15  C   UNL     1      11.203   4.074  23.624  0.00  0.00    +0.162 A 
ENDROOT
BRANCH   1  17
ATOM     16  C   UNL     1       9.048   7.108  24.078  0.00  0.00    +0.277 C 
ATOM     17  O   UNL     1      10.216   6.358  23.769  0.00  0.00    -0.491 OA
ENDBRANCH   1  17
BRANCH  15  18
ATOM     18  O   UNL     1      12.479   4.514  23.373  0.00  0.00    -0.491 OA
ATOM     19  C   UNL     1      12.670   5.167  22.115  0.00  0.00    +0.277 C 
ENDBRANCH  15  18
BRANCH   9  20
ATOM     20  C   UNL     1       8.253  -3.265  22.611  0.00  0.00    +0.015 C 
BRANCH  20  21
ATOM     21  C   UNL     1       6.923  -4.033  22.568  0.00  0.00    -0.016 C 
ATOM     22  C   UNL     1       7.165  -5.411  21.934  0.00  0.00    +0.007 C 
ATOM     23  C   UNL     1       5.843  -3.306  21.771  0.00  0.00    +0.007 C 
ENDBRANCH  20  21
ENDBRANCH   9  20
TORSDOF 4
ENDMDL
MODEL 8
REMARK VINA RESULT:      -6.3      2.825      5.189
REMARK  Name = 
REMARK  8 active torsions:
REMARK  status: ('A' for Active; 'I' for Inactive)
REMARK    1  A    between atoms: C_1  and  O_2
REMARK    2  A    between atoms: O_2  and  C_3
REMARK    3  A    between atoms: C_4  and  O_5
REMARK    4  A    between atoms: O_5  and  C_6
REMARK    5  A    between atoms: C_13  and  C_14
REMARK    6  A    between atoms: C_14  and  C_15
REMARK    7  A    between atoms: C_15  and  C_16
REMARK    8  A    between atoms: C_15  and  C_17
REMARK                            x       y       z     vdW  Elec       q    Type
REMARK                         _______ _______ _______ _____ _____    ______ ____
ROOT
ATOM      1  C   UNL     1       8.873  -2.897  24.178  0.00  0.00    +0.162 A 
ATOM      2  C   UNL     1       9.390  -2.135  23.106  0.00  0.00    +0.053 A 
ATOM      3  C   UNL     1       9.621  -0.754  23.221  0.00  0.00    -0.038 A 
ATOM      4  C   UNL     1       9.367  -0.125  24.437  0.00  0.00    -0.023 A 
ATOM      5  C   UNL     1       9.459   1.381  24.614  0.00  0.00    +0.094 C 
ATOM      6  N   UNL     1      10.121   2.112  23.513  0.00  0.00    -0.294 NA
ATOM      7  C   UNL     1       9.857   1.554  22.185  0.00  0.00    +0.089 C 
ATOM      8  C   UNL     1      10.019   3.590  23.611  0.00  0.00    +0.096 C 
ATOM      9  C   UNL     1       8.673   4.189  24.077  0.00  0.00    +0.070 C 
ATOM     10  C   UNL     1       8.201   3.334  25.230  0.00  0.00    +0.139 C 
ATOM     11  O   UNL     1       7.969   3.757  26.361  0.00  0.00    -0.297 OA
ATOM     12  C   UNL     1       8.047   1.893  24.898  0.00  0.00    +0.098 C 
ATOM     13  C   UNL     1       8.941  -0.904  25.528  0.00  0.00    +0.054 A 
ATOM     14  C   UNL     1      10.214   0.053  22.097  0.00  0.00    +0.051 C 
ATOM     15  C   UNL     1       8.663  -2.271  25.413  0.00  0.00    +0.162 A 
ENDROOT
BRANCH   1  17
ATOM     16  C   UNL     1       7.429  -4.563  23.215  0.00  0.00    +0.277 C 
ATOM     17  O   UNL     1       8.653  -4.207  23.844  0.00  0.00    -0.491 OA
ENDBRANCH   1  17
BRANCH  15  18
ATOM     18  O   UNL     1       8.248  -2.999  26.500  0.00  0.00    -0.491 OA
ATOM     19  C   UNL     1       6.833  -3.047  26.707  0.00  0.00    +0.277 C 
ENDBRANCH  15  18
BRANCH   9  20
ATOM     20  C   UNL     1       8.727   5.656  24.549  0.00  0.00    +0.015 C 
BRANCH  20  21
ATOM     21  C   UNL     1       7.884   6.690  23.788  0.00  0.00    -0.016 C 
ATOM     22  C   UNL     1       6.520   6.828  24.482  0.00  0.00    +0.007 C 
ATOM     23  C   UNL     1       7.657   6.310  22.326  0.00  0.00    +0.007 C 
ENDBRANCH  20  21
ENDBRANCH   9  20
TORSDOF 4
ENDMDL
MODEL 9
REMARK VINA RESULT:      -6.3      2.676      8.016
REMARK  Name = 
REMARK  8 active torsions:
REMARK  status: ('A' for Active; 'I' for Inactive)
REMARK    1  A    between atoms: C_1  and  O_2
REMARK    2  A    between atoms: O_2  and  C_3
REMARK    3  A    between atoms: C_4  and  O_5
REMARK    4  A    between atoms: O_5  and  C_6
REMARK    5  A    between atoms: C_13  and  C_14
REMARK    6  A    between atoms: C_14  and  C_15
REMARK    7  A    between atoms: C_15  and  C_16
REMARK    8  A    between atoms: C_15  and  C_17
REMARK                            x       y       z     vdW  Elec       q    Type
REMARK                         _______ _______ _______ _____ _____    ______ ____
ROOT
ATOM      1  C   UNL     1       9.898   3.847  23.781  0.00  0.00    +0.162 A 
ATOM      2  C   UNL     1      10.177   2.862  22.807  0.00  0.00    +0.053 A 
ATOM      3  C   UNL     1       9.547   1.606  22.821  0.00  0.00    -0.038 A 
ATOM      4  C   UNL     1       8.594   1.337  23.800  0.00  0.00    -0.023 A 
ATOM      5  C   UNL     1       7.962  -0.032  23.973  0.00  0.00    +0.094 C 
ATOM      6  N   UNL     1       8.187  -0.982  22.863  0.00  0.00    -0.294 NA
ATOM      7  C   UNL     1       9.508  -0.867  22.239  0.00  0.00    +0.089 C 
ATOM      8  C   UNL     1       7.737  -2.369  23.142  0.00  0.00    +0.096 C 
ATOM      9  C   UNL     1       8.001  -2.940  24.553  0.00  0.00    +0.070 C 
ATOM     10  C   UNL     1       7.662  -1.839  25.531  0.00  0.00    +0.139 C 
ATOM     11  O   UNL     1       6.821  -1.933  26.423  0.00  0.00    -0.297 OA
ATOM     12  C   UNL     1       8.427  -0.582  25.322  0.00  0.00    +0.098 C 
ATOM     13  C   UNL     1       8.252   2.353  24.711  0.00  0.00    +0.054 A 
ATOM     14  C   UNL     1       9.807   0.571  21.759  0.00  0.00    +0.051 C 
ATOM     15  C   UNL     1       8.906   3.591  24.736  0.00  0.00    +0.162 A 
ENDROOT
BRANCH   1  17
ATOM     16  C   UNL     1      12.057   4.831  23.388  0.00  0.00    +0.277 C 
ATOM     17  O   UNL     1      10.665   4.972  23.638  0.00  0.00    -0.491 OA
ENDBRANCH   1  17
BRANCH  15  18
ATOM     18  O   UNL     1       8.546   4.559  25.641  0.00  0.00    -0.491 OA
ATOM     19  C   UNL     1       7.231   4.432  26.190  0.00  0.00    +0.277 C 
ENDBRANCH  15  18
BRANCH   9  20
ATOM     20  C   UNL     1       7.180  -4.192  24.927  0.00  0.00    +0.015 C 
BRANCH  20  21
ATOM     21  C   UNL     1       7.914  -5.359  25.603  0.00  0.00    -0.016 C 
ATOM     22  C   UNL     1       7.613  -5.333  27.109  0.00  0.00    +0.007 C 
ATOM     23  C   UNL     1       9.427  -5.304  25.402  0.00  0.00    +0.007 C 
ENDBRANCH  20  21
ENDBRANCH   9  20
TORSDOF 4
ENDMDL
