MODEL 1
REMARK VINA RESULT:      -4.7      0.000      0.000
REMARK  Name = 
REMARK  4 active torsions:
REMARK  status: ('A' for Active; 'I' for Inactive)
REMARK    1  A    between atoms: N_1  and  C_2
REMARK    2  A    between atoms: C_2  and  C_3
REMARK    3  A    between atoms: C_7  and  C_11
REMARK    4  A    between atoms: C_11  and  O_12
REMARK                            x       y       z     vdW  Elec       q    Type
REMARK                         _______ _______ _______ _____ _____    ______ ____
ROOT
ATOM      1  C   UNL     1      10.467   2.185  23.389  0.00  0.00    +0.003 C 
ATOM      2  C   UNL     1      10.070   1.625  22.012  0.00  0.00    +0.005 C 
ATOM      3  C   UNL     1       8.826   0.734  22.047  0.00  0.00    +0.015 C 
ATOM      4  C   UNL     1       8.896  -0.377  23.106  0.00  0.00    +0.098 C 
ATOM      5  C   UNL     1       9.294   0.189  24.475  0.00  0.00    +0.015 C 
ATOM      6  C   UNL     1      10.562   1.040  24.412  0.00  0.00    +0.005 C 
ENDROOT
BRANCH   4   7
ATOM      7  C   UNL     1       9.809  -1.520  22.670  0.00  0.00    +0.308 C 
ATOM      8  O   UNL     1      10.332  -2.328  23.420  0.00  0.00    -0.251 OA
BRANCH   7   9
ATOM      9  O   UNL     1      10.040  -1.540  21.336  0.00  0.00    -0.480 OA
ATOM     10  H   UNL     1       9.233  -1.560  20.788  0.00  0.00    +0.295 HD
ENDBRANCH   7   9
ENDBRANCH   4   7
BRANCH   1  11
ATOM     11  C   UNL     1       9.514   3.316  23.825  0.00  0.00    +0.081 C 
BRANCH  11  12
ATOM     12  N   UNL     1      10.017   4.626  23.422  0.00  0.00    -0.330 NA
ATOM     13  H   UNL     1       9.712   5.327  24.098  0.00  0.00    +0.118 HD
ATOM     14  H   UNL     1      11.035   4.626  23.458  0.00  0.00    +0.118 HD
ENDBRANCH  11  12
ENDBRANCH   1  11
TORSDOF 4
ENDMDL
MODEL 2
REMARK VINA RESULT:      -4.5      3.386      4.449
REMARK  Name = 
REMARK  4 active torsions:
REMARK  status: ('A' for Active; 'I' for Inactive)
REMARK    1  A    between atoms: N_1  and  C_2
REMARK    2  A    between atoms: C_2  and  C_3
REMARK    3  A    between atoms: C_7  and  C_11
REMARK    4  A    between atoms: C_11  and  O_12
REMARK                            x       y       z     vdW  Elec       q    Type
REMARK                         _______ _______ _______ _____ _____    ______ ____
ROOT
ATOM      1  C   UNL     1      10.052  -1.816  23.655  0.00  0.00    +0.003 C 
ATOM      2  C   UNL     1       9.818  -0.690  24.675  0.00  0.00    +0.005 C 
ATOM      3  C   UNL     1       8.717   0.292  24.264  0.00  0.00    +0.015 C 
ATOM      4  C   UNL     1       8.891   0.848  22.843  0.00  0.00    +0.098 C 
ATOM      5  C   UNL     1       9.126  -0.281  21.832  0.00  0.00    +0.015 C 
ATOM      6  C   UNL     1      10.257  -1.219  22.252  0.00  0.00    +0.005 C 
ENDROOT
BRANCH   4   7
ATOM      7  C   UNL     1       9.983   1.912  22.779  0.00  0.00    +0.308 C 
ATOM      8  O   UNL     1      10.511   2.438  23.746  0.00  0.00    -0.251 OA
BRANCH   7   9
ATOM      9  O   UNL     1      10.301   2.276  21.514  0.00  0.00    -0.480 OA
ATOM     10  H   UNL     1      11.095   2.838  21.444  0.00  0.00    +0.295 HD
ENDBRANCH   7   9
ENDBRANCH   4   7
BRANCH   1  11
ATOM     11  C   UNL     1       8.921  -2.863  23.714  0.00  0.00    +0.081 C 
BRANCH  11  12
ATOM     12  N   UNL     1       9.359  -4.089  24.375  0.00  0.00    -0.330 NA
ATOM     13  H   UNL     1       8.738  -4.855  24.112  0.00  0.00    +0.118 HD
ATOM     14  H   UNL     1      10.284  -4.348  24.035  0.00  0.00    +0.118 HD
ENDBRANCH  11  12
ENDBRANCH   1  11
TORSDOF 4
ENDMDL
MODEL 3
REMARK VINA RESULT:      -4.5      3.383      4.284
REMARK  Name = 
REMARK  4 active torsions:
REMARK  status: ('A' for Active; 'I' for Inactive)
REMARK    1  A    between atoms: N_1  and  C_2
REMARK    2  A    between atoms: C_2  and  C_3
REMARK    3  A    between atoms: C_7  and  C_11
REMARK    4  A    between atoms: C_11  and  O_12
REMARK                            x       y       z     vdW  Elec       q    Type
REMARK                         _______ _______ _______ _____ _____    ______ ____
ROOT
ATOM      1  C   UNL     1       9.109  -0.729  23.426  0.00  0.00    +0.003 C 
ATOM      2  C   UNL     1       8.785   0.214  22.255  0.00  0.00    +0.005 C 
ATOM      3  C   UNL     1       9.888   1.236  21.967  0.00  0.00    +0.015 C 
ATOM      4  C   UNL     1      10.341   2.017  23.209  0.00  0.00    +0.098 C 
ATOM      5  C   UNL     1      10.661   1.069  24.372  0.00  0.00    +0.015 C 
ATOM      6  C   UNL     1       9.523   0.090  24.660  0.00  0.00    +0.005 C 
ENDROOT
BRANCH   4   7
ATOM      7  C   UNL     1       9.331   3.091  23.605  0.00  0.00    +0.308 C 
ATOM      8  O   UNL     1       9.010   3.369  24.749  0.00  0.00    -0.251 OA
BRANCH   7   9
ATOM      9  O   UNL     1       8.760   3.704  22.541  0.00  0.00    -0.480 OA
ATOM     10  H   UNL     1       7.871   3.373  22.314  0.00  0.00    +0.295 HD
ENDBRANCH   7   9
ENDBRANCH   4   7
BRANCH   1  11
ATOM     11  C   UNL     1      10.155  -1.786  23.015  0.00  0.00    +0.081 C 
BRANCH  11  12
ATOM     12  N   UNL     1      10.082  -2.972  23.864  0.00  0.00    -0.330 NA
ATOM     13  H   UNL     1       9.729  -3.757  23.317  0.00  0.00    +0.118 HD
ATOM     14  H   UNL     1      11.020  -3.235  24.161  0.00  0.00    +0.118 HD
ENDBRANCH  11  12
ENDBRANCH   1  11
TORSDOF 4
ENDMDL
MODEL 4
REMARK VINA RESULT:      -4.4      1.269      2.200
REMARK  Name = 
REMARK  4 active torsions:
REMARK  status: ('A' for Active; 'I' for Inactive)
REMARK    1  A    between atoms: N_1  and  C_2
REMARK    2  A    between atoms: C_2  and  C_3
REMARK    3  A    between atoms: C_7  and  C_11
REMARK    4  A    between atoms: C_11  and  O_12
REMARK                            x       y       z     vdW  Elec       q    Type
REMARK                         _______ _______ _______ _____ _____    ______ ____
ROOT
ATOM      1  C   UNL     1       7.885   1.900  23.237  0.00  0.00    +0.003 C 
ATOM      2  C   UNL     1       8.384   1.069  24.431  0.00  0.00    +0.005 C 
ATOM      3  C   UNL     1       9.900   0.855  24.440  0.00  0.00    +0.015 C 
ATOM      4  C   UNL     1      10.452   0.317  23.111  0.00  0.00    +0.098 C 
ATOM      5  C   UNL     1       9.949   1.150  21.926  0.00  0.00    +0.015 C 
ATOM      6  C   UNL     1       8.429   1.310  21.924  0.00  0.00    +0.005 C 
ENDROOT
BRANCH   4   7
ATOM      7  C   UNL     1      10.157  -1.170  22.934  0.00  0.00    +0.308 C 
ATOM      8  O   UNL     1       9.890  -1.947  23.837  0.00  0.00    -0.251 OA
BRANCH   7   9
ATOM      9  O   UNL     1      10.264  -1.586  21.650  0.00  0.00    -0.480 OA
ATOM     10  H   UNL     1       9.558  -1.260  21.061  0.00  0.00    +0.295 HD
ENDBRANCH   7   9
ENDBRANCH   4   7
BRANCH   1  11
ATOM     11  C   UNL     1       8.222   3.394  23.421  0.00  0.00    +0.081 C 
BRANCH  11  12
ATOM     12  N   UNL     1       7.882   4.171  22.232  0.00  0.00    -0.330 NA
ATOM     13  H   UNL     1       8.418   3.822  21.437  0.00  0.00    +0.118 HD
ATOM     14  H   UNL     1       6.902   4.022  21.997  0.00  0.00    +0.118 HD
ENDBRANCH  11  12
ENDBRANCH   1  11
TORSDOF 4
ENDMDL
MODEL 5
REMARK VINA RESULT:      -4.4      2.619      3.661
REMARK  Name = 
REMARK  4 active torsions:
REMARK  status: ('A' for Active; 'I' for Inactive)
REMARK    1  A    between atoms: N_1  and  C_2
REMARK    2  A    between atoms: C_2  and  C_3
REMARK    3  A    between atoms: C_7  and  C_11
REMARK    4  A    between atoms: C_11  and  O_12
REMARK                            x       y       z     vdW  Elec       q    Type
REMARK                         _______ _______ _______ _____ _____    ______ ____
ROOT
ATOM      1  C   UNL     1       8.287  -0.354  25.184  0.00  0.00    +0.003 C 
ATOM      2  C   UNL     1       8.462  -1.181  23.899  0.00  0.00    +0.005 C 
ATOM      3  C   UNL     1       9.883  -1.139  23.331  0.00  0.00    +0.015 C 
ATOM      4  C   UNL     1      10.435   0.284  23.163  0.00  0.00    +0.098 C 
ATOM      5  C   UNL     1      10.256   1.103  24.447  0.00  0.00    +0.015 C 
ATOM      6  C   UNL     1       8.818   1.073  24.965  0.00  0.00    +0.005 C 
ENDROOT
BRANCH   4   7
ATOM      7  C   UNL     1       9.836   0.986  21.947  0.00  0.00    +0.308 C 
ATOM      8  O   UNL     1       9.068   0.475  21.147  0.00  0.00    -0.251 OA
BRANCH   7   9
ATOM      9  O   UNL     1      10.278   2.256  21.792  0.00  0.00    -0.480 OA
ATOM     10  H   UNL     1      10.216   2.596  20.880  0.00  0.00    +0.295 HD
ENDBRANCH   7   9
ENDBRANCH   4   7
BRANCH   1  11
ATOM     11  C   UNL     1       8.927  -1.064  26.394  0.00  0.00    +0.081 C 
BRANCH  11  12
ATOM     12  N   UNL     1       8.851  -0.245  27.600  0.00  0.00    -0.330 NA
ATOM     13  H   UNL     1       9.551  -0.565  28.270  0.00  0.00    +0.118 HD
ATOM     14  H   UNL     1       9.100   0.717  27.374  0.00  0.00    +0.118 HD
ENDBRANCH  11  12
ENDBRANCH   1  11
TORSDOF 4
ENDMDL
MODEL 6
REMARK VINA RESULT:      -4.4      2.064      2.762
REMARK  Name = 
REMARK  4 active torsions:
REMARK  status: ('A' for Active; 'I' for Inactive)
REMARK    1  A    between atoms: N_1  and  C_2
REMARK    2  A    between atoms: C_2  and  C_3
REMARK    3  A    between atoms: C_7  and  C_11
REMARK    4  A    between atoms: C_11  and  O_12
REMARK                            x       y       z     vdW  Elec       q    Type
REMARK                         _______ _______ _______ _____ _____    ______ ____
ROOT
ATOM      1  C   UNL     1      10.208   0.037  22.758  0.00  0.00    +0.003 C 
ATOM      2  C   UNL     1      10.164  -1.401  22.214  0.00  0.00    +0.005 C 
ATOM      3  C   UNL     1       8.809  -2.088  22.402  0.00  0.00    +0.015 C 
ATOM      4  C   UNL     1       8.281  -2.016  23.843  0.00  0.00    +0.098 C 
ATOM      5  C   UNL     1       8.329  -0.580  24.378  0.00  0.00    +0.015 C 
ATOM      6  C   UNL     1       9.706   0.062  24.211  0.00  0.00    +0.005 C 
ENDROOT
BRANCH   4   7
ATOM      7  C   UNL     1       9.003  -2.997  24.763  0.00  0.00    +0.308 C 
ATOM      8  O   UNL     1       9.769  -3.873  24.396  0.00  0.00    -0.251 OA
BRANCH   7   9
ATOM      9  O   UNL     1       8.678  -2.842  26.068  0.00  0.00    -0.480 OA
ATOM     10  H   UNL     1       9.184  -3.409  26.679  0.00  0.00    +0.295 HD
ENDBRANCH   7   9
ENDBRANCH   4   7
BRANCH   1  11
ATOM     11  C   UNL     1       9.446   1.005  21.831  0.00  0.00    +0.081 C 
BRANCH  11  12
ATOM     12  N   UNL     1      10.147   2.278  21.692  0.00  0.00    -0.330 NA
ATOM     13  H   UNL     1      10.642   2.488  22.560  0.00  0.00    +0.118 HD
ATOM     14  H   UNL     1      10.864   2.196  20.973  0.00  0.00    +0.118 HD
ENDBRANCH  11  12
ENDBRANCH   1  11
TORSDOF 4
ENDMDL
MODEL 7
REMARK VINA RESULT:      -4.3      2.215      3.238
REMARK  Name = 
REMARK  4 active torsions:
REMARK  status: ('A' for Active; 'I' for Inactive)
REMARK    1  A    between atoms: N_1  and  C_2
REMARK    2  A    between atoms: C_2  and  C_3
REMARK    3  A    between atoms: C_7  and  C_11
REMARK    4  A    between atoms: C_11  and  O_12
REMARK                            x       y       z     vdW  Elec       q    Type
REMARK                         _______ _______ _______ _____ _____    ______ ____
ROOT
ATOM      1  C   UNL     1       7.491   2.123  22.476  0.00  0.00    +0.003 C 
ATOM      2  C   UNL     1       7.769   2.127  23.989  0.00  0.00    +0.005 C 
ATOM      3  C   UNL     1       9.173   2.614  24.355  0.00  0.00    +0.015 C 
ATOM      4  C   UNL     1      10.291   1.901  23.581  0.00  0.00    +0.098 C 
ATOM      5  C   UNL     1      10.007   1.901  22.074  0.00  0.00    +0.015 C 
ATOM      6  C   UNL     1       8.612   1.371  21.740  0.00  0.00    +0.005 C 
ENDROOT
BRANCH   4   7
ATOM      7  C   UNL     1      10.546   0.495  24.117  0.00  0.00    +0.308 C 
ATOM      8  O   UNL     1      10.696  -0.504  23.431  0.00  0.00    -0.251 OA
BRANCH   7   9
ATOM      9  O   UNL     1      10.546   0.432  25.470  0.00  0.00    -0.480 OA
ATOM     10  H   UNL     1      11.232   0.977  25.898  0.00  0.00    +0.295 HD
ENDBRANCH   7   9
ENDBRANCH   4   7
BRANCH   1  11
ATOM     11  C   UNL     1       7.268   3.555  21.949  0.00  0.00    +0.081 C 
BRANCH  11  12
ATOM     12  N   UNL     1       5.866   3.949  22.041  0.00  0.00    -0.330 NA
ATOM     13  H   UNL     1       5.647   4.197  23.007  0.00  0.00    +0.118 HD
ATOM     14  H   UNL     1       5.713   4.794  21.493  0.00  0.00    +0.118 HD
ENDBRANCH  11  12
ENDBRANCH   1  11
TORSDOF 4
ENDMDL
MODEL 8
REMARK VINA RESULT:      -4.2      5.410      6.162
REMARK  Name = 
REMARK  4 active torsions:
REMARK  status: ('A' for Active; 'I' for Inactive)
REMARK    1  A    between atoms: N_1  and  C_2
REMARK    2  A    between atoms: C_2  and  C_3
REMARK    3  A    between atoms: C_7  and  C_11
REMARK    4  A    between atoms: C_11  and  O_12
REMARK                            x       y       z     vdW  Elec       q    Type
REMARK                         _______ _______ _______ _____ _____    ______ ____
ROOT
ATOM      1  C   UNL     1       6.817  -2.820  23.641  0.00  0.00    +0.003 C 
ATOM      2  C   UNL     1       7.862  -3.764  23.023  0.00  0.00    +0.005 C 
ATOM      3  C   UNL     1       7.828  -5.181  23.602  0.00  0.00    +0.015 C 
ATOM      4  C   UNL     1       7.876  -5.218  25.137  0.00  0.00    +0.098 C 
ATOM      5  C   UNL     1       6.833  -4.273  25.745  0.00  0.00    +0.015 C 
ATOM      6  C   UNL     1       6.920  -2.857  25.175  0.00  0.00    +0.005 C 
ENDROOT
BRANCH   4   7
ATOM      7  C   UNL     1       9.280  -4.941  25.668  0.00  0.00    +0.308 C 
ATOM      8  O   UNL     1      10.295  -4.909  24.991  0.00  0.00    -0.251 OA
BRANCH   7   9
ATOM      9  O   UNL     1       9.319  -4.773  27.011  0.00  0.00    -0.480 OA
ATOM     10  H   UNL     1       9.241  -5.600  27.522  0.00  0.00    +0.295 HD
ENDBRANCH   7   9
ENDBRANCH   4   7
BRANCH   1  11
ATOM     11  C   UNL     1       5.402  -3.137  23.116  0.00  0.00    +0.081 C 
BRANCH  11  12
ATOM     12  N   UNL     1       5.405  -3.380  21.676  0.00  0.00    -0.330 NA
ATOM     13  H   UNL     1       4.475  -3.678  21.382  0.00  0.00    +0.118 HD
ATOM     14  H   UNL     1       5.589  -2.507  21.184  0.00  0.00    +0.118 HD
ENDBRANCH  11  12
ENDBRANCH   1  11
TORSDOF 4
ENDMDL
MODEL 9
REMARK VINA RESULT:      -4.1      1.931      2.614
REMARK  Name = 
REMARK  4 active torsions:
REMARK  status: ('A' for Active; 'I' for Inactive)
REMARK    1  A    between atoms: N_1  and  C_2
REMARK    2  A    between atoms: C_2  and  C_3
REMARK    3  A    between atoms: C_7  and  C_11
REMARK    4  A    between atoms: C_11  and  O_12
REMARK                            x       y       z     vdW  Elec       q    Type
REMARK                         _______ _______ _______ _____ _____    ______ ____
ROOT
ATOM      1  C   UNL     1       9.586   0.819  23.274  0.00  0.00    +0.003 C 
ATOM      2  C   UNL     1      10.645  -0.285  23.433  0.00  0.00    +0.005 C 
ATOM      3  C   UNL     1      10.386  -1.515  22.559  0.00  0.00    +0.015 C 
ATOM      4  C   UNL     1       8.964  -2.078  22.697  0.00  0.00    +0.098 C 
ATOM      5  C   UNL     1       7.914  -0.971  22.539  0.00  0.00    +0.015 C 
ATOM      6  C   UNL     1       8.179   0.224  23.454  0.00  0.00    +0.005 C 
ENDROOT
BRANCH   4   7
ATOM      7  C   UNL     1       8.785  -2.857  23.998  0.00  0.00    +0.308 C 
ATOM      8  O   UNL     1       7.807  -2.797  24.726  0.00  0.00    -0.251 OA
BRANCH   7   9
ATOM      9  O   UNL     1       9.860  -3.615  24.317  0.00  0.00    -0.480 OA
ATOM     10  H   UNL     1      10.705  -3.130  24.332  0.00  0.00    +0.295 HD
ENDBRANCH   7   9
ENDBRANCH   4   7
BRANCH   1  11
ATOM     11  C   UNL     1       9.765   1.572  21.940  0.00  0.00    +0.081 C 
BRANCH  11  12
ATOM     12  N   UNL     1       8.729   2.583  21.751  0.00  0.00    -0.330 NA
ATOM     13  H   UNL     1       8.157   2.334  20.943  0.00  0.00    +0.118 HD
ATOM     14  H   UNL     1       8.099   2.579  22.552  0.00  0.00    +0.118 HD
ENDBRANCH  11  12
ENDBRANCH   1  11
TORSDOF 4
ENDMDL
