MODEL 1
REMARK VINA RESULT:      -6.4      0.000      0.000
REMARK  Name = 
REMARK  6 active torsions:
REMARK  status: ('A' for Active; 'I' for Inactive)
REMARK    1  A    between atoms: O_1  and  C_2
REMARK    2  A    between atoms: C_2  and  C_3
REMARK    3  A    between atoms: C_5  and  O_7
REMARK    4  A    between atoms: C_8  and  O_10
REMARK    5  A    between atoms: C_11  and  O_13
REMARK    6  A    between atoms: C_16  and  C_19
REMARK                            x       y       z     vdW  Elec       q    Type
REMARK                         _______ _______ _______ _____ _____    ______ ____
ROOT
ATOM      1  C   UNL     1       7.506  -3.360  22.760  0.00  0.00    +0.145 C 
ATOM      2  N   UNL     1       8.210  -2.292  23.434  0.00  0.00    -0.324 N 
ATOM      3  C   UNL     1       8.822  -2.370  24.648  0.00  0.00    +0.142 A 
ATOM      4  N   UNL     1       9.245  -1.174  25.022  0.00  0.00    -0.230 NA
ATOM      5  C   UNL     1       8.967  -0.316  23.981  0.00  0.00    +0.089 A 
ATOM      6  C   UNL     1       8.901  -3.628  25.439  0.00  0.00    +0.211 C 
ATOM      7  C   UNL     1       8.471  -4.906  24.702  0.00  0.00    +0.181 C 
ATOM      8  C   UNL     1       8.349  -1.015  22.964  0.00  0.00    +0.116 A 
ATOM      9  C   UNL     1       7.804  -4.777  23.314  0.00  0.00    +0.171 C 
ENDROOT
BRANCH   5  10
ATOM     10  C   UNL     1       9.263   1.110  23.995  0.00  0.00    +0.002 A 
ATOM     11  C   UNL     1      10.330   1.653  23.262  0.00  0.00    +0.010 A 
ATOM     12  C   UNL     1      10.578   3.027  23.266  0.00  0.00    +0.001 A 
ATOM     13  C   UNL     1       9.762   3.887  23.998  0.00  0.00    +0.000 A 
ATOM     14  C   UNL     1       8.704   3.364  24.741  0.00  0.00    +0.001 A 
ATOM     15  C   UNL     1       8.455   1.989  24.736  0.00  0.00    +0.010 A 
ENDBRANCH   5  10
BRANCH   6  16
ATOM     16  O   UNL     1       8.044  -3.470  26.583  0.00  0.00    -0.381 OA
ATOM     17  H   UNL     1       8.321  -4.114  27.258  0.00  0.00    +0.210 HD
ENDBRANCH   6  16
BRANCH   7  18
ATOM     18  O   UNL     1       9.618  -5.775  24.540  0.00  0.00    -0.386 OA
ATOM     19  H   UNL     1      10.273  -5.262  24.032  0.00  0.00    +0.210 HD
ENDBRANCH   7  18
BRANCH   9  20
ATOM     20  O   UNL     1       6.643  -5.632  23.334  0.00  0.00    -0.387 OA
ATOM     21  H   UNL     1       6.898  -6.486  22.922  0.00  0.00    +0.210 HD
ENDBRANCH   9  20
BRANCH   1  22
ATOM     22  C   UNL     1       6.010  -3.037  22.612  0.00  0.00    +0.183 C 
BRANCH  22  23
ATOM     23  O   UNL     1       5.490  -3.669  21.438  0.00  0.00    -0.393 OA
ATOM     24  H   UNL     1       5.635  -3.048  20.699  0.00  0.00    +0.209 HD
ENDBRANCH  22  23
ENDBRANCH   1  22
TORSDOF 6
ENDMDL
MODEL 2
REMARK VINA RESULT:      -6.3      1.855      2.947
REMARK  Name = 
REMARK  6 active torsions:
REMARK  status: ('A' for Active; 'I' for Inactive)
REMARK    1  A    between atoms: O_1  and  C_2
REMARK    2  A    between atoms: C_2  and  C_3
REMARK    3  A    between atoms: C_5  and  O_7
REMARK    4  A    between atoms: C_8  and  O_10
REMARK    5  A    between atoms: C_11  and  O_13
REMARK    6  A    between atoms: C_16  and  C_19
REMARK                            x       y       z     vdW  Elec       q    Type
REMARK                         _______ _______ _______ _____ _____    ______ ____
ROOT
ATOM      1  C   UNL     1       4.985  -3.445  23.532  0.00  0.00    +0.145 C 
ATOM      2  N   UNL     1       6.246  -2.848  23.154  0.00  0.00    -0.324 N 
ATOM      3  C   UNL     1       7.324  -3.498  22.637  0.00  0.00    +0.142 A 
ATOM      4  N   UNL     1       8.352  -2.671  22.538  0.00  0.00    -0.230 NA
ATOM      5  C   UNL     1       7.896  -1.432  22.929  0.00  0.00    +0.089 A 
ATOM      6  C   UNL     1       7.322  -4.953  22.325  0.00  0.00    +0.211 C 
ATOM      7  C   UNL     1       5.951  -5.645  22.383  0.00  0.00    +0.181 C 
ATOM      8  C   UNL     1       6.566  -1.524  23.284  0.00  0.00    +0.116 A 
ATOM      9  C   UNL     1       4.746  -4.863  22.953  0.00  0.00    +0.171 C 
ENDROOT
BRANCH   5  10
ATOM     10  C   UNL     1       8.724  -0.235  22.979  0.00  0.00    +0.002 A 
ATOM     11  C   UNL     1       9.115   0.446  21.815  0.00  0.00    +0.010 A 
ATOM     12  C   UNL     1       9.885   1.608  21.888  0.00  0.00    +0.001 A 
ATOM     13  C   UNL     1      10.274   2.118  23.124  0.00  0.00    +0.000 A 
ATOM     14  C   UNL     1       9.905   1.449  24.291  0.00  0.00    +0.001 A 
ATOM     15  C   UNL     1       9.133   0.286  24.219  0.00  0.00    +0.010 A 
ENDBRANCH   5  10
BRANCH   6  16
ATOM     16  O   UNL     1       8.181  -5.599  23.281  0.00  0.00    -0.381 OA
ATOM     17  H   UNL     1       8.562  -4.913  23.855  0.00  0.00    +0.210 HD
ENDBRANCH   6  16
BRANCH   7  18
ATOM     18  O   UNL     1       5.579  -6.085  21.055  0.00  0.00    -0.386 OA
ATOM     19  H   UNL     1       5.777  -5.338  20.460  0.00  0.00    +0.210 HD
ENDBRANCH   7  18
BRANCH   9  20
ATOM     20  O   UNL     1       4.081  -5.747  23.877  0.00  0.00    -0.387 OA
ATOM     21  H   UNL     1       4.370  -5.500  24.782  0.00  0.00    +0.210 HD
ENDBRANCH   9  20
BRANCH   1  22
ATOM     22  C   UNL     1       4.743  -3.328  25.046  0.00  0.00    +0.183 C 
BRANCH  22  23
ATOM     23  O   UNL     1       5.688  -4.137  25.754  0.00  0.00    -0.393 OA
ATOM     24  H   UNL     1       6.338  -3.526  26.149  0.00  0.00    +0.209 HD
ENDBRANCH  22  23
ENDBRANCH   1  22
TORSDOF 6
ENDMDL
MODEL 3
REMARK VINA RESULT:      -6.3      1.958      3.390
REMARK  Name = 
REMARK  6 active torsions:
REMARK  status: ('A' for Active; 'I' for Inactive)
REMARK    1  A    between atoms: O_1  and  C_2
REMARK    2  A    between atoms: C_2  and  C_3
REMARK    3  A    between atoms: C_5  and  O_7
REMARK    4  A    between atoms: C_8  and  O_10
REMARK    5  A    between atoms: C_11  and  O_13
REMARK    6  A    between atoms: C_16  and  C_19
REMARK                            x       y       z     vdW  Elec       q    Type
REMARK                         _______ _______ _______ _____ _____    ______ ____
ROOT
ATOM      1  C   UNL     1       5.909  -4.366  25.258  0.00  0.00    +0.145 C 
ATOM      2  N   UNL     1       6.776  -3.582  24.408  0.00  0.00    -0.324 N 
ATOM      3  C   UNL     1       7.242  -3.940  23.180  0.00  0.00    +0.142 A 
ATOM      4  N   UNL     1       8.118  -3.049  22.746  0.00  0.00    -0.230 NA
ATOM      5  C   UNL     1       8.156  -2.047  23.690  0.00  0.00    +0.089 A 
ATOM      6  C   UNL     1       6.855  -5.208  22.503  0.00  0.00    +0.211 C 
ATOM      7  C   UNL     1       5.700  -5.985  23.154  0.00  0.00    +0.181 C 
ATOM      8  C   UNL     1       7.292  -2.353  24.720  0.00  0.00    +0.116 A 
ATOM      9  C   UNL     1       5.181  -5.529  24.537  0.00  0.00    +0.171 C 
ENDROOT
BRANCH   5  10
ATOM     10  C   UNL     1       9.013  -0.872  23.600  0.00  0.00    +0.002 A 
ATOM     11  C   UNL     1       9.122  -0.123  22.417  0.00  0.00    +0.010 A 
ATOM     12  C   UNL     1       9.926   1.017  22.361  0.00  0.00    +0.001 A 
ATOM     13  C   UNL     1      10.633   1.435  23.486  0.00  0.00    +0.000 A 
ATOM     14  C   UNL     1      10.546   0.697  24.667  0.00  0.00    +0.001 A 
ATOM     15  C   UNL     1       9.739  -0.443  24.723  0.00  0.00    +0.010 A 
ENDBRANCH   5  10
BRANCH   6  16
ATOM     16  O   UNL     1       8.011  -6.063  22.497  0.00  0.00    -0.381 OA
ATOM     17  H   UNL     1       8.345  -6.112  21.585  0.00  0.00    +0.210 HD
ENDBRANCH   6  16
BRANCH   7  18
ATOM     18  O   UNL     1       4.562  -5.991  22.258  0.00  0.00    -0.386 OA
ATOM     19  H   UNL     1       4.357  -6.930  22.091  0.00  0.00    +0.210 HD
ENDBRANCH   7  18
BRANCH   9  20
ATOM     20  O   UNL     1       5.071  -6.717  25.346  0.00  0.00    -0.387 OA
ATOM     21  H   UNL     1       4.912  -7.473  24.741  0.00  0.00    +0.210 HD
ENDBRANCH   9  20
BRANCH   1  22
ATOM     22  C   UNL     1       6.622  -4.772  26.560  0.00  0.00    +0.183 C 
BRANCH  22  23
ATOM     23  O   UNL     1       7.624  -5.754  26.279  0.00  0.00    -0.393 OA
ATOM     24  H   UNL     1       8.457  -5.420  26.660  0.00  0.00    +0.209 HD
ENDBRANCH  22  23
ENDBRANCH   1  22
TORSDOF 6
ENDMDL
MODEL 4
REMARK VINA RESULT:      -6.2      1.577      1.808
REMARK  Name = 
REMARK  6 active torsions:
REMARK  status: ('A' for Active; 'I' for Inactive)
REMARK    1  A    between atoms: O_1  and  C_2
REMARK    2  A    between atoms: C_2  and  C_3
REMARK    3  A    between atoms: C_5  and  O_7
REMARK    4  A    between atoms: C_8  and  O_10
REMARK    5  A    between atoms: C_11  and  O_13
REMARK    6  A    between atoms: C_16  and  C_19
REMARK                            x       y       z     vdW  Elec       q    Type
REMARK                         _______ _______ _______ _____ _____    ______ ____
ROOT
ATOM      1  C   UNL     1       6.900  -4.420  23.620  0.00  0.00    +0.145 C 
ATOM      2  N   UNL     1       7.644  -3.245  24.011  0.00  0.00    -0.324 N 
ATOM      3  C   UNL     1       7.892  -2.832  25.284  0.00  0.00    +0.142 A 
ATOM      4  N   UNL     1       8.480  -1.648  25.275  0.00  0.00    -0.230 NA
ATOM      5  C   UNL     1       8.688  -1.325  23.952  0.00  0.00    +0.089 A 
ATOM      6  C   UNL     1       7.464  -3.602  26.484  0.00  0.00    +0.211 C 
ATOM      7  C   UNL     1       6.941  -5.021  26.214  0.00  0.00    +0.181 C 
ATOM      8  C   UNL     1       8.200  -2.336  23.151  0.00  0.00    +0.116 A 
ATOM      9  C   UNL     1       6.699  -5.460  24.752  0.00  0.00    +0.171 C 
ENDROOT
BRANCH   5  10
ATOM     10  C   UNL     1       9.304  -0.085  23.500  0.00  0.00    +0.002 A 
ATOM     11  C   UNL     1       9.164   0.374  22.181  0.00  0.00    +0.010 A 
ATOM     12  C   UNL     1       9.738   1.582  21.776  0.00  0.00    +0.001 A 
ATOM     13  C   UNL     1      10.457   2.357  22.682  0.00  0.00    +0.000 A 
ATOM     14  C   UNL     1      10.616   1.911  23.994  0.00  0.00    +0.001 A 
ATOM     15  C   UNL     1      10.041   0.704  24.400  0.00  0.00    +0.010 A 
ENDBRANCH   5  10
BRANCH   6  16
ATOM     16  O   UNL     1       6.408  -2.858  27.118  0.00  0.00    -0.381 OA
ATOM     17  H   UNL     1       5.919  -2.380  26.426  0.00  0.00    +0.210 HD
ENDBRANCH   6  16
BRANCH   7  18
ATOM     18  O   UNL     1       7.849  -5.986  26.799  0.00  0.00    -0.386 OA
ATOM     19  H   UNL     1       7.787  -5.862  27.765  0.00  0.00    +0.210 HD
ENDBRANCH   7  18
BRANCH   9  20
ATOM     20  O   UNL     1       5.401  -6.087  24.721  0.00  0.00    -0.387 OA
ATOM     21  H   UNL     1       5.492  -6.930  24.225  0.00  0.00    +0.210 HD
ENDBRANCH   9  20
BRANCH   1  22
ATOM     22  C   UNL     1       5.612  -4.042  22.868  0.00  0.00    +0.183 C 
BRANCH  22  23
ATOM     23  O   UNL     1       5.273  -5.074  21.937  0.00  0.00    -0.393 OA
ATOM     24  H   UNL     1       6.057  -5.211  21.372  0.00  0.00    +0.209 HD
ENDBRANCH  22  23
ENDBRANCH   1  22
TORSDOF 6
ENDMDL
MODEL 5
REMARK VINA RESULT:      -6.2      2.195      3.538
REMARK  Name = 
REMARK  6 active torsions:
REMARK  status: ('A' for Active; 'I' for Inactive)
REMARK    1  A    between atoms: O_1  and  C_2
REMARK    2  A    between atoms: C_2  and  C_3
REMARK    3  A    between atoms: C_5  and  O_7
REMARK    4  A    between atoms: C_8  and  O_10
REMARK    5  A    between atoms: C_11  and  O_13
REMARK    6  A    between atoms: C_16  and  C_19
REMARK                            x       y       z     vdW  Elec       q    Type
REMARK                         _______ _______ _______ _____ _____    ______ ____
ROOT
ATOM      1  C   UNL     1       9.776  -1.476  24.024  0.00  0.00    +0.145 C 
ATOM      2  N   UNL     1       9.447  -0.069  24.057  0.00  0.00    -0.324 N 
ATOM      3  C   UNL     1       8.196   0.468  24.055  0.00  0.00    +0.142 A 
ATOM      4  N   UNL     1       8.264   1.785  23.951  0.00  0.00    -0.230 NA
ATOM      5  C   UNL     1       9.603   2.109  23.966  0.00  0.00    +0.089 A 
ATOM      6  C   UNL     1       6.958  -0.358  24.081  0.00  0.00    +0.211 C 
ATOM      7  C   UNL     1       7.161  -1.855  24.363  0.00  0.00    +0.181 C 
ATOM      8  C   UNL     1      10.353   0.956  24.068  0.00  0.00    +0.116 A 
ATOM      9  C   UNL     1       8.600  -2.420  24.383  0.00  0.00    +0.171 C 
ENDROOT
BRANCH   5  10
ATOM     10  C   UNL     1      10.116   3.468  23.857  0.00  0.00    +0.002 A 
ATOM     11  C   UNL     1       9.330   4.585  24.182  0.00  0.00    +0.010 A 
ATOM     12  C   UNL     1       9.850   5.878  24.098  0.00  0.00    +0.001 A 
ATOM     13  C   UNL     1      11.168   6.081  23.695  0.00  0.00    +0.000 A 
ATOM     14  C   UNL     1      11.961   4.984  23.358  0.00  0.00    +0.001 A 
ATOM     15  C   UNL     1      11.440   3.690  23.443  0.00  0.00    +0.010 A 
ENDBRANCH   5  10
BRANCH   6  16
ATOM     16  O   UNL     1       6.332  -0.234  22.792  0.00  0.00    -0.381 OA
ATOM     17  H   UNL     1       5.389  -0.040  22.933  0.00  0.00    +0.210 HD
ENDBRANCH   6  16
BRANCH   7  18
ATOM     18  O   UNL     1       6.559  -2.189  25.637  0.00  0.00    -0.386 OA
ATOM     19  H   UNL     1       5.820  -2.793  25.434  0.00  0.00    +0.210 HD
ENDBRANCH   7  18
BRANCH   9  20
ATOM     20  O   UNL     1       8.579  -3.626  23.592  0.00  0.00    -0.387 OA
ATOM     21  H   UNL     1       9.490  -3.776  23.259  0.00  0.00    +0.210 HD
ENDBRANCH   9  20
BRANCH   1  22
ATOM     22  C   UNL     1      10.514  -1.847  22.726  0.00  0.00    +0.183 C 
BRANCH  22  23
ATOM     23  O   UNL     1       9.631  -1.712  21.609  0.00  0.00    -0.393 OA
ATOM     24  H   UNL     1       9.363  -0.774  21.575  0.00  0.00    +0.209 HD
ENDBRANCH  22  23
ENDBRANCH   1  22
TORSDOF 6
ENDMDL
MODEL 6
REMARK VINA RESULT:      -6.1      3.244      6.800
REMARK  Name = 
REMARK  6 active torsions:
REMARK  status: ('A' for Active; 'I' for Inactive)
REMARK    1  A    between atoms: O_1  and  C_2
REMARK    2  A    between atoms: C_2  and  C_3
REMARK    3  A    between atoms: C_5  and  O_7
REMARK    4  A    between atoms: C_8  and  O_10
REMARK    5  A    between atoms: C_11  and  O_13
REMARK    6  A    between atoms: C_16  and  C_19
REMARK                            x       y       z     vdW  Elec       q    Type
REMARK                         _______ _______ _______ _____ _____    ______ ____
ROOT
ATOM      1  C   UNL     1      10.100   0.793  22.957  0.00  0.00    +0.145 C 
ATOM      2  N   UNL     1       8.983  -0.111  22.799  0.00  0.00    -0.324 N 
ATOM      3  C   UNL     1       7.664   0.212  22.895  0.00  0.00    +0.142 A 
ATOM      4  N   UNL     1       6.921  -0.881  22.833  0.00  0.00    -0.230 NA
ATOM      5  C   UNL     1       7.786  -1.930  22.610  0.00  0.00    +0.089 A 
ATOM      6  C   UNL     1       7.182   1.601  23.124  0.00  0.00    +0.211 C 
ATOM      7  C   UNL     1       8.245   2.704  22.998  0.00  0.00    +0.181 C 
ATOM      8  C   UNL     1       9.079  -1.453  22.551  0.00  0.00    +0.116 A 
ATOM      9  C   UNL     1       9.729   2.295  22.863  0.00  0.00    +0.171 C 
ENDROOT
BRANCH   5  10
ATOM     10  C   UNL     1       7.370  -3.321  22.491  0.00  0.00    +0.002 A 
ATOM     11  C   UNL     1       6.431  -3.735  21.534  0.00  0.00    +0.010 A 
ATOM     12  C   UNL     1       6.068  -5.078  21.417  0.00  0.00    +0.001 A 
ATOM     13  C   UNL     1       6.641  -6.036  22.251  0.00  0.00    +0.000 A 
ATOM     14  C   UNL     1       7.568  -5.642  23.215  0.00  0.00    +0.001 A 
ATOM     15  C   UNL     1       7.932  -4.297  23.331  0.00  0.00    +0.010 A 
ENDBRANCH   5  10
BRANCH   6  16
ATOM     16  O   UNL     1       6.647   1.656  24.458  0.00  0.00    -0.381 OA
ATOM     17  H   UNL     1       7.053   2.414  24.914  0.00  0.00    +0.210 HD
ENDBRANCH   6  16
BRANCH   7  18
ATOM     18  O   UNL     1       7.933   3.543  21.860  0.00  0.00    -0.386 OA
ATOM     19  H   UNL     1       8.553   4.294  21.902  0.00  0.00    +0.210 HD
ENDBRANCH   7  18
BRANCH   9  20
ATOM     20  O   UNL     1      10.468   3.119  23.788  0.00  0.00    -0.387 OA
ATOM     21  H   UNL     1       9.892   3.874  24.037  0.00  0.00    +0.210 HD
ENDBRANCH   9  20
BRANCH   1  22
ATOM     22  C   UNL     1      10.949   0.423  24.185  0.00  0.00    +0.183 C 
BRANCH  22  23
ATOM     23  O   UNL     1      10.209   0.679  25.382  0.00  0.00    -0.393 OA
ATOM     24  H   UNL     1       9.603   1.417  25.184  0.00  0.00    +0.209 HD
ENDBRANCH  22  23
ENDBRANCH   1  22
TORSDOF 6
ENDMDL
MODEL 7
REMARK VINA RESULT:      -6.1      3.229      6.256
REMARK  Name = 
REMARK  6 active torsions:
REMARK  status: ('A' for Active; 'I' for Inactive)
REMARK    1  A    between atoms: O_1  and  C_2
REMARK    2  A    between atoms: C_2  and  C_3
REMARK    3  A    between atoms: C_5  and  O_7
REMARK    4  A    between atoms: C_8  and  O_10
REMARK    5  A    between atoms: C_11  and  O_13
REMARK    6  A    between atoms: C_16  and  C_19
REMARK                            x       y       z     vdW  Elec       q    Type
REMARK                         _______ _______ _______ _____ _____    ______ ____
ROOT
ATOM      1  C   UNL     1       8.576   0.073  22.215  0.00  0.00    +0.145 C 
ATOM      2  N   UNL     1       8.315  -0.673  23.425  0.00  0.00    -0.324 N 
ATOM      3  C   UNL     1       8.759  -0.365  24.675  0.00  0.00    +0.142 A 
ATOM      4  N   UNL     1       8.450  -1.334  25.520  0.00  0.00    -0.230 NA
ATOM      5  C   UNL     1       7.716  -2.256  24.808  0.00  0.00    +0.089 A 
ATOM      6  C   UNL     1       9.550   0.859  24.977  0.00  0.00    +0.211 C 
ATOM      7  C   UNL     1       9.631   1.896  23.845  0.00  0.00    +0.181 C 
ATOM      8  C   UNL     1       7.594  -1.834  23.500  0.00  0.00    +0.116 A 
ATOM      9  C   UNL     1       9.091   1.517  22.448  0.00  0.00    +0.171 C 
ENDROOT
BRANCH   5  10
ATOM     10  C   UNL     1       7.189  -3.492  25.370  0.00  0.00    +0.002 A 
ATOM     11  C   UNL     1       7.593  -3.964  26.629  0.00  0.00    +0.010 A 
ATOM     12  C   UNL     1       7.054  -5.137  27.163  0.00  0.00    +0.001 A 
ATOM     13  C   UNL     1       6.097  -5.858  26.452  0.00  0.00    +0.000 A 
ATOM     14  C   UNL     1       5.692  -5.410  25.194  0.00  0.00    +0.001 A 
ATOM     15  C   UNL     1       6.231  -4.235  24.661  0.00  0.00    +0.010 A 
ENDBRANCH   5  10
BRANCH   6  16
ATOM     16  O   UNL     1      10.890   0.439  25.286  0.00  0.00    -0.381 OA
ATOM     17  H   UNL     1      11.127   0.803  26.156  0.00  0.00    +0.210 HD
ENDBRANCH   6  16
BRANCH   7  18
ATOM     18  O   UNL     1       8.942   3.103  24.251  0.00  0.00    -0.386 OA
ATOM     19  H   UNL     1       8.400   3.373  23.486  0.00  0.00    +0.210 HD
ENDBRANCH   7  18
BRANCH   9  20
ATOM     20  O   UNL     1      10.096   1.920  21.495  0.00  0.00    -0.387 OA
ATOM     21  H   UNL     1       9.836   1.558  20.621  0.00  0.00    +0.210 HD
ENDBRANCH   9  20
BRANCH   1  22
ATOM     22  C   UNL     1       9.416  -0.749  21.222  0.00  0.00    +0.183 C 
BRANCH  22  23
ATOM     23  O   UNL     1      10.553  -1.304  21.890  0.00  0.00    -0.393 OA
ATOM     24  H   UNL     1      10.878  -0.619  22.504  0.00  0.00    +0.209 HD
ENDBRANCH  22  23
ENDBRANCH   1  22
TORSDOF 6
ENDMDL
MODEL 8
REMARK VINA RESULT:      -6.1      1.774      3.320
REMARK  Name = 
REMARK  6 active torsions:
REMARK  status: ('A' for Active; 'I' for Inactive)
REMARK    1  A    between atoms: O_1  and  C_2
REMARK    2  A    between atoms: C_2  and  C_3
REMARK    3  A    between atoms: C_5  and  O_7
REMARK    4  A    between atoms: C_8  and  O_10
REMARK    5  A    between atoms: C_11  and  O_13
REMARK    6  A    between atoms: C_16  and  C_19
REMARK                            x       y       z     vdW  Elec       q    Type
REMARK                         _______ _______ _______ _____ _____    ______ ____
ROOT
ATOM      1  C   UNL     1       8.627  -3.982  26.536  0.00  0.00    +0.145 C 
ATOM      2  N   UNL     1       8.339  -2.906  25.616  0.00  0.00    -0.324 N 
ATOM      3  C   UNL     1       7.210  -2.762  24.869  0.00  0.00    +0.142 A 
ATOM      4  N   UNL     1       7.339  -1.742  24.037  0.00  0.00    -0.230 NA
ATOM      5  C   UNL     1       8.558  -1.163  24.314  0.00  0.00    +0.089 A 
ATOM      6  C   UNL     1       6.056  -3.698  24.953  0.00  0.00    +0.211 C 
ATOM      7  C   UNL     1       6.098  -4.705  26.114  0.00  0.00    +0.181 C 
ATOM      8  C   UNL     1       9.179  -1.864  25.327  0.00  0.00    +0.116 A 
ATOM      9  C   UNL     1       7.390  -4.818  26.955  0.00  0.00    +0.171 C 
ENDROOT
BRANCH   5  10
ATOM     10  C   UNL     1       9.095  -0.009  23.606  0.00  0.00    +0.002 A 
ATOM     11  C   UNL     1       9.890   0.952  24.250  0.00  0.00    +0.010 A 
ATOM     12  C   UNL     1      10.419   2.035  23.546  0.00  0.00    +0.001 A 
ATOM     13  C   UNL     1      10.170   2.177  22.183  0.00  0.00    +0.000 A 
ATOM     14  C   UNL     1       9.373   1.238  21.528  0.00  0.00    +0.001 A 
ATOM     15  C   UNL     1       8.845   0.153  22.233  0.00  0.00    +0.010 A 
ENDBRANCH   5  10
BRANCH   6  16
ATOM     16  O   UNL     1       6.019  -4.446  23.725  0.00  0.00    -0.381 OA
ATOM     17  H   UNL     1       5.686  -3.859  23.024  0.00  0.00    +0.210 HD
ENDBRANCH   6  16
BRANCH   7  18
ATOM     18  O   UNL     1       5.018  -4.418  27.035  0.00  0.00    -0.386 OA
ATOM     19  H   UNL     1       4.928  -3.447  27.050  0.00  0.00    +0.210 HD
ENDBRANCH   7  18
BRANCH   9  20
ATOM     20  O   UNL     1       7.675  -6.226  27.083  0.00  0.00    -0.387 OA
ATOM     21  H   UNL     1       8.616  -6.313  27.348  0.00  0.00    +0.210 HD
ENDBRANCH   9  20
BRANCH   1  22
ATOM     22  C   UNL     1       9.827  -4.818  26.061  0.00  0.00    +0.183 C 
BRANCH  22  23
ATOM     23  O   UNL     1       9.492  -5.506  24.852  0.00  0.00    -0.393 OA
ATOM     24  H   UNL     1       8.522  -5.610  24.848  0.00  0.00    +0.209 HD
ENDBRANCH  22  23
ENDBRANCH   1  22
TORSDOF 6
ENDMDL
MODEL 9
REMARK VINA RESULT:      -6.0      3.367      6.544
REMARK  Name = 
REMARK  6 active torsions:
REMARK  status: ('A' for Active; 'I' for Inactive)
REMARK    1  A    between atoms: O_1  and  C_2
REMARK    2  A    between atoms: C_2  and  C_3
REMARK    3  A    between atoms: C_5  and  O_7
REMARK    4  A    between atoms: C_8  and  O_10
REMARK    5  A    between atoms: C_11  and  O_13
REMARK    6  A    between atoms: C_16  and  C_19
REMARK                            x       y       z     vdW  Elec       q    Type
REMARK                         _______ _______ _______ _____ _____    ______ ____
ROOT
ATOM      1  C   UNL     1      10.142   0.040  23.273  0.00  0.00    +0.145 C 
ATOM      2  N   UNL     1       9.027  -0.831  23.564  0.00  0.00    -0.324 N 
ATOM      3  C   UNL     1       7.724  -0.610  23.237  0.00  0.00    +0.142 A 
ATOM      4  N   UNL     1       6.953  -1.540  23.776  0.00  0.00    -0.230 NA
ATOM      5  C   UNL     1       7.796  -2.431  24.404  0.00  0.00    +0.089 A 
ATOM      6  C   UNL     1       7.272   0.572  22.454  0.00  0.00    +0.211 C 
ATOM      7  C   UNL     1       8.388   1.412  21.813  0.00  0.00    +0.181 C 
ATOM      8  C   UNL     1       9.102  -2.015  24.247  0.00  0.00    +0.116 A 
ATOM      9  C   UNL     1       9.857   1.112  22.190  0.00  0.00    +0.171 C 
ENDROOT
BRANCH   5  10
ATOM     10  C   UNL     1       7.345  -3.605  25.139  0.00  0.00    +0.002 A 
ATOM     11  C   UNL     1       7.863  -3.933  26.401  0.00  0.00    +0.010 A 
ATOM     12  C   UNL     1       7.396  -5.047  27.102  0.00  0.00    +0.001 A 
ATOM     13  C   UNL     1       6.397  -5.851  26.558  0.00  0.00    +0.000 A 
ATOM     14  C   UNL     1       5.878  -5.547  25.300  0.00  0.00    +0.001 A 
ATOM     15  C   UNL     1       6.345  -4.431  24.599  0.00  0.00    +0.010 A 
ENDBRANCH   5  10
BRANCH   6  16
ATOM     16  O   UNL     1       6.538   1.426  23.349  0.00  0.00    -0.381 OA
ATOM     17  H   UNL     1       5.794   0.914  23.711  0.00  0.00    +0.210 HD
ENDBRANCH   6  16
BRANCH   7  18
ATOM     18  O   UNL     1       8.295   1.314  20.371  0.00  0.00    -0.386 OA
ATOM     19  H   UNL     1       8.913   1.979  20.016  0.00  0.00    +0.210 HD
ENDBRANCH   7  18
BRANCH   9  20
ATOM     20  O   UNL     1      10.476   2.383  22.474  0.00  0.00    -0.387 OA
ATOM     21  H   UNL     1       9.758   3.037  22.613  0.00  0.00    +0.210 HD
ENDBRANCH   9  20
BRANCH   1  22
ATOM     22  C   UNL     1      10.772   0.592  24.563  0.00  0.00    +0.183 C 
BRANCH  22  23
ATOM     23  O   UNL     1       9.812   1.379  25.274  0.00  0.00    -0.393 OA
ATOM     24  H   UNL     1       9.196   1.738  24.608  0.00  0.00    +0.209 HD
ENDBRANCH  22  23
ENDBRANCH   1  22
TORSDOF 6
ENDMDL
