MODEL 1
REMARK VINA RESULT:      -5.2      0.000      0.000
REMARK  Name = 
REMARK  8 active torsions:
REMARK  status: ('A' for Active; 'I' for Inactive)
REMARK    1  A    between atoms: C_1  and  C_2
REMARK    2  A    between atoms: C_3  and  O_4
REMARK    3  A    between atoms: C_5  and  C_6
REMARK    4  A    between atoms: C_8  and  C_9
REMARK    5  A    between atoms: C_9  and  O_10
REMARK    6  A    between atoms: O_10  and  P_11
REMARK    7  A    between atoms: P_11  and  O_12
REMARK    8  A    between atoms: P_11  and  O_13
REMARK                            x       y       z     vdW  Elec       q    Type
REMARK                         _______ _______ _______ _____ _____    ______ ____
ROOT
ATOM      1  C   UNL     1       9.567   4.091  23.745  0.00  0.00    +0.127 C 
ATOM      2  C   UNL     1       9.146   2.657  23.683  0.00  0.00    +0.234 A 
ATOM      3  N   UNL     1       8.363   2.218  24.752  0.00  0.00    -0.171 N 
ATOM      4  O   UNL     1       8.040   3.009  25.700  0.00  0.00    -0.620 OA
ATOM      5  C   UNL     1       7.921   0.914  24.795  0.00  0.00    +0.329 A 
ATOM      6  C   UNL     1       8.215  -0.028  23.783  0.00  0.00    +0.057 A 
ATOM      7  C   UNL     1       9.040   0.400  22.730  0.00  0.00    +0.073 A 
ATOM      8  C   UNL     1       9.483   1.740  22.673  0.00  0.00    +0.196 A 
ENDROOT
BRANCH   7   9
ATOM      9  C   UNL     1       9.480  -0.528  21.654  0.00  0.00    +0.263 C 
ATOM     10  O   UNL     1      10.198  -1.496  21.876  0.00  0.00    -0.296 OA
ENDBRANCH   7   9
BRANCH   8  11
ATOM     11  O   UNL     1      10.256   2.104  21.600  0.00  0.00    -0.501 OA
ATOM     12  H   UNL     1       9.746   2.591  20.932  0.00  0.00    +0.292 HD
ENDBRANCH   8  11
BRANCH   6  13
ATOM     13  C   UNL     1       7.658  -1.426  23.919  0.00  0.00    +0.214 C 
BRANCH  13  14
ATOM     14  O   UNL     1       8.513  -2.150  24.792  0.00  0.00    -0.282 OA
BRANCH  14  15
ATOM     15  P   UNL     1       8.665  -3.833  24.423  0.00  0.00    +0.473 P 
ATOM     16  O   UNL     1       8.801  -5.340  24.093  0.00  0.00    -0.228 OA
BRANCH  15  17
ATOM     17  O   UNL     1      10.205  -3.431  24.059  0.00  0.00    -0.303 OA
ATOM     18  H   UNL     1      10.287  -3.341  23.094  0.00  0.00    +0.222 HD
ENDBRANCH  15  17
BRANCH  15  19
ATOM     19  O   UNL     1       7.982  -3.412  22.997  0.00  0.00    -0.303 OA
ATOM     20  H   UNL     1       8.560  -3.618  22.243  0.00  0.00    +0.222 HD
ENDBRANCH  15  19
ENDBRANCH  14  15
ENDBRANCH  13  14
ENDBRANCH   6  13
TORSDOF 7
ENDMDL
MODEL 2
REMARK VINA RESULT:      -5.2      2.475      3.826
REMARK  Name = 
REMARK  8 active torsions:
REMARK  status: ('A' for Active; 'I' for Inactive)
REMARK    1  A    between atoms: C_1  and  C_2
REMARK    2  A    between atoms: C_3  and  O_4
REMARK    3  A    between atoms: C_5  and  C_6
REMARK    4  A    between atoms: C_8  and  C_9
REMARK    5  A    between atoms: C_9  and  O_10
REMARK    6  A    between atoms: O_10  and  P_11
REMARK    7  A    between atoms: P_11  and  O_12
REMARK    8  A    between atoms: P_11  and  O_13
REMARK                            x       y       z     vdW  Elec       q    Type
REMARK                         _______ _______ _______ _____ _____    ______ ____
ROOT
ATOM      1  C   UNL     1       9.310   1.666  22.362  0.00  0.00    +0.127 C 
ATOM      2  C   UNL     1       9.285   0.400  23.158  0.00  0.00    +0.234 A 
ATOM      3  N   UNL     1       9.390  -0.776  22.413  0.00  0.00    -0.171 N 
ATOM      4  O   UNL     1       9.504  -0.742  21.143  0.00  0.00    -0.620 OA
ATOM      5  C   UNL     1       9.377  -1.999  23.047  0.00  0.00    +0.329 A 
ATOM      6  C   UNL     1       9.270  -2.133  24.449  0.00  0.00    +0.057 A 
ATOM      7  C   UNL     1       9.119  -0.954  25.197  0.00  0.00    +0.073 A 
ATOM      8  C   UNL     1       9.148   0.303  24.553  0.00  0.00    +0.196 A 
ENDROOT
BRANCH   7   9
ATOM      9  C   UNL     1       8.918  -0.980  26.670  0.00  0.00    +0.263 C 
ATOM     10  O   UNL     1       7.825  -0.774  27.186  0.00  0.00    -0.296 OA
ENDBRANCH   7   9
BRANCH   8  11
ATOM     11  O   UNL     1       9.031   1.419  25.342  0.00  0.00    -0.501 OA
ATOM     12  H   UNL     1       9.874   1.895  25.428  0.00  0.00    +0.292 HD
ENDBRANCH   8  11
BRANCH   6  13
ATOM     13  C   UNL     1       9.291  -3.523  25.041  0.00  0.00    +0.214 C 
BRANCH  13  14
ATOM     14  O   UNL     1       7.945  -3.950  25.193  0.00  0.00    -0.282 OA
BRANCH  14  15
ATOM     15  P   UNL     1       7.665  -4.995  26.543  0.00  0.00    +0.473 P 
ATOM     16  O   UNL     1       7.414  -5.931  27.751  0.00  0.00    -0.228 OA
BRANCH  15  17
ATOM     17  O   UNL     1       6.893  -3.695  27.160  0.00  0.00    -0.303 OA
ATOM     18  H   UNL     1       7.214  -2.895  26.711  0.00  0.00    +0.222 HD
ENDBRANCH  15  17
BRANCH  15  19
ATOM     19  O   UNL     1       9.186  -4.573  26.972  0.00  0.00    -0.303 OA
ATOM     20  H   UNL     1       9.299  -4.553  27.938  0.00  0.00    +0.222 HD
ENDBRANCH  15  19
ENDBRANCH  14  15
ENDBRANCH  13  14
ENDBRANCH   6  13
TORSDOF 7
ENDMDL
MODEL 3
REMARK VINA RESULT:      -5.2      3.807      6.435
REMARK  Name = 
REMARK  8 active torsions:
REMARK  status: ('A' for Active; 'I' for Inactive)
REMARK    1  A    between atoms: C_1  and  C_2
REMARK    2  A    between atoms: C_3  and  O_4
REMARK    3  A    between atoms: C_5  and  C_6
REMARK    4  A    between atoms: C_8  and  C_9
REMARK    5  A    between atoms: C_9  and  O_10
REMARK    6  A    between atoms: O_10  and  P_11
REMARK    7  A    between atoms: P_11  and  O_12
REMARK    8  A    between atoms: P_11  and  O_13
REMARK                            x       y       z     vdW  Elec       q    Type
REMARK                         _______ _______ _______ _____ _____    ______ ____
ROOT
ATOM      1  C   UNL     1       4.902  -6.216  24.516  0.00  0.00    +0.127 C 
ATOM      2  C   UNL     1       5.944  -5.251  24.048  0.00  0.00    +0.234 A 
ATOM      3  N   UNL     1       5.626  -4.544  22.887  0.00  0.00    -0.171 N 
ATOM      4  O   UNL     1       4.512  -4.726  22.291  0.00  0.00    -0.620 OA
ATOM      5  C   UNL     1       6.516  -3.629  22.370  0.00  0.00    +0.329 A 
ATOM      6  C   UNL     1       7.765  -3.352  22.971  0.00  0.00    +0.057 A 
ATOM      7  C   UNL     1       8.106  -4.094  24.113  0.00  0.00    +0.073 A 
ATOM      8  C   UNL     1       7.190  -5.022  24.656  0.00  0.00    +0.196 A 
ENDROOT
BRANCH   7   9
ATOM      9  C   UNL     1       9.427  -3.943  24.779  0.00  0.00    +0.263 C 
ATOM     10  O   UNL     1      10.213  -4.876  24.896  0.00  0.00    -0.296 OA
ENDBRANCH   7   9
BRANCH   8  11
ATOM     11  O   UNL     1       7.568  -5.689  25.793  0.00  0.00    -0.501 OA
ATOM     12  H   UNL     1       7.422  -5.158  26.593  0.00  0.00    +0.292 HD
ENDBRANCH   8  11
BRANCH   6  13
ATOM     13  C   UNL     1       8.653  -2.310  22.330  0.00  0.00    +0.214 C 
BRANCH  13  14
ATOM     14  O   UNL     1       8.179  -1.032  22.730  0.00  0.00    -0.282 OA
BRANCH  14  15
ATOM     15  P   UNL     1       9.199   0.291  22.278  0.00  0.00    +0.473 P 
ATOM     16  O   UNL     1      10.111   1.475  21.874  0.00  0.00    -0.228 OA
BRANCH  15  17
ATOM     17  O   UNL     1       9.693  -0.726  21.100  0.00  0.00    -0.303 OA
ATOM     18  H   UNL     1       9.692  -0.250  20.252  0.00  0.00    +0.222 HD
ENDBRANCH  15  17
BRANCH  15  19
ATOM     19  O   UNL     1      10.169  -0.266  23.472  0.00  0.00    -0.303 OA
ATOM     20  H   UNL     1      10.085  -1.227  23.591  0.00  0.00    +0.222 HD
ENDBRANCH  15  19
ENDBRANCH  14  15
ENDBRANCH  13  14
ENDBRANCH   6  13
TORSDOF 7
ENDMDL
MODEL 4
REMARK VINA RESULT:      -5.1      4.328      7.000
REMARK  Name = 
REMARK  8 active torsions:
REMARK  status: ('A' for Active; 'I' for Inactive)
REMARK    1  A    between atoms: C_1  and  C_2
REMARK    2  A    between atoms: C_3  and  O_4
REMARK    3  A    between atoms: C_5  and  C_6
REMARK    4  A    between atoms: C_8  and  C_9
REMARK    5  A    between atoms: C_9  and  O_10
REMARK    6  A    between atoms: O_10  and  P_11
REMARK    7  A    between atoms: P_11  and  O_12
REMARK    8  A    between atoms: P_11  and  O_13
REMARK                            x       y       z     vdW  Elec       q    Type
REMARK                         _______ _______ _______ _____ _____    ______ ____
ROOT
ATOM      1  C   UNL     1       4.038  -6.379  23.715  0.00  0.00    +0.127 C 
ATOM      2  C   UNL     1       5.339  -5.705  24.019  0.00  0.00    +0.234 A 
ATOM      3  N   UNL     1       5.876  -4.947  22.977  0.00  0.00    -0.171 N 
ATOM      4  O   UNL     1       5.275  -4.850  21.856  0.00  0.00    -0.620 OA
ATOM      5  C   UNL     1       7.071  -4.284  23.151  0.00  0.00    +0.329 A 
ATOM      6  C   UNL     1       7.798  -4.321  24.362  0.00  0.00    +0.057 A 
ATOM      7  C   UNL     1       7.282  -5.119  25.395  0.00  0.00    +0.073 A 
ATOM      8  C   UNL     1       6.050  -5.788  25.228  0.00  0.00    +0.196 A 
ENDROOT
BRANCH   7   9
ATOM      9  C   UNL     1       8.005  -5.297  26.683  0.00  0.00    +0.263 C 
ATOM     10  O   UNL     1       7.440  -5.215  27.768  0.00  0.00    -0.296 OA
ENDBRANCH   7   9
BRANCH   8  11
ATOM     11  O   UNL     1       5.582  -6.523  26.288  0.00  0.00    -0.501 OA
ATOM     12  H   UNL     1       5.382  -5.965  27.058  0.00  0.00    +0.292 HD
ENDBRANCH   8  11
BRANCH   6  13
ATOM     13  C   UNL     1       9.086  -3.536  24.449  0.00  0.00    +0.214 C 
BRANCH  13  14
ATOM     14  O   UNL     1       9.347  -2.986  23.165  0.00  0.00    -0.282 OA
BRANCH  14  15
ATOM     15  P   UNL     1       9.972  -1.373  23.182  0.00  0.00    +0.473 P 
ATOM     16  O   UNL     1      10.531   0.070  23.196  0.00  0.00    -0.228 OA
BRANCH  15  17
ATOM     17  O   UNL     1       8.395  -0.954  23.102  0.00  0.00    -0.303 OA
ATOM     18  H   UNL     1       8.280  -0.295  22.396  0.00  0.00    +0.222 HD
ENDBRANCH  15  17
BRANCH  15  19
ATOM     19  O   UNL     1      10.214  -1.628  21.584  0.00  0.00    -0.303 OA
ATOM     20  H   UNL     1      11.012  -2.157  21.417  0.00  0.00    +0.222 HD
ENDBRANCH  15  19
ENDBRANCH  14  15
ENDBRANCH  13  14
ENDBRANCH   6  13
TORSDOF 7
ENDMDL
MODEL 5
REMARK VINA RESULT:      -5.1      4.178      6.319
REMARK  Name = 
REMARK  8 active torsions:
REMARK  status: ('A' for Active; 'I' for Inactive)
REMARK    1  A    between atoms: C_1  and  C_2
REMARK    2  A    between atoms: C_3  and  O_4
REMARK    3  A    between atoms: C_5  and  C_6
REMARK    4  A    between atoms: C_8  and  C_9
REMARK    5  A    between atoms: C_9  and  O_10
REMARK    6  A    between atoms: O_10  and  P_11
REMARK    7  A    between atoms: P_11  and  O_12
REMARK    8  A    between atoms: P_11  and  O_13
REMARK                            x       y       z     vdW  Elec       q    Type
REMARK                         _______ _______ _______ _____ _____    ______ ____
ROOT
ATOM      1  C   UNL     1       5.327  -6.418  26.260  0.00  0.00    +0.127 C 
ATOM      2  C   UNL     1       6.377  -5.567  25.619  0.00  0.00    +0.234 A 
ATOM      3  N   UNL     1       7.457  -5.233  26.438  0.00  0.00    -0.171 N 
ATOM      4  O   UNL     1       7.520  -5.643  27.644  0.00  0.00    -0.620 OA
ATOM      5  C   UNL     1       8.481  -4.453  25.947  0.00  0.00    +0.329 A 
ATOM      6  C   UNL     1       8.504  -3.966  24.620  0.00  0.00    +0.057 A 
ATOM      7  C   UNL     1       7.397  -4.264  23.809  0.00  0.00    +0.073 A 
ATOM      8  C   UNL     1       6.353  -5.077  24.302  0.00  0.00    +0.196 A 
ENDROOT
BRANCH   7   9
ATOM      9  C   UNL     1       7.277  -3.738  22.423  0.00  0.00    +0.263 C 
ATOM     10  O   UNL     1       6.466  -2.870  22.119  0.00  0.00    -0.296 OA
ENDBRANCH   7   9
BRANCH   8  11
ATOM     11  O   UNL     1       5.317  -5.361  23.449  0.00  0.00    -0.501 OA
ATOM     12  H   UNL     1       4.971  -6.259  23.582  0.00  0.00    +0.292 HD
ENDBRANCH   8  11
BRANCH   6  13
ATOM     13  C   UNL     1       9.689  -3.139  24.180  0.00  0.00    +0.214 C 
BRANCH  13  14
ATOM     14  O   UNL     1       9.456  -1.797  24.585  0.00  0.00    -0.282 OA
BRANCH  14  15
ATOM     15  P   UNL     1       9.872  -0.602  23.406  0.00  0.00    +0.473 P 
ATOM     16  O   UNL     1      10.246   0.467  22.350  0.00  0.00    -0.228 OA
BRANCH  15  17
ATOM     17  O   UNL     1       8.276  -0.642  23.063  0.00  0.00    -0.303 OA
ATOM     18  H   UNL     1       8.091  -0.007  22.351  0.00  0.00    +0.222 HD
ENDBRANCH  15  17
BRANCH  15  19
ATOM     19  O   UNL     1      10.324  -1.890  22.503  0.00  0.00    -0.303 OA
ATOM     20  H   UNL     1      11.290  -2.001  22.484  0.00  0.00    +0.222 HD
ENDBRANCH  15  19
ENDBRANCH  14  15
ENDBRANCH  13  14
ENDBRANCH   6  13
TORSDOF 7
ENDMDL
MODEL 6
REMARK VINA RESULT:      -5.1      2.932      4.715
REMARK  Name = 
REMARK  8 active torsions:
REMARK  status: ('A' for Active; 'I' for Inactive)
REMARK    1  A    between atoms: C_1  and  C_2
REMARK    2  A    between atoms: C_3  and  O_4
REMARK    3  A    between atoms: C_5  and  C_6
REMARK    4  A    between atoms: C_8  and  C_9
REMARK    5  A    between atoms: C_9  and  O_10
REMARK    6  A    between atoms: O_10  and  P_11
REMARK    7  A    between atoms: P_11  and  O_12
REMARK    8  A    between atoms: P_11  and  O_13
REMARK                            x       y       z     vdW  Elec       q    Type
REMARK                         _______ _______ _______ _____ _____    ______ ____
ROOT
ATOM      1  C   UNL     1       9.943   0.414  24.837  0.00  0.00    +0.127 C 
ATOM      2  C   UNL     1       9.372  -0.957  24.657  0.00  0.00    +0.234 A 
ATOM      3  N   UNL     1       9.424  -1.460  23.357  0.00  0.00    -0.171 N 
ATOM      4  O   UNL     1       9.934  -0.776  22.407  0.00  0.00    -0.620 OA
ATOM      5  C   UNL     1       8.926  -2.714  23.080  0.00  0.00    +0.329 A 
ATOM      6  C   UNL     1       8.358  -3.547  24.071  0.00  0.00    +0.057 A 
ATOM      7  C   UNL     1       8.265  -3.025  25.371  0.00  0.00    +0.073 A 
ATOM      8  C   UNL     1       8.788  -1.747  25.662  0.00  0.00    +0.196 A 
ENDROOT
BRANCH   7   9
ATOM      9  C   UNL     1       7.613  -3.782  26.473  0.00  0.00    +0.263 C 
ATOM     10  O   UNL     1       8.228  -4.575  27.177  0.00  0.00    -0.296 OA
ENDBRANCH   7   9
BRANCH   8  11
ATOM     11  O   UNL     1       8.698  -1.308  26.959  0.00  0.00    -0.501 OA
ATOM     12  H   UNL     1       8.756  -0.341  27.021  0.00  0.00    +0.292 HD
ENDBRANCH   8  11
BRANCH   6  13
ATOM     13  C   UNL     1       7.865  -4.915  23.660  0.00  0.00    +0.214 C 
BRANCH  13  14
ATOM     14  O   UNL     1       6.520  -4.778  23.223  0.00  0.00    -0.282 OA
BRANCH  14  15
ATOM     15  P   UNL     1       6.247  -5.216  21.572  0.00  0.00    +0.473 P 
ATOM     16  O   UNL     1       6.003  -5.608  20.095  0.00  0.00    -0.228 OA
BRANCH  15  17
ATOM     17  O   UNL     1       5.415  -3.811  21.525  0.00  0.00    -0.303 OA
ATOM     18  H   UNL     1       5.043  -3.636  22.406  0.00  0.00    +0.222 HD
ENDBRANCH  15  17
BRANCH  15  19
ATOM     19  O   UNL     1       5.060  -6.156  22.191  0.00  0.00    -0.303 OA
ATOM     20  H   UNL     1       5.137  -6.252  23.155  0.00  0.00    +0.222 HD
ENDBRANCH  15  19
ENDBRANCH  14  15
ENDBRANCH  13  14
ENDBRANCH   6  13
TORSDOF 7
ENDMDL
MODEL 7
REMARK VINA RESULT:      -4.9      2.164      3.445
REMARK  Name = 
REMARK  8 active torsions:
REMARK  status: ('A' for Active; 'I' for Inactive)
REMARK    1  A    between atoms: C_1  and  C_2
REMARK    2  A    between atoms: C_3  and  O_4
REMARK    3  A    between atoms: C_5  and  C_6
REMARK    4  A    between atoms: C_8  and  C_9
REMARK    5  A    between atoms: C_9  and  O_10
REMARK    6  A    between atoms: O_10  and  P_11
REMARK    7  A    between atoms: P_11  and  O_12
REMARK    8  A    between atoms: P_11  and  O_13
REMARK                            x       y       z     vdW  Elec       q    Type
REMARK                         _______ _______ _______ _____ _____    ______ ____
ROOT
ATOM      1  C   UNL     1       9.940   5.893  23.650  0.00  0.00    +0.127 C 
ATOM      2  C   UNL     1       9.845   4.429  23.942  0.00  0.00    +0.234 A 
ATOM      3  N   UNL     1      10.954   3.671  23.563  0.00  0.00    -0.171 N 
ATOM      4  O   UNL     1      11.966   4.217  23.011  0.00  0.00    -0.620 OA
ATOM      5  C   UNL     1      10.970   2.312  23.786  0.00  0.00    +0.329 A 
ATOM      6  C   UNL     1       9.901   1.624  24.404  0.00  0.00    +0.057 A 
ATOM      7  C   UNL     1       8.766   2.378  24.745  0.00  0.00    +0.073 A 
ATOM      8  C   UNL     1       8.751   3.774  24.534  0.00  0.00    +0.196 A 
ENDROOT
BRANCH   7   9
ATOM      9  C   UNL     1       7.552   1.746  25.327  0.00  0.00    +0.263 C 
ATOM     10  O   UNL     1       6.480   1.716  24.732  0.00  0.00    -0.296 OA
ENDBRANCH   7   9
BRANCH   8  11
ATOM     11  O   UNL     1       7.628   4.459  24.922  0.00  0.00    -0.501 OA
ATOM     12  H   UNL     1       6.882   3.864  25.103  0.00  0.00    +0.292 HD
ENDBRANCH   8  11
BRANCH   6  13
ATOM     13  C   UNL     1      10.036   0.135  24.621  0.00  0.00    +0.214 C 
BRANCH  13  14
ATOM     14  O   UNL     1      10.403  -0.453  23.381  0.00  0.00    -0.282 OA
BRANCH  14  15
ATOM     15  P   UNL     1       9.280  -1.619  22.773  0.00  0.00    +0.473 P 
ATOM     16  O   UNL     1       8.275  -2.664  22.228  0.00  0.00    -0.228 OA
BRANCH  15  17
ATOM     17  O   UNL     1      10.236  -2.685  23.560  0.00  0.00    -0.303 OA
ATOM     18  H   UNL     1      10.959  -2.955  22.969  0.00  0.00    +0.222 HD
ENDBRANCH  15  17
BRANCH  15  19
ATOM     19  O   UNL     1      10.161  -1.505  21.399  0.00  0.00    -0.303 OA
ATOM     20  H   UNL     1      10.437  -2.378  21.070  0.00  0.00    +0.222 HD
ENDBRANCH  15  19
ENDBRANCH  14  15
ENDBRANCH  13  14
ENDBRANCH   6  13
TORSDOF 7
ENDMDL
MODEL 8
REMARK VINA RESULT:      -4.8      3.491      5.936
REMARK  Name = 
REMARK  8 active torsions:
REMARK  status: ('A' for Active; 'I' for Inactive)
REMARK    1  A    between atoms: C_1  and  C_2
REMARK    2  A    between atoms: C_3  and  O_4
REMARK    3  A    between atoms: C_5  and  C_6
REMARK    4  A    between atoms: C_8  and  C_9
REMARK    5  A    between atoms: C_9  and  O_10
REMARK    6  A    between atoms: O_10  and  P_11
REMARK    7  A    between atoms: P_11  and  O_12
REMARK    8  A    between atoms: P_11  and  O_13
REMARK                            x       y       z     vdW  Elec       q    Type
REMARK                         _______ _______ _______ _____ _____    ______ ____
ROOT
ATOM      1  C   UNL     1       5.381  -4.205  28.042  0.00  0.00    +0.127 C 
ATOM      2  C   UNL     1       6.460  -3.823  27.078  0.00  0.00    +0.234 A 
ATOM      3  N   UNL     1       6.261  -2.616  26.406  0.00  0.00    -0.171 N 
ATOM      4  O   UNL     1       5.223  -1.906  26.623  0.00  0.00    -0.620 OA
ATOM      5  C   UNL     1       7.193  -2.170  25.496  0.00  0.00    +0.329 A 
ATOM      6  C   UNL     1       8.379  -2.881  25.203  0.00  0.00    +0.057 A 
ATOM      7  C   UNL     1       8.559  -4.117  25.845  0.00  0.00    +0.073 A 
ATOM      8  C   UNL     1       7.614  -4.571  26.791  0.00  0.00    +0.196 A 
ENDROOT
BRANCH   7   9
ATOM      9  C   UNL     1       9.729  -4.987  25.553  0.00  0.00    +0.263 C 
ATOM     10  O   UNL     1       9.678  -5.904  24.740  0.00  0.00    -0.296 OA
ENDBRANCH   7   9
BRANCH   8  11
ATOM     11  O   UNL     1       7.866  -5.769  27.410  0.00  0.00    -0.501 OA
ATOM     12  H   UNL     1       7.535  -6.523  26.893  0.00  0.00    +0.292 HD
ENDBRANCH   8  11
BRANCH   6  13
ATOM     13  C   UNL     1       9.344  -2.286  24.205  0.00  0.00    +0.214 C 
BRANCH  13  14
ATOM     14  O   UNL     1       8.581  -1.648  23.191  0.00  0.00    -0.282 OA
BRANCH  14  15
ATOM     15  P   UNL     1       9.382  -0.332  22.403  0.00  0.00    +0.473 P 
ATOM     16  O   UNL     1      10.098   0.845  21.698  0.00  0.00    -0.228 OA
BRANCH  15  17
ATOM     17  O   UNL     1      10.164  -1.522  21.604  0.00  0.00    -0.303 OA
ATOM     18  H   UNL     1       9.836  -2.382  21.919  0.00  0.00    +0.222 HD
ENDBRANCH  15  17
BRANCH  15  19
ATOM     19  O   UNL     1      10.317  -0.315  23.745  0.00  0.00    -0.303 OA
ATOM     20  H   UNL     1       9.885  -0.758  24.495  0.00  0.00    +0.222 HD
ENDBRANCH  15  19
ENDBRANCH  14  15
ENDBRANCH  13  14
ENDBRANCH   6  13
TORSDOF 7
ENDMDL
MODEL 9
REMARK VINA RESULT:      -4.8      4.250      6.169
REMARK  Name = 
REMARK  8 active torsions:
REMARK  status: ('A' for Active; 'I' for Inactive)
REMARK    1  A    between atoms: C_1  and  C_2
REMARK    2  A    between atoms: C_3  and  O_4
REMARK    3  A    between atoms: C_5  and  C_6
REMARK    4  A    between atoms: C_8  and  C_9
REMARK    5  A    between atoms: C_9  and  O_10
REMARK    6  A    between atoms: O_10  and  P_11
REMARK    7  A    between atoms: P_11  and  O_12
REMARK    8  A    between atoms: P_11  and  O_13
REMARK                            x       y       z     vdW  Elec       q    Type
REMARK                         _______ _______ _______ _____ _____    ______ ____
ROOT
ATOM      1  C   UNL     1       8.305  -2.305  22.453  0.00  0.00    +0.127 C 
ATOM      2  C   UNL     1       7.400  -3.129  23.314  0.00  0.00    +0.234 A 
ATOM      3  N   UNL     1       7.457  -2.850  24.680  0.00  0.00    -0.171 N 
ATOM      4  O   UNL     1       8.235  -1.946  25.134  0.00  0.00    -0.620 OA
ATOM      5  C   UNL     1       6.664  -3.550  25.562  0.00  0.00    +0.329 A 
ATOM      6  C   UNL     1       5.763  -4.557  25.148  0.00  0.00    +0.057 A 
ATOM      7  C   UNL     1       5.736  -4.870  23.780  0.00  0.00    +0.073 A 
ATOM      8  C   UNL     1       6.535  -4.144  22.869  0.00  0.00    +0.196 A 
ENDROOT
BRANCH   7   9
ATOM      9  C   UNL     1       4.886  -5.966  23.243  0.00  0.00    +0.263 C 
ATOM     10  O   UNL     1       3.836  -5.750  22.648  0.00  0.00    -0.296 OA
ENDBRANCH   7   9
BRANCH   8  11
ATOM     11  O   UNL     1       6.437  -4.474  21.541  0.00  0.00    -0.501 OA
ATOM     12  H   UNL     1       5.848  -5.232  21.397  0.00  0.00    +0.292 HD
ENDBRANCH   8  11
BRANCH   6  13
ATOM     13  C   UNL     1       4.924  -5.245  26.200  0.00  0.00    +0.214 C 
BRANCH  13  14
ATOM     14  O   UNL     1       5.722  -6.256  26.799  0.00  0.00    -0.282 OA
BRANCH  14  15
ATOM     15  P   UNL     1       6.004  -6.047  28.492  0.00  0.00    +0.473 P 
ATOM     16  O   UNL     1       6.256  -5.860  30.008  0.00  0.00    -0.228 OA
BRANCH  15  17
ATOM     17  O   UNL     1       7.576  -6.144  28.060  0.00  0.00    -0.303 OA
ATOM     18  H   UNL     1       7.926  -7.007  28.337  0.00  0.00    +0.222 HD
ENDBRANCH  15  17
BRANCH  15  19
ATOM     19  O   UNL     1       5.698  -7.652  28.572  0.00  0.00    -0.303 OA
ATOM     20  H   UNL     1       5.712  -7.980  29.487  0.00  0.00    +0.222 HD
ENDBRANCH  15  19
ENDBRANCH  14  15
ENDBRANCH  13  14
ENDBRANCH   6  13
TORSDOF 7
ENDMDL
