MODEL 1
REMARK VINA RESULT:      -5.9      0.000      0.000
REMARK  Name = 
REMARK  3 active torsions:
REMARK  status: ('A' for Active; 'I' for Inactive)
REMARK    1  A    between atoms: C_1  and  C_2
REMARK    2  A    between atoms: C_2  and  C_3
REMARK    3  A    between atoms: C_3  and  C_11
REMARK                            x       y       z     vdW  Elec       q    Type
REMARK                         _______ _______ _______ _____ _____    ______ ____
ROOT
ATOM      1  C   UNL     1       8.037  -3.979  24.465  0.00  0.00    +0.147 C 
ATOM      2  C   UNL     1       9.084  -4.833  25.208  0.00  0.00    +0.234 C 
ATOM      3  O   UNL     1      10.271  -4.910  24.892  0.00  0.00    -0.274 OA
ATOM      4  N   UNL     1       8.611  -5.694  26.161  0.00  0.00    -0.299 N 
ATOM      5  H   UNL     1       9.349  -6.258  26.564  0.00  0.00    +0.150 HD
ATOM      6  C   UNL     1       7.553  -5.308  27.027  0.00  0.00    +0.212 C 
ATOM      7  N   UNL     1       6.549  -4.544  26.374  0.00  0.00    -0.299 N 
ATOM      8  H   UNL     1       5.760  -4.241  26.936  0.00  0.00    +0.150 HD
ATOM      9  C   UNL     1       6.863  -3.636  25.404  0.00  0.00    +0.234 C 
ATOM     10  O   UNL     1       6.110  -2.672  25.259  0.00  0.00    -0.274 OA
ENDROOT
BRANCH   1  11
ATOM     11  C   UNL     1       8.704  -2.722  23.853  0.00  0.00    -0.024 A 
ATOM     12  C   UNL     1       9.340  -1.757  24.657  0.00  0.00    +0.005 A 
ATOM     13  C   UNL     1      10.008  -0.663  24.096  0.00  0.00    +0.000 A 
ATOM     14  C   UNL     1      10.026  -0.489  22.718  0.00  0.00    +0.000 A 
ATOM     15  C   UNL     1       9.350  -1.392  21.903  0.00  0.00    +0.000 A 
ATOM     16  C   UNL     1       8.684  -2.488  22.465  0.00  0.00    +0.005 A 
ENDBRANCH   1  11
BRANCH   1  18
ATOM     17  C   UNL     1       6.007  -4.667  22.962  0.00  0.00    +0.006 C 
ATOM     18  C   UNL     1       7.438  -4.964  23.402  0.00  0.00    +0.027 C 
ENDBRANCH   1  18
TORSDOF 2
ENDMDL
MODEL 2
REMARK VINA RESULT:      -5.6      3.095      4.890
REMARK  Name = 
REMARK  3 active torsions:
REMARK  status: ('A' for Active; 'I' for Inactive)
REMARK    1  A    between atoms: C_1  and  C_2
REMARK    2  A    between atoms: C_2  and  C_3
REMARK    3  A    between atoms: C_3  and  C_11
REMARK                            x       y       z     vdW  Elec       q    Type
REMARK                         _______ _______ _______ _____ _____    ______ ____
ROOT
ATOM      1  C   UNL     1       8.828  -1.117  23.466  0.00  0.00    +0.147 C 
ATOM      2  C   UNL     1       9.898  -0.835  22.393  0.00  0.00    +0.234 C 
ATOM      3  O   UNL     1      10.745  -1.648  22.023  0.00  0.00    -0.274 OA
ATOM      4  N   UNL     1      10.016   0.461  21.966  0.00  0.00    -0.299 N 
ATOM      5  H   UNL     1      10.774   0.576  21.305  0.00  0.00    +0.150 HD
ATOM      6  C   UNL     1       8.863   1.267  21.768  0.00  0.00    +0.212 C 
ATOM      7  N   UNL     1       7.862   1.061  22.756  0.00  0.00    -0.299 N 
ATOM      8  H   UNL     1       7.014   1.612  22.676  0.00  0.00    +0.150 HD
ATOM      9  C   UNL     1       7.619  -0.178  23.276  0.00  0.00    +0.234 C 
ATOM     10  O   UNL     1       6.480  -0.414  23.679  0.00  0.00    -0.274 OA
ENDROOT
BRANCH   1  11
ATOM     11  C   UNL     1       8.433  -2.614  23.453  0.00  0.00    -0.024 A 
ATOM     12  C   UNL     1       8.881  -3.507  24.447  0.00  0.00    +0.005 A 
ATOM     13  C   UNL     1       8.460  -4.840  24.474  0.00  0.00    +0.000 A 
ATOM     14  C   UNL     1       7.609  -5.324  23.488  0.00  0.00    +0.000 A 
ATOM     15  C   UNL     1       7.204  -4.482  22.458  0.00  0.00    +0.000 A 
ATOM     16  C   UNL     1       7.623  -3.146  22.432  0.00  0.00    +0.005 A 
ENDBRANCH   1  11
BRANCH   1  18
ATOM     17  C   UNL     1       8.554  -0.390  25.966  0.00  0.00    +0.006 C 
ATOM     18  C   UNL     1       9.505  -0.648  24.800  0.00  0.00    +0.027 C 
ENDBRANCH   1  18
TORSDOF 2
ENDMDL
MODEL 3
REMARK VINA RESULT:      -5.5      1.997      3.871
REMARK  Name = 
REMARK  3 active torsions:
REMARK  status: ('A' for Active; 'I' for Inactive)
REMARK    1  A    between atoms: C_1  and  C_2
REMARK    2  A    between atoms: C_2  and  C_3
REMARK    3  A    between atoms: C_3  and  C_11
REMARK                            x       y       z     vdW  Elec       q    Type
REMARK                         _______ _______ _______ _____ _____    ______ ____
ROOT
ATOM      1  C   UNL     1       8.525  -1.467  24.541  0.00  0.00    +0.147 C 
ATOM      2  C   UNL     1       7.000  -1.472  24.319  0.00  0.00    +0.234 C 
ATOM      3  O   UNL     1       6.316  -0.461  24.158  0.00  0.00    -0.274 OA
ATOM      4  N   UNL     1       6.356  -2.666  24.498  0.00  0.00    -0.299 N 
ATOM      5  H   UNL     1       5.352  -2.578  24.389  0.00  0.00    +0.150 HD
ATOM      6  C   UNL     1       6.944  -3.882  24.055  0.00  0.00    +0.212 C 
ATOM      7  N   UNL     1       8.348  -3.932  24.270  0.00  0.00    -0.299 N 
ATOM      8  H   UNL     1       8.830  -4.777  23.981  0.00  0.00    +0.150 HD
ATOM      9  C   UNL     1       9.131  -2.823  24.123  0.00  0.00    +0.234 C 
ATOM     10  O   UNL     1      10.305  -2.992  23.795  0.00  0.00    -0.274 OA
ENDROOT
BRANCH   1  11
ATOM     11  C   UNL     1       9.172  -0.268  23.805  0.00  0.00    -0.024 A 
ATOM     12  C   UNL     1       9.029  -0.088  22.415  0.00  0.00    +0.005 A 
ATOM     13  C   UNL     1       9.549   1.037  21.766  0.00  0.00    +0.000 A 
ATOM     14  C   UNL     1      10.257   1.992  22.485  0.00  0.00    +0.000 A 
ATOM     15  C   UNL     1      10.470   1.807  23.847  0.00  0.00    +0.000 A 
ATOM     16  C   UNL     1       9.947   0.682  24.497  0.00  0.00    +0.005 A 
ENDBRANCH   1  11
BRANCH   1  18
ATOM     17  C   UNL     1       7.752  -0.433  26.818  0.00  0.00    +0.006 C 
ATOM     18  C   UNL     1       8.676  -1.413  26.101  0.00  0.00    +0.027 C 
ENDBRANCH   1  18
TORSDOF 2
ENDMDL
MODEL 4
REMARK VINA RESULT:      -5.4      1.900      3.225
REMARK  Name = 
REMARK  3 active torsions:
REMARK  status: ('A' for Active; 'I' for Inactive)
REMARK    1  A    between atoms: C_1  and  C_2
REMARK    2  A    between atoms: C_2  and  C_3
REMARK    3  A    between atoms: C_3  and  C_11
REMARK                            x       y       z     vdW  Elec       q    Type
REMARK                         _______ _______ _______ _____ _____    ______ ____
ROOT
ATOM      1  C   UNL     1       7.774  -2.497  23.827  0.00  0.00    +0.147 C 
ATOM      2  C   UNL     1       6.578  -3.078  23.047  0.00  0.00    +0.234 C 
ATOM      3  O   UNL     1       5.776  -2.407  22.398  0.00  0.00    -0.274 OA
ATOM      4  N   UNL     1       6.297  -4.403  23.250  0.00  0.00    -0.299 N 
ATOM      5  H   UNL     1       5.467  -4.697  22.748  0.00  0.00    +0.150 HD
ATOM      6  C   UNL     1       7.343  -5.356  23.373  0.00  0.00    +0.212 C 
ATOM      7  N   UNL     1       8.455  -4.871  24.113  0.00  0.00    -0.299 N 
ATOM      8  H   UNL     1       9.236  -5.506  24.244  0.00  0.00    +0.150 HD
ATOM      9  C   UNL     1       8.864  -3.572  24.013  0.00  0.00    +0.234 C 
ATOM     10  O   UNL     1      10.056  -3.333  24.210  0.00  0.00    -0.274 OA
ENDROOT
BRANCH   1  11
ATOM     11  C   UNL     1       8.303  -1.220  23.127  0.00  0.00    -0.024 A 
ATOM     12  C   UNL     1       8.117   0.060  23.685  0.00  0.00    +0.005 A 
ATOM     13  C   UNL     1       8.663   1.202  23.089  0.00  0.00    +0.000 A 
ATOM     14  C   UNL     1       9.378   1.097  21.903  0.00  0.00    +0.000 A 
ATOM     15  C   UNL     1       9.521  -0.147  21.296  0.00  0.00    +0.000 A 
ATOM     16  C   UNL     1       8.977  -1.290  21.894  0.00  0.00    +0.005 A 
ENDBRANCH   1  11
BRANCH   1  18
ATOM     17  C   UNL     1       8.232  -2.153  26.381  0.00  0.00    +0.006 C 
ATOM     18  C   UNL     1       7.197  -2.244  25.263  0.00  0.00    +0.027 C 
ENDBRANCH   1  18
TORSDOF 2
ENDMDL
MODEL 5
REMARK VINA RESULT:      -5.4      1.768      2.485
REMARK  Name = 
REMARK  3 active torsions:
REMARK  status: ('A' for Active; 'I' for Inactive)
REMARK    1  A    between atoms: C_1  and  C_2
REMARK    2  A    between atoms: C_2  and  C_3
REMARK    3  A    between atoms: C_3  and  C_11
REMARK                            x       y       z     vdW  Elec       q    Type
REMARK                         _______ _______ _______ _____ _____    ______ ____
ROOT
ATOM      1  C   UNL     1       8.353  -1.923  23.873  0.00  0.00    +0.147 C 
ATOM      2  C   UNL     1       9.432  -2.952  24.265  0.00  0.00    +0.234 C 
ATOM      3  O   UNL     1      10.542  -3.033  23.739  0.00  0.00    -0.274 OA
ATOM      4  N   UNL     1       9.050  -3.947  25.125  0.00  0.00    -0.299 N 
ATOM      5  H   UNL     1       9.795  -4.613  25.291  0.00  0.00    +0.150 HD
ATOM      6  C   UNL     1       8.183  -3.669  26.216  0.00  0.00    +0.212 C 
ATOM      7  N   UNL     1       7.153  -2.747  25.889  0.00  0.00    -0.299 N 
ATOM      8  H   UNL     1       6.494  -2.510  26.623  0.00  0.00    +0.150 HD
ATOM      9  C   UNL     1       7.380  -1.695  25.048  0.00  0.00    +0.234 C 
ATOM     10  O   UNL     1       6.696  -0.683  25.204  0.00  0.00    -0.274 OA
ENDROOT
BRANCH   1  11
ATOM     11  C   UNL     1       9.014  -0.613  23.378  0.00  0.00    -0.024 A 
ATOM     12  C   UNL     1       8.934  -0.207  22.031  0.00  0.00    +0.005 A 
ATOM     13  C   UNL     1       9.465   1.014  21.604  0.00  0.00    +0.000 A 
ATOM     14  C   UNL     1      10.121   1.844  22.505  0.00  0.00    +0.000 A 
ATOM     15  C   UNL     1      10.272   1.438  23.827  0.00  0.00    +0.000 A 
ATOM     16  C   UNL     1       9.737   0.217  24.256  0.00  0.00    +0.005 A 
ENDBRANCH   1  11
BRANCH   1  18
ATOM     17  C   UNL     1       6.016  -2.349  22.774  0.00  0.00    +0.006 C 
ATOM     18  C   UNL     1       7.509  -2.664  22.779  0.00  0.00    +0.027 C 
ENDBRANCH   1  18
TORSDOF 2
ENDMDL
MODEL 6
REMARK VINA RESULT:      -5.3      3.962      5.647
REMARK  Name = 
REMARK  3 active torsions:
REMARK  status: ('A' for Active; 'I' for Inactive)
REMARK    1  A    between atoms: C_1  and  C_2
REMARK    2  A    between atoms: C_2  and  C_3
REMARK    3  A    between atoms: C_3  and  C_11
REMARK                            x       y       z     vdW  Elec       q    Type
REMARK                         _______ _______ _______ _____ _____    ______ ____
ROOT
ATOM      1  C   UNL     1       8.454   0.356  23.111  0.00  0.00    +0.147 C 
ATOM      2  C   UNL     1       8.981   1.140  24.329  0.00  0.00    +0.234 C 
ATOM      3  O   UNL     1       8.816   0.802  25.501  0.00  0.00    -0.274 OA
ATOM      4  N   UNL     1       9.504   2.381  24.082  0.00  0.00    -0.299 N 
ATOM      5  H   UNL     1       9.777   2.855  24.934  0.00  0.00    +0.150 HD
ATOM      6  C   UNL     1      10.306   2.615  22.932  0.00  0.00    +0.212 C 
ATOM      7  N   UNL     1       9.835   1.934  21.777  0.00  0.00    -0.299 N 
ATOM      8  H   UNL     1      10.361   2.064  20.918  0.00  0.00    +0.150 HD
ATOM      9  C   UNL     1       9.293   0.684  21.859  0.00  0.00    +0.234 C 
ATOM     10  O   UNL     1       9.397  -0.049  20.875  0.00  0.00    -0.274 OA
ENDROOT
BRANCH   1  11
ATOM     11  C   UNL     1       8.411  -1.160  23.425  0.00  0.00    -0.024 A 
ATOM     12  C   UNL     1       9.541  -1.847  23.912  0.00  0.00    +0.005 A 
ATOM     13  C   UNL     1       9.477  -3.198  24.267  0.00  0.00    +0.000 A 
ATOM     14  C   UNL     1       8.291  -3.906  24.110  0.00  0.00    +0.000 A 
ATOM     15  C   UNL     1       7.179  -3.270  23.570  0.00  0.00    +0.000 A 
ATOM     16  C   UNL     1       7.242  -1.916  23.217  0.00  0.00    +0.005 A 
ENDBRANCH   1  11
BRANCH   1  18
ATOM     17  C   UNL     1       6.177   1.218  24.073  0.00  0.00    +0.006 C 
ATOM     18  C   UNL     1       7.046   0.990  22.839  0.00  0.00    +0.027 C 
ENDBRANCH   1  18
TORSDOF 2
ENDMDL
MODEL 7
REMARK VINA RESULT:      -5.3      2.961      4.829
REMARK  Name = 
REMARK  3 active torsions:
REMARK  status: ('A' for Active; 'I' for Inactive)
REMARK    1  A    between atoms: C_1  and  C_2
REMARK    2  A    between atoms: C_2  and  C_3
REMARK    3  A    between atoms: C_3  and  C_11
REMARK                            x       y       z     vdW  Elec       q    Type
REMARK                         _______ _______ _______ _____ _____    ______ ____
ROOT
ATOM      1  C   UNL     1       8.774  -1.256  24.565  0.00  0.00    +0.147 C 
ATOM      2  C   UNL     1       9.363  -0.541  25.796  0.00  0.00    +0.234 C 
ATOM      3  O   UNL     1       9.093  -0.826  26.963  0.00  0.00    -0.274 OA
ATOM      4  N   UNL     1      10.087   0.597  25.560  0.00  0.00    -0.299 N 
ATOM      5  H   UNL     1      10.393   1.039  26.418  0.00  0.00    +0.150 HD
ATOM      6  C   UNL     1      10.966   0.679  24.447  0.00  0.00    +0.212 C 
ATOM      7  N   UNL     1      10.447   0.058  23.279  0.00  0.00    -0.299 N 
ATOM      8  H   UNL     1      11.025   0.087  22.445  0.00  0.00    +0.150 HD
ATOM      9  C   UNL     1       9.710  -1.089  23.350  0.00  0.00    +0.234 C 
ATOM     10  O   UNL     1       9.742  -1.848  22.381  0.00  0.00    -0.274 OA
ENDROOT
BRANCH   1  11
ATOM     11  C   UNL     1       8.478  -2.740  24.894  0.00  0.00    -0.024 A 
ATOM     12  C   UNL     1       9.489  -3.721  24.866  0.00  0.00    +0.005 A 
ATOM     13  C   UNL     1       9.234  -5.044  25.239  0.00  0.00    +0.000 A 
ATOM     14  C   UNL     1       7.954  -5.429  25.616  0.00  0.00    +0.000 A 
ATOM     15  C   UNL     1       6.922  -4.496  25.590  0.00  0.00    +0.000 A 
ATOM     16  C   UNL     1       7.178  -3.171  25.219  0.00  0.00    +0.005 A 
ENDBRANCH   1  11
BRANCH   1  18
ATOM     17  C   UNL     1       6.887  -0.679  22.845  0.00  0.00    +0.006 C 
ATOM     18  C   UNL     1       7.498  -0.414  24.218  0.00  0.00    +0.027 C 
ENDBRANCH   1  18
TORSDOF 2
ENDMDL
MODEL 8
REMARK VINA RESULT:      -5.3      6.217      7.984
REMARK  Name = 
REMARK  3 active torsions:
REMARK  status: ('A' for Active; 'I' for Inactive)
REMARK    1  A    between atoms: C_1  and  C_2
REMARK    2  A    between atoms: C_2  and  C_3
REMARK    3  A    between atoms: C_3  and  C_11
REMARK                            x       y       z     vdW  Elec       q    Type
REMARK                         _______ _______ _______ _____ _____    ______ ____
ROOT
ATOM      1  C   UNL     1       8.189   3.857  23.482  0.00  0.00    +0.147 C 
ATOM      2  C   UNL     1       9.126   5.071  23.323  0.00  0.00    +0.234 C 
ATOM      3  O   UNL     1      10.301   5.097  23.689  0.00  0.00    -0.274 OA
ATOM      4  N   UNL     1       8.549   6.244  22.917  0.00  0.00    -0.299 N 
ATOM      5  H   UNL     1       9.216   7.007  22.890  0.00  0.00    +0.150 HD
ATOM      6  C   UNL     1       7.531   6.247  21.926  0.00  0.00    +0.212 C 
ATOM      7  N   UNL     1       6.625   5.160  22.055  0.00  0.00    -0.299 N 
ATOM      8  H   UNL     1       5.868   5.107  21.381  0.00  0.00    +0.150 HD
ATOM      9  C   UNL     1       7.050   3.922  22.445  0.00  0.00    +0.234 C 
ATOM     10  O   UNL     1       6.410   2.948  22.046  0.00  0.00    -0.274 OA
ENDROOT
BRANCH   1  11
ATOM     11  C   UNL     1       8.999   2.539  23.403  0.00  0.00    -0.024 A 
ATOM     12  C   UNL     1       9.422   1.860  24.562  0.00  0.00    +0.005 A 
ATOM     13  C   UNL     1      10.085   0.631  24.487  0.00  0.00    +0.000 A 
ATOM     14  C   UNL     1      10.373   0.067  23.250  0.00  0.00    +0.000 A 
ATOM     15  C   UNL     1      10.025   0.748  22.089  0.00  0.00    +0.000 A 
ATOM     16  C   UNL     1       9.359   1.977  22.163  0.00  0.00    +0.005 A 
ENDBRANCH   1  11
BRANCH   1  18
ATOM     17  C   UNL     1       6.251   3.258  25.136  0.00  0.00    +0.006 C 
ATOM     18  C   UNL     1       7.497   4.097  24.868  0.00  0.00    +0.027 C 
ENDBRANCH   1  18
TORSDOF 2
ENDMDL
MODEL 9
REMARK VINA RESULT:      -5.3      2.966      4.652
REMARK  Name = 
REMARK  3 active torsions:
REMARK  status: ('A' for Active; 'I' for Inactive)
REMARK    1  A    between atoms: C_1  and  C_2
REMARK    2  A    between atoms: C_2  and  C_3
REMARK    3  A    between atoms: C_3  and  C_11
REMARK                            x       y       z     vdW  Elec       q    Type
REMARK                         _______ _______ _______ _____ _____    ______ ____
ROOT
ATOM      1  C   UNL     1       8.664  -1.176  23.812  0.00  0.00    +0.147 C 
ATOM      2  C   UNL     1       8.922  -0.914  25.310  0.00  0.00    +0.234 C 
ATOM      3  O   UNL     1       8.357  -1.508  26.228  0.00  0.00    -0.274 OA
ATOM      4  N   UNL     1       9.692   0.175  25.620  0.00  0.00    -0.299 N 
ATOM      5  H   UNL     1       9.770   0.313  26.620  0.00  0.00    +0.150 HD
ATOM      6  C   UNL     1      10.830   0.506  24.836  0.00  0.00    +0.212 C 
ATOM      7  N   UNL     1      10.624   0.309  23.444  0.00  0.00    -0.299 N 
ATOM      8  H   UNL     1      11.397   0.533  22.826  0.00  0.00    +0.150 HD
ATOM      9  C   UNL     1       9.883  -0.738  22.975  0.00  0.00    +0.234 C 
ATOM     10  O   UNL     1      10.157  -1.175  21.857  0.00  0.00    -0.274 OA
ENDROOT
BRANCH   1  11
ATOM     11  C   UNL     1       8.279  -2.658  23.584  0.00  0.00    -0.024 A 
ATOM     12  C   UNL     1       8.839  -3.695  24.356  0.00  0.00    +0.005 A 
ATOM     13  C   UNL     1       8.432  -5.024  24.199  0.00  0.00    +0.000 A 
ATOM     14  C   UNL     1       7.481  -5.354  23.241  0.00  0.00    +0.000 A 
ATOM     15  C   UNL     1       6.960  -4.360  22.420  0.00  0.00    +0.000 A 
ATOM     16  C   UNL     1       7.365  -3.029  22.579  0.00  0.00    +0.005 A 
ENDBRANCH   1  11
BRANCH   1  18
ATOM     17  C   UNL     1       6.265  -0.246  24.298  0.00  0.00    +0.006 C 
ATOM     18  C   UNL     1       7.528  -0.159  23.445  0.00  0.00    +0.027 C 
ENDBRANCH   1  18
TORSDOF 2
ENDMDL
