MODEL 1
REMARK VINA RESULT:      -3.7      0.000      0.000
REMARK  Name = 
REMARK  8 active torsions:
REMARK  status: ('A' for Active; 'I' for Inactive)
REMARK    1  A    between atoms: O_1  and  C_2
REMARK    2  A    between atoms: C_2  and  C_3
REMARK    3  A    between atoms: C_3  and  O_5
REMARK    4  A    between atoms: C_3  and  C_6
REMARK    5  A    between atoms: C_6  and  O_7
REMARK    6  A    between atoms: O_7  and  P_8
REMARK    7  A    between atoms: P_8  and  O_9
REMARK    8  A    between atoms: P_8  and  O_10
REMARK                            x       y       z     vdW  Elec       q    Type
REMARK                         _______ _______ _______ _____ _____    ______ ____
ROOT
ATOM      1  C   UNL     1      10.414   0.072  23.262  0.00  0.00    +0.206 C 
ENDROOT
BRANCH   1   2
ATOM      2  C   UNL     1      10.214  -1.392  22.880  0.00  0.00    +0.166 C 
BRANCH   2   3
ATOM      3  O   UNL     1      10.303  -1.541  21.459  0.00  0.00    -0.387 OA
ATOM      4  H   UNL     1       9.418  -1.282  21.129  0.00  0.00    +0.210 HD
ENDBRANCH   2   3
BRANCH   2   5
ATOM      5  C   UNL     1       8.851  -1.921  23.340  0.00  0.00    +0.189 C 
BRANCH   5   6
ATOM      6  O   UNL     1       7.914  -1.737  22.275  0.00  0.00    -0.392 OA
ATOM      7  H   UNL     1       8.010  -2.501  21.680  0.00  0.00    +0.210 HD
ENDBRANCH   5   6
ENDBRANCH   2   5
ENDBRANCH   1   2
BRANCH   1   8
ATOM      8  O   UNL     1       9.167   0.748  23.238  0.00  0.00    -0.284 OA
BRANCH   8   9
ATOM      9  P   UNL     1       8.955   1.827  22.082  0.00  0.00    +0.472 P 
ATOM     10  O   UNL     1       7.884   2.844  22.264  0.00  0.00    -0.228 OA
BRANCH   9  11
ATOM     11  O   UNL     1       8.706   0.936  20.779  0.00  0.00    -0.303 OA
ATOM     12  H   UNL     1       7.846   0.479  20.850  0.00  0.00    +0.222 HD
ENDBRANCH   9  11
BRANCH   9  13
ATOM     13  O   UNL     1      10.412   2.383  21.754  0.00  0.00    -0.303 OA
ATOM     14  H   UNL     1      10.715   2.024  20.900  0.00  0.00    +0.222 HD
ENDBRANCH   9  13
ENDBRANCH   8   9
ENDBRANCH   1   8
TORSDOF 8
ENDMDL
MODEL 2
REMARK VINA RESULT:      -3.7      3.759      4.689
REMARK  Name = 
REMARK  8 active torsions:
REMARK  status: ('A' for Active; 'I' for Inactive)
REMARK    1  A    between atoms: O_1  and  C_2
REMARK    2  A    between atoms: C_2  and  C_3
REMARK    3  A    between atoms: C_3  and  O_5
REMARK    4  A    between atoms: C_3  and  C_6
REMARK    5  A    between atoms: C_6  and  O_7
REMARK    6  A    between atoms: O_7  and  P_8
REMARK    7  A    between atoms: P_8  and  O_9
REMARK    8  A    between atoms: P_8  and  O_10
REMARK                            x       y       z     vdW  Elec       q    Type
REMARK                         _______ _______ _______ _____ _____    ______ ____
ROOT
ATOM      1  C   UNL     1       9.032  -3.977  24.411  0.00  0.00    +0.206 C 
ENDROOT
BRANCH   1   2
ATOM      2  C   UNL     1       9.401  -4.657  25.726  0.00  0.00    +0.166 C 
BRANCH   2   3
ATOM      3  O   UNL     1       9.788  -6.014  25.481  0.00  0.00    -0.387 OA
ATOM      4  H   UNL     1       9.003  -6.542  25.731  0.00  0.00    +0.210 HD
ENDBRANCH   2   3
BRANCH   2   5
ATOM      5  C   UNL     1       8.233  -4.656  26.718  0.00  0.00    +0.189 C 
BRANCH   5   6
ATOM      6  O   UNL     1       8.018  -5.998  27.162  0.00  0.00    -0.392 OA
ATOM      7  H   UNL     1       8.549  -6.115  27.971  0.00  0.00    +0.210 HD
ENDBRANCH   5   6
ENDBRANCH   2   5
ENDBRANCH   1   2
BRANCH   1   8
ATOM      8  O   UNL     1      10.134  -3.216  23.941  0.00  0.00    -0.284 OA
BRANCH   8   9
ATOM      9  P   UNL     1       9.816  -1.755  23.384  0.00  0.00    +0.472 P 
ATOM     10  O   UNL     1      10.132  -0.592  24.256  0.00  0.00    -0.228 OA
BRANCH   9  11
ATOM     11  O   UNL     1       8.259  -1.821  23.029  0.00  0.00    -0.303 OA
ATOM     12  H   UNL     1       7.804  -1.037  23.393  0.00  0.00    +0.222 HD
ENDBRANCH   9  11
BRANCH   9  13
ATOM     13  O   UNL     1      10.426  -1.724  21.912  0.00  0.00    -0.303 OA
ATOM     14  H   UNL     1      10.539  -2.635  21.585  0.00  0.00    +0.222 HD
ENDBRANCH   9  13
ENDBRANCH   8   9
ENDBRANCH   1   8
TORSDOF 8
ENDMDL
MODEL 3
REMARK VINA RESULT:      -3.7      1.996      3.974
REMARK  Name = 
REMARK  8 active torsions:
REMARK  status: ('A' for Active; 'I' for Inactive)
REMARK    1  A    between atoms: O_1  and  C_2
REMARK    2  A    between atoms: C_2  and  C_3
REMARK    3  A    between atoms: C_3  and  O_5
REMARK    4  A    between atoms: C_3  and  C_6
REMARK    5  A    between atoms: C_6  and  O_7
REMARK    6  A    between atoms: O_7  and  P_8
REMARK    7  A    between atoms: P_8  and  O_9
REMARK    8  A    between atoms: P_8  and  O_10
REMARK                            x       y       z     vdW  Elec       q    Type
REMARK                         _______ _______ _______ _____ _____    ______ ____
ROOT
ATOM      1  C   UNL     1       9.975   0.553  24.528  0.00  0.00    +0.206 C 
ENDROOT
BRANCH   1   2
ATOM      2  C   UNL     1       9.526   1.924  24.030  0.00  0.00    +0.166 C 
BRANCH   2   3
ATOM      3  O   UNL     1       8.223   1.827  23.444  0.00  0.00    -0.387 OA
ATOM      4  H   UNL     1       7.654   2.377  24.020  0.00  0.00    +0.210 HD
ENDBRANCH   2   3
BRANCH   2   5
ATOM      5  C   UNL     1      10.488   2.497  22.984  0.00  0.00    +0.189 C 
BRANCH   5   6
ATOM      6  O   UNL     1      10.023   2.114  21.687  0.00  0.00    -0.392 OA
ATOM      7  H   UNL     1       9.182   2.583  21.540  0.00  0.00    +0.210 HD
ENDBRANCH   5   6
ENDBRANCH   2   5
ENDBRANCH   1   2
BRANCH   1   8
ATOM      8  O   UNL     1      10.600  -0.158  23.470  0.00  0.00    -0.284 OA
BRANCH   8   9
ATOM      9  P   UNL     1       9.882  -1.495  22.978  0.00  0.00    +0.472 P 
ATOM     10  O   UNL     1      10.238  -2.769  23.660  0.00  0.00    -0.228 OA
BRANCH   9  11
ATOM     11  O   UNL     1      10.218  -1.548  21.417  0.00  0.00    -0.303 OA
ATOM     12  H   UNL     1       9.908  -2.394  21.041  0.00  0.00    +0.222 HD
ENDBRANCH   9  11
BRANCH   9  13
ATOM     13  O   UNL     1       8.330  -1.138  22.908  0.00  0.00    -0.303 OA
ATOM     14  H   UNL     1       8.001  -0.934  23.803  0.00  0.00    +0.222 HD
ENDBRANCH   9  13
ENDBRANCH   8   9
ENDBRANCH   1   8
TORSDOF 8
ENDMDL
MODEL 4
REMARK VINA RESULT:      -3.7      6.547      7.188
REMARK  Name = 
REMARK  8 active torsions:
REMARK  status: ('A' for Active; 'I' for Inactive)
REMARK    1  A    between atoms: O_1  and  C_2
REMARK    2  A    between atoms: C_2  and  C_3
REMARK    3  A    between atoms: C_3  and  O_5
REMARK    4  A    between atoms: C_3  and  C_6
REMARK    5  A    between atoms: C_6  and  O_7
REMARK    6  A    between atoms: O_7  and  P_8
REMARK    7  A    between atoms: P_8  and  O_9
REMARK    8  A    between atoms: P_8  and  O_10
REMARK                            x       y       z     vdW  Elec       q    Type
REMARK                         _______ _______ _______ _____ _____    ______ ____
ROOT
ATOM      1  C   UNL     1       7.727  -4.985  23.599  0.00  0.00    +0.206 C 
ENDROOT
BRANCH   1   2
ATOM      2  C   UNL     1       8.720  -4.730  24.729  0.00  0.00    +0.166 C 
BRANCH   2   3
ATOM      3  O   UNL     1       9.692  -5.781  24.769  0.00  0.00    -0.387 OA
ATOM      4  H   UNL     1      10.554  -5.318  24.732  0.00  0.00    +0.210 HD
ENDBRANCH   2   3
BRANCH   2   5
ATOM      5  C   UNL     1       8.027  -4.657  26.094  0.00  0.00    +0.189 C 
BRANCH   5   6
ATOM      6  O   UNL     1       8.112  -5.943  26.712  0.00  0.00    -0.392 OA
ATOM      7  H   UNL     1       9.050  -6.202  26.696  0.00  0.00    +0.210 HD
ENDBRANCH   5   6
ENDBRANCH   2   5
ENDBRANCH   1   2
BRANCH   1   8
ATOM      8  O   UNL     1       6.508  -5.478  24.135  0.00  0.00    -0.284 OA
BRANCH   8   9
ATOM      9  P   UNL     1       5.393  -5.935  23.090  0.00  0.00    +0.472 P 
ATOM     10  O   UNL     1       4.376  -4.933  22.673  0.00  0.00    -0.228 OA
BRANCH   9  11
ATOM     11  O   UNL     1       4.720  -7.203  23.790  0.00  0.00    -0.303 OA
ATOM     12  H   UNL     1       5.045  -7.285  24.708  0.00  0.00    +0.222 HD
ENDBRANCH   9  11
BRANCH   9  13
ATOM     13  O   UNL     1       6.190  -6.665  21.918  0.00  0.00    -0.303 OA
ATOM     14  H   UNL     1       5.559  -7.029  21.271  0.00  0.00    +0.222 HD
ENDBRANCH   9  13
ENDBRANCH   8   9
ENDBRANCH   1   8
TORSDOF 8
ENDMDL
MODEL 5
REMARK VINA RESULT:      -3.6      2.129      3.729
REMARK  Name = 
REMARK  8 active torsions:
REMARK  status: ('A' for Active; 'I' for Inactive)
REMARK    1  A    between atoms: O_1  and  C_2
REMARK    2  A    between atoms: C_2  and  C_3
REMARK    3  A    between atoms: C_3  and  O_5
REMARK    4  A    between atoms: C_3  and  C_6
REMARK    5  A    between atoms: C_6  and  O_7
REMARK    6  A    between atoms: O_7  and  P_8
REMARK    7  A    between atoms: P_8  and  O_9
REMARK    8  A    between atoms: P_8  and  O_10
REMARK                            x       y       z     vdW  Elec       q    Type
REMARK                         _______ _______ _______ _____ _____    ______ ____
ROOT
ATOM      1  C   UNL     1       8.336   0.929  22.668  0.00  0.00    +0.206 C 
ENDROOT
BRANCH   1   2
ATOM      2  C   UNL     1       9.340   2.074  22.762  0.00  0.00    +0.166 C 
BRANCH   2   3
ATOM      3  O   UNL     1      10.109   2.149  21.556  0.00  0.00    -0.387 OA
ATOM      4  H   UNL     1       9.684   2.864  21.039  0.00  0.00    +0.210 HD
ENDBRANCH   2   3
BRANCH   2   5
ATOM      5  C   UNL     1      10.303   1.896  23.941  0.00  0.00    +0.189 C 
BRANCH   5   6
ATOM      6  O   UNL     1       9.533   1.604  25.110  0.00  0.00    -0.392 OA
ATOM      7  H   UNL     1      10.062   1.893  25.875  0.00  0.00    +0.210 HD
ENDBRANCH   5   6
ENDBRANCH   2   5
ENDBRANCH   1   2
BRANCH   1   8
ATOM      8  O   UNL     1       8.908  -0.254  23.207  0.00  0.00    -0.284 OA
BRANCH   8   9
ATOM      9  P   UNL     1       9.184  -1.450  22.187  0.00  0.00    +0.472 P 
ATOM     10  O   UNL     1       8.230  -2.591  22.176  0.00  0.00    -0.228 OA
BRANCH   9  11
ATOM     11  O   UNL     1      10.665  -1.922  22.557  0.00  0.00    -0.303 OA
ATOM     12  H   UNL     1      11.012  -1.379  23.291  0.00  0.00    +0.222 HD
ENDBRANCH   9  11
BRANCH   9  13
ATOM     13  O   UNL     1       9.468  -0.749  20.784  0.00  0.00    -0.303 OA
ATOM     14  H   UNL     1       8.810  -1.047  20.130  0.00  0.00    +0.222 HD
ENDBRANCH   9  13
ENDBRANCH   8   9
ENDBRANCH   1   8
TORSDOF 8
ENDMDL
MODEL 6
REMARK VINA RESULT:      -3.6      4.008      5.752
REMARK  Name = 
REMARK  8 active torsions:
REMARK  status: ('A' for Active; 'I' for Inactive)
REMARK    1  A    between atoms: O_1  and  C_2
REMARK    2  A    between atoms: C_2  and  C_3
REMARK    3  A    between atoms: C_3  and  O_5
REMARK    4  A    between atoms: C_3  and  C_6
REMARK    5  A    between atoms: C_6  and  O_7
REMARK    6  A    between atoms: O_7  and  P_8
REMARK    7  A    between atoms: P_8  and  O_9
REMARK    8  A    between atoms: P_8  and  O_10
REMARK                            x       y       z     vdW  Elec       q    Type
REMARK                         _______ _______ _______ _____ _____    ______ ____
ROOT
ATOM      1  C   UNL     1       8.470  -2.554  24.732  0.00  0.00    +0.206 C 
ENDROOT
BRANCH   1   2
ATOM      2  C   UNL     1       9.612  -2.144  23.807  0.00  0.00    +0.166 C 
BRANCH   2   3
ATOM      3  O   UNL     1      10.198  -0.922  24.269  0.00  0.00    -0.387 OA
ATOM      4  H   UNL     1      10.454  -1.108  25.195  0.00  0.00    +0.210 HD
ENDBRANCH   2   3
BRANCH   2   5
ATOM      5  C   UNL     1       9.134  -1.939  22.365  0.00  0.00    +0.189 C 
BRANCH   5   6
ATOM      6  O   UNL     1      10.258  -1.557  21.568  0.00  0.00    -0.392 OA
ATOM      7  H   UNL     1      10.574  -0.705  21.917  0.00  0.00    +0.210 HD
ENDBRANCH   5   6
ENDBRANCH   2   5
ENDBRANCH   1   2
BRANCH   1   8
ATOM      8  O   UNL     1       8.933  -3.521  25.663  0.00  0.00    -0.284 OA
BRANCH   8   9
ATOM      9  P   UNL     1       9.065  -5.021  25.138  0.00  0.00    +0.472 P 
ATOM     10  O   UNL     1       8.404  -5.371  23.852  0.00  0.00    -0.228 OA
BRANCH   9  11
ATOM     11  O   UNL     1       8.495  -5.893  26.350  0.00  0.00    -0.303 OA
ATOM     12  H   UNL     1       7.519  -5.874  26.341  0.00  0.00    +0.222 HD
ENDBRANCH   9  11
BRANCH   9  13
ATOM     13  O   UNL     1      10.614  -5.374  25.258  0.00  0.00    -0.303 OA
ATOM     14  H   UNL     1      11.021  -4.831  25.958  0.00  0.00    +0.222 HD
ENDBRANCH   9  13
ENDBRANCH   8   9
ENDBRANCH   1   8
TORSDOF 8
ENDMDL
MODEL 7
REMARK VINA RESULT:      -3.6      2.198      4.110
REMARK  Name = 
REMARK  8 active torsions:
REMARK  status: ('A' for Active; 'I' for Inactive)
REMARK    1  A    between atoms: O_1  and  C_2
REMARK    2  A    between atoms: C_2  and  C_3
REMARK    3  A    between atoms: C_3  and  O_5
REMARK    4  A    between atoms: C_3  and  C_6
REMARK    5  A    between atoms: C_6  and  O_7
REMARK    6  A    between atoms: O_7  and  P_8
REMARK    7  A    between atoms: P_8  and  O_9
REMARK    8  A    between atoms: P_8  and  O_10
REMARK                            x       y       z     vdW  Elec       q    Type
REMARK                         _______ _______ _______ _____ _____    ______ ____
ROOT
ATOM      1  C   UNL     1       9.913  -0.050  22.089  0.00  0.00    +0.206 C 
ENDROOT
BRANCH   1   2
ATOM      2  C   UNL     1       9.798   1.372  22.631  0.00  0.00    +0.166 C 
BRANCH   2   3
ATOM      3  O   UNL     1      10.254   2.307  21.646  0.00  0.00    -0.387 OA
ATOM      4  H   UNL     1       9.439   2.592  21.184  0.00  0.00    +0.210 HD
ENDBRANCH   2   3
BRANCH   2   5
ATOM      5  C   UNL     1      10.626   1.567  23.906  0.00  0.00    +0.189 C 
BRANCH   5   6
ATOM      6  O   UNL     1       9.786   1.305  25.033  0.00  0.00    -0.392 OA
ATOM      7  H   UNL     1      10.334   0.841  25.690  0.00  0.00    +0.210 HD
ENDBRANCH   5   6
ENDBRANCH   2   5
ENDBRANCH   1   2
BRANCH   1   8
ATOM      8  O   UNL     1      10.430  -0.905  23.097  0.00  0.00    -0.284 OA
BRANCH   8   9
ATOM      9  P   UNL     1       9.487  -2.095  23.586  0.00  0.00    +0.472 P 
ATOM     10  O   UNL     1      10.134  -3.347  24.062  0.00  0.00    -0.228 OA
BRANCH   9  11
ATOM     11  O   UNL     1       8.539  -2.363  22.327  0.00  0.00    -0.303 OA
ATOM     12  H   UNL     1       8.755  -3.229  21.929  0.00  0.00    +0.222 HD
ENDBRANCH   9  11
BRANCH   9  13
ATOM     13  O   UNL     1       8.435  -1.419  24.575  0.00  0.00    -0.303 OA
ATOM     14  H   UNL     1       8.885  -1.148  25.396  0.00  0.00    +0.222 HD
ENDBRANCH   9  13
ENDBRANCH   8   9
ENDBRANCH   1   8
TORSDOF 8
ENDMDL
MODEL 8
REMARK VINA RESULT:      -3.6      3.723      5.527
REMARK  Name = 
REMARK  8 active torsions:
REMARK  status: ('A' for Active; 'I' for Inactive)
REMARK    1  A    between atoms: O_1  and  C_2
REMARK    2  A    between atoms: C_2  and  C_3
REMARK    3  A    between atoms: C_3  and  O_5
REMARK    4  A    between atoms: C_3  and  C_6
REMARK    5  A    between atoms: C_6  and  O_7
REMARK    6  A    between atoms: O_7  and  P_8
REMARK    7  A    between atoms: P_8  and  O_9
REMARK    8  A    between atoms: P_8  and  O_10
REMARK                            x       y       z     vdW  Elec       q    Type
REMARK                         _______ _______ _______ _____ _____    ______ ____
ROOT
ATOM      1  C   UNL     1       9.233  -2.184  24.176  0.00  0.00    +0.206 C 
ENDROOT
BRANCH   1   2
ATOM      2  C   UNL     1       8.427  -1.925  22.907  0.00  0.00    +0.166 C 
BRANCH   2   3
ATOM      3  O   UNL     1       7.934  -3.163  22.382  0.00  0.00    -0.387 OA
ATOM      4  H   UNL     1       7.083  -2.928  21.958  0.00  0.00    +0.210 HD
ENDBRANCH   2   3
BRANCH   2   5
ATOM      5  C   UNL     1       9.267  -1.239  21.826  0.00  0.00    +0.189 C 
BRANCH   5   6
ATOM      6  O   UNL     1      10.607  -1.731  21.916  0.00  0.00    -0.392 OA
ATOM      7  H   UNL     1      10.857  -1.696  22.857  0.00  0.00    +0.210 HD
ENDBRANCH   5   6
ENDBRANCH   2   5
ENDBRANCH   1   2
BRANCH   1   8
ATOM      8  O   UNL     1       9.734  -3.512  24.162  0.00  0.00    -0.284 OA
BRANCH   8   9
ATOM      9  P   UNL     1       9.154  -4.513  25.261  0.00  0.00    +0.472 P 
ATOM     10  O   UNL     1       8.914  -3.982  26.630  0.00  0.00    -0.228 OA
BRANCH   9  11
ATOM     11  O   UNL     1      10.211  -5.712  25.270  0.00  0.00    -0.303 OA
ATOM     12  H   UNL     1      10.831  -5.611  24.523  0.00  0.00    +0.222 HD
ENDBRANCH   9  11
BRANCH   9  13
ATOM     13  O   UNL     1       7.924  -5.243  24.558  0.00  0.00    -0.303 OA
ATOM     14  H   UNL     1       7.274  -5.513  25.232  0.00  0.00    +0.222 HD
ENDBRANCH   9  13
ENDBRANCH   8   9
ENDBRANCH   1   8
TORSDOF 8
ENDMDL
MODEL 9
REMARK VINA RESULT:      -3.6      1.310      1.976
REMARK  Name = 
REMARK  8 active torsions:
REMARK  status: ('A' for Active; 'I' for Inactive)
REMARK    1  A    between atoms: O_1  and  C_2
REMARK    2  A    between atoms: C_2  and  C_3
REMARK    3  A    between atoms: C_3  and  O_5
REMARK    4  A    between atoms: C_3  and  C_6
REMARK    5  A    between atoms: C_6  and  O_7
REMARK    6  A    between atoms: O_7  and  P_8
REMARK    7  A    between atoms: P_8  and  O_9
REMARK    8  A    between atoms: P_8  and  O_10
REMARK                            x       y       z     vdW  Elec       q    Type
REMARK                         _______ _______ _______ _____ _____    ______ ____
ROOT
ATOM      1  C   UNL     1      10.130  -0.321  23.695  0.00  0.00    +0.206 C 
ENDROOT
BRANCH   1   2
ATOM      2  C   UNL     1       9.416  -1.642  23.421  0.00  0.00    +0.166 C 
BRANCH   2   3
ATOM      3  O   UNL     1      10.324  -2.734  23.605  0.00  0.00    -0.387 OA
ATOM      4  H   UNL     1      11.095  -2.508  23.046  0.00  0.00    +0.210 HD
ENDBRANCH   2   3
BRANCH   2   5
ATOM      5  C   UNL     1       8.860  -1.707  21.995  0.00  0.00    +0.189 C 
BRANCH   5   6
ATOM      6  O   UNL     1       9.764  -1.019  21.127  0.00  0.00    -0.392 OA
ATOM      7  H   UNL     1       9.255  -0.759  20.339  0.00  0.00    +0.210 HD
ENDBRANCH   5   6
ENDBRANCH   2   5
ENDBRANCH   1   2
BRANCH   1   8
ATOM      8  O   UNL     1       9.217   0.755  23.551  0.00  0.00    -0.284 OA
BRANCH   8   9
ATOM      9  P   UNL     1       9.809   2.135  23.011  0.00  0.00    +0.472 P 
ATOM     10  O   UNL     1      11.016   2.686  23.684  0.00  0.00    -0.228 OA
BRANCH   9  11
ATOM     11  O   UNL     1       8.569   3.139  23.110  0.00  0.00    -0.303 OA
ATOM     12  H   UNL     1       7.833   2.708  23.585  0.00  0.00    +0.222 HD
ENDBRANCH   9  11
BRANCH   9  13
ATOM     13  O   UNL     1       9.893   1.967  21.429  0.00  0.00    -0.303 OA
ATOM     14  H   UNL     1       9.081   1.538  21.101  0.00  0.00    +0.222 HD
ENDBRANCH   9  13
ENDBRANCH   8   9
ENDBRANCH   1   8
TORSDOF 8
ENDMDL
