MODEL 1
REMARK VINA RESULT:      -8.2      0.000      0.000
REMARK  Name = 
REMARK  18 active torsions:
REMARK  status: ('A' for Active; 'I' for Inactive)
REMARK    1  A    between atoms: C_1  and  C_2
REMARK    2  A    between atoms: N_4  and  C_5
REMARK    3  A    between atoms: C_7  and  O_9
REMARK    4  A    between atoms: C_10  and  O_12
REMARK    5  A    between atoms: C_13  and  C_15
REMARK    6  A    between atoms: C_15  and  O_16
REMARK    7  A    between atoms: C_18  and  O_20
REMARK    8  A    between atoms: O_20  and  P_21
REMARK    9  A    between atoms: P_21  and  O_22
REMARK   10  A    between atoms: P_21  and  O_24
REMARK   11  A    between atoms: O_24  and  P_25
REMARK   12  A    between atoms: P_25  and  O_26
REMARK   13  A    between atoms: P_25  and  O_28
REMARK   14  A    between atoms: O_28  and  C_29
REMARK   15  A    between atoms: C_29  and  C_30
REMARK   16  A    between atoms: C_33  and  N_41
REMARK   17  A    between atoms: C_35  and  O_37
REMARK   18  A    between atoms: C_38  and  O_40
REMARK                            x       y       z     vdW  Elec       q    Type
REMARK                         _______ _______ _______ _____ _____    ______ ____
ROOT
ATOM      1  O   UNL     1      10.544   0.837  22.854  0.00  0.00    -0.186 OA
ENDROOT
BRANCH   1   2
ATOM      2  P   UNL     1       9.441   0.354  21.612  0.00  0.00    +0.483 P 
ATOM      3  O   UNL     1       8.044   0.176  22.199  0.00  0.00    -0.227 OA
BRANCH   2   4
ATOM      4  O   UNL     1       9.056   2.013  21.310  0.00  0.00    -0.302 OA
ATOM      5  H   UNL     1       9.876   2.499  21.095  0.00  0.00    +0.222 HD
ENDBRANCH   2   4
BRANCH   2   6
ATOM      6  O   UNL     1       9.825  -1.306  21.915  0.00  0.00    -0.284 OA
BRANCH   6   7
ATOM      7  C   UNL     1       8.759  -2.245  22.112  0.00  0.00    +0.206 C 
BRANCH   7   8
ATOM      8  C   UNL     1       8.701  -3.003  23.475  0.00  0.00    +0.178 C 
ATOM      9  C   UNL     1       7.978  -2.271  24.600  0.00  0.00    +0.178 C 
ATOM     10  C   UNL     1       6.511  -2.623  24.402  0.00  0.00    +0.195 C 
ATOM     11  C   UNL     1       6.534  -3.891  23.517  0.00  0.00    +0.255 C 
ATOM     12  O   UNL     1       7.928  -4.244  23.364  0.00  0.00    -0.346 OA
BRANCH  11  13
ATOM     13  N   UNL     1       5.689  -4.978  24.031  0.00  0.00    -0.271 N 
ATOM     14  C   UNL     1       5.006  -5.720  23.066  0.00  0.00    +0.331 A 
ATOM     15  O   UNL     1       5.056  -5.472  21.860  0.00  0.00    -0.246 OA
ATOM     16  N   UNL     1       4.247  -6.761  23.531  0.00  0.00    -0.275 N 
ATOM     17  H   UNL     1       3.725  -7.286  22.848  0.00  0.00    +0.173 HD
ATOM     18  C   UNL     1       4.139  -7.167  24.826  0.00  0.00    +0.254 A 
ATOM     19  O   UNL     1       3.443  -8.107  25.189  0.00  0.00    -0.268 OA
ATOM     20  C   UNL     1       4.937  -6.388  25.795  0.00  0.00    +0.088 A 
ATOM     21  C   UNL     1       5.664  -5.352  25.362  0.00  0.00    +0.098 A 
ENDBRANCH  11  13
BRANCH  10  22
ATOM     22  O   UNL     1       5.844  -1.553  23.729  0.00  0.00    -0.385 OA
ATOM     23  H   UNL     1       5.463  -1.954  22.914  0.00  0.00    +0.210 HD
ENDBRANCH  10  22
BRANCH   9  24
ATOM     24  O   UNL     1       8.426  -2.758  25.872  0.00  0.00    -0.386 OA
ATOM     25  H   UNL     1       8.284  -2.061  26.540  0.00  0.00    +0.210 HD
ENDBRANCH   9  24
ENDBRANCH   7   8
ENDBRANCH   6   7
ENDBRANCH   2   6
ENDBRANCH   1   2
BRANCH   1  26
ATOM     26  P   UNL     1       9.618   1.390  24.207  0.00  0.00    +0.486 P 
ATOM     27  O   UNL     1      10.481   0.655  25.235  0.00  0.00    -0.227 OA
BRANCH  26  28
ATOM     28  O   UNL     1       8.693   1.943  25.560  0.00  0.00    -0.302 OA
ATOM     29  H   UNL     1       9.290   1.601  26.262  0.00  0.00    +0.222 HD
ENDBRANCH  26  28
BRANCH  26  30
ATOM     30  O   UNL     1      10.147   2.936  24.030  0.00  0.00    -0.254 OA
BRANCH  30  32
ATOM     31  C   UNL     1       9.970   5.423  23.874  0.00  0.00    +0.160 C 
ATOM     32  C   UNL     1       9.263   4.039  24.136  0.00  0.00    +0.285 C 
ATOM     33  O   UNL     1       8.031   3.769  23.504  0.00  0.00    -0.341 OA
ATOM     34  C   UNL     1       7.063   4.804  23.372  0.00  0.00    +0.178 C 
ATOM     35  C   UNL     1       7.674   6.123  22.889  0.00  0.00    +0.176 C 
ATOM     36  C   UNL     1       8.926   6.545  23.686  0.00  0.00    +0.171 C 
BRANCH  31  39
ATOM     37  C   UNL     1      13.475   5.717  22.214  0.00  0.00    +0.109 C 
ATOM     38  C   UNL     1      12.466   5.726  23.337  0.00  0.00    +0.210 C 
ATOM     39  N   UNL     1      11.169   5.466  22.993  0.00  0.00    -0.305 N 
ATOM     40  H   UNL     1      10.967   5.432  21.994  0.00  0.00    +0.149 HD
ATOM     41  O   UNL     1      12.818   5.983  24.485  0.00  0.00    -0.276 OA
ENDBRANCH  31  39
BRANCH  36  42
ATOM     42  O   UNL     1       8.524   7.066  24.973  0.00  0.00    -0.387 OA
ATOM     43  H   UNL     1       7.635   6.747  25.201  0.00  0.00    +0.210 HD
ENDBRANCH  36  42
BRANCH  35  44
ATOM     44  O   UNL     1       7.898   5.983  21.485  0.00  0.00    -0.387 OA
ATOM     45  H   UNL     1       8.777   6.349  21.250  0.00  0.00    +0.210 HD
ENDBRANCH  35  44
BRANCH  34  46
ATOM     46  C   UNL     1       6.146   4.983  24.597  0.00  0.00    +0.190 C 
BRANCH  46  47
ATOM     47  O   UNL     1       5.603   6.300  24.688  0.00  0.00    -0.392 OA
ATOM     48  H   UNL     1       5.417   6.474  25.627  0.00  0.00    +0.210 HD
ENDBRANCH  46  47
ENDBRANCH  34  46
ENDBRANCH  30  32
ENDBRANCH  26  30
ENDBRANCH   1  26
TORSDOF 17
ENDMDL
MODEL 2
REMARK VINA RESULT:      -7.8      2.633      9.979
REMARK  Name = 
REMARK  18 active torsions:
REMARK  status: ('A' for Active; 'I' for Inactive)
REMARK    1  A    between atoms: C_1  and  C_2
REMARK    2  A    between atoms: N_4  and  C_5
REMARK    3  A    between atoms: C_7  and  O_9
REMARK    4  A    between atoms: C_10  and  O_12
REMARK    5  A    between atoms: C_13  and  C_15
REMARK    6  A    between atoms: C_15  and  O_16
REMARK    7  A    between atoms: C_18  and  O_20
REMARK    8  A    between atoms: O_20  and  P_21
REMARK    9  A    between atoms: P_21  and  O_22
REMARK   10  A    between atoms: P_21  and  O_24
REMARK   11  A    between atoms: O_24  and  P_25
REMARK   12  A    between atoms: P_25  and  O_26
REMARK   13  A    between atoms: P_25  and  O_28
REMARK   14  A    between atoms: O_28  and  C_29
REMARK   15  A    between atoms: C_29  and  C_30
REMARK   16  A    between atoms: C_33  and  N_41
REMARK   17  A    between atoms: C_35  and  O_37
REMARK   18  A    between atoms: C_38  and  O_40
REMARK                            x       y       z     vdW  Elec       q    Type
REMARK                         _______ _______ _______ _____ _____    ______ ____
ROOT
ATOM      1  O   UNL     1       7.939  -3.871  25.937  0.00  0.00    -0.186 OA
ENDROOT
BRANCH   1   2
ATOM      2  P   UNL     1       8.870  -4.532  24.638  0.00  0.00    +0.483 P 
ATOM      3  O   UNL     1      10.007  -3.580  24.278  0.00  0.00    -0.227 OA
BRANCH   2   4
ATOM      4  O   UNL     1       9.925  -5.290  25.780  0.00  0.00    -0.302 OA
ATOM      5  H   UNL     1       9.452  -5.406  26.627  0.00  0.00    +0.222 HD
ENDBRANCH   2   4
BRANCH   2   6
ATOM      6  O   UNL     1       7.816  -3.773  23.495  0.00  0.00    -0.284 OA
BRANCH   6   7
ATOM      7  C   UNL     1       8.240  -2.565  22.848  0.00  0.00    +0.206 C 
BRANCH   7   8
ATOM      8  C   UNL     1       7.325  -1.307  22.985  0.00  0.00    +0.178 C 
ATOM      9  C   UNL     1       6.813  -1.021  24.392  0.00  0.00    +0.178 C 
ATOM     10  C   UNL     1       7.927  -0.215  25.045  0.00  0.00    +0.195 C 
ATOM     11  C   UNL     1       8.761   0.323  23.859  0.00  0.00    +0.255 C 
ATOM     12  O   UNL     1       8.055  -0.078  22.663  0.00  0.00    -0.346 OA
BRANCH  11  13
ATOM     13  N   UNL     1       9.034   1.765  23.944  0.00  0.00    -0.271 N 
ATOM     14  C   UNL     1       9.844   2.287  22.934  0.00  0.00    +0.331 A 
ATOM     15  O   UNL     1      10.346   1.598  22.045  0.00  0.00    -0.246 OA
ATOM     16  N   UNL     1      10.073   3.637  22.981  0.00  0.00    -0.275 N 
ATOM     17  H   UNL     1      10.679   4.022  22.275  0.00  0.00    +0.173 HD
ATOM     18  C   UNL     1       9.547   4.514  23.880  0.00  0.00    +0.254 A 
ATOM     19  O   UNL     1       9.785   5.716  23.877  0.00  0.00    -0.268 OA
ATOM     20  C   UNL     1       8.642   3.917  24.883  0.00  0.00    +0.088 A 
ATOM     21  C   UNL     1       8.428   2.597  24.868  0.00  0.00    +0.098 A 
ENDBRANCH  11  13
BRANCH  10  22
ATOM     22  O   UNL     1       8.722  -1.071  25.870  0.00  0.00    -0.385 OA
ATOM     23  H   UNL     1       8.405  -0.916  26.789  0.00  0.00    +0.210 HD
ENDBRANCH  10  22
BRANCH   9  24
ATOM     24  O   UNL     1       5.617  -0.232  24.329  0.00  0.00    -0.386 OA
ATOM     25  H   UNL     1       5.784   0.621  24.773  0.00  0.00    +0.210 HD
ENDBRANCH   9  24
ENDBRANCH   7   8
ENDBRANCH   6   7
ENDBRANCH   2   6
ENDBRANCH   1   2
BRANCH   1  26
ATOM     26  P   UNL     1       7.587  -5.150  27.048  0.00  0.00    +0.486 P 
ATOM     27  O   UNL     1       6.632  -4.301  27.890  0.00  0.00    -0.227 OA
BRANCH  26  28
ATOM     28  O   UNL     1       7.234  -6.428  28.159  0.00  0.00    -0.302 OA
ATOM     29  H   UNL     1       7.116  -7.139  27.491  0.00  0.00    +0.222 HD
ENDBRANCH  26  28
BRANCH  26  30
ATOM     30  O   UNL     1       6.743  -5.996  25.920  0.00  0.00    -0.254 OA
BRANCH  30  32
ATOM     31  C   UNL     1       4.795  -5.572  24.413  0.00  0.00    +0.160 C 
ATOM     32  C   UNL     1       5.328  -5.936  25.851  0.00  0.00    +0.285 C 
ATOM     33  O   UNL     1       4.737  -7.011  26.549  0.00  0.00    -0.341 OA
ATOM     34  C   UNL     1       3.330  -7.212  26.476  0.00  0.00    +0.178 C 
ATOM     35  C   UNL     1       2.793  -7.097  25.045  0.00  0.00    +0.176 C 
ATOM     36  C   UNL     1       3.276  -5.829  24.310  0.00  0.00    +0.171 C 
BRANCH  31  39
ATOM     37  C   UNL     1       6.629  -5.886  20.998  0.00  0.00    +0.109 C 
ATOM     38  C   UNL     1       5.716  -5.272  22.032  0.00  0.00    +0.210 C 
ATOM     39  N   UNL     1       5.619  -5.930  23.227  0.00  0.00    -0.305 N 
ATOM     40  H   UNL     1       6.053  -6.851  23.269  0.00  0.00    +0.149 HD
ATOM     41  O   UNL     1       5.088  -4.249  21.775  0.00  0.00    -0.276 OA
ENDBRANCH  31  39
BRANCH  36  42
ATOM     42  O   UNL     1       2.547  -4.682  24.802  0.00  0.00    -0.387 OA
ATOM     43  H   UNL     1       2.801  -4.490  25.720  0.00  0.00    +0.210 HD
ENDBRANCH  36  42
BRANCH  35  44
ATOM     44  O   UNL     1       3.128  -8.317  24.381  0.00  0.00    -0.387 OA
ATOM     45  H   UNL     1       4.062  -8.289  24.084  0.00  0.00    +0.210 HD
ENDBRANCH  35  44
BRANCH  34  46
ATOM     46  C   UNL     1       2.511  -6.389  27.488  0.00  0.00    +0.190 C 
BRANCH  46  47
ATOM     47  O   UNL     1       1.164  -6.182  27.066  0.00  0.00    -0.392 OA
ATOM     48  H   UNL     1       0.942  -6.891  26.438  0.00  0.00    +0.210 HD
ENDBRANCH  46  47
ENDBRANCH  34  46
ENDBRANCH  30  32
ENDBRANCH  26  30
ENDBRANCH   1  26
TORSDOF 17
ENDMDL
MODEL 3
REMARK VINA RESULT:      -7.8      2.019      4.091
REMARK  Name = 
REMARK  18 active torsions:
REMARK  status: ('A' for Active; 'I' for Inactive)
REMARK    1  A    between atoms: C_1  and  C_2
REMARK    2  A    between atoms: N_4  and  C_5
REMARK    3  A    between atoms: C_7  and  O_9
REMARK    4  A    between atoms: C_10  and  O_12
REMARK    5  A    between atoms: C_13  and  C_15
REMARK    6  A    between atoms: C_15  and  O_16
REMARK    7  A    between atoms: C_18  and  O_20
REMARK    8  A    between atoms: O_20  and  P_21
REMARK    9  A    between atoms: P_21  and  O_22
REMARK   10  A    between atoms: P_21  and  O_24
REMARK   11  A    between atoms: O_24  and  P_25
REMARK   12  A    between atoms: P_25  and  O_26
REMARK   13  A    between atoms: P_25  and  O_28
REMARK   14  A    between atoms: O_28  and  C_29
REMARK   15  A    between atoms: C_29  and  C_30
REMARK   16  A    between atoms: C_33  and  N_41
REMARK   17  A    between atoms: C_35  and  O_37
REMARK   18  A    between atoms: C_38  and  O_40
REMARK                            x       y       z     vdW  Elec       q    Type
REMARK                         _______ _______ _______ _____ _____    ______ ____
ROOT
ATOM      1  O   UNL     1       9.151  -0.461  23.353  0.00  0.00    -0.186 OA
ENDROOT
BRANCH   1   2
ATOM      2  P   UNL     1       8.491   0.091  24.854  0.00  0.00    +0.483 P 
ATOM      3  O   UNL     1       8.753  -0.941  25.947  0.00  0.00    -0.227 OA
BRANCH   2   4
ATOM      4  O   UNL     1      10.006   0.829  25.248  0.00  0.00    -0.302 OA
ATOM      5  H   UNL     1      10.669   0.130  25.417  0.00  0.00    +0.222 HD
ENDBRANCH   2   4
BRANCH   2   6
ATOM      6  O   UNL     1       6.977  -0.647  24.461  0.00  0.00    -0.284 OA
BRANCH   6   7
ATOM      7  C   UNL     1       6.748  -1.101  23.120  0.00  0.00    +0.206 C 
BRANCH   7   8
ATOM      8  C   UNL     1       6.179  -2.542  22.928  0.00  0.00    +0.178 C 
ATOM      9  C   UNL     1       7.198  -3.598  22.515  0.00  0.00    +0.178 C 
ATOM     10  C   UNL     1       7.808  -4.071  23.827  0.00  0.00    +0.195 C 
ATOM     11  C   UNL     1       6.787  -3.640  24.906  0.00  0.00    +0.255 C 
ATOM     12  O   UNL     1       5.661  -3.085  24.188  0.00  0.00    -0.346 OA
BRANCH  11  13
ATOM     13  N   UNL     1       6.435  -4.717  25.840  0.00  0.00    -0.271 N 
ATOM     14  C   UNL     1       7.341  -4.936  26.879  0.00  0.00    +0.331 A 
ATOM     15  O   UNL     1       8.396  -4.312  27.001  0.00  0.00    -0.246 OA
ATOM     16  N   UNL     1       7.003  -5.912  27.779  0.00  0.00    -0.275 N 
ATOM     17  H   UNL     1       7.662  -6.101  28.517  0.00  0.00    +0.173 HD
ATOM     18  C   UNL     1       5.854  -6.643  27.785  0.00  0.00    +0.254 A 
ATOM     19  O   UNL     1       5.601  -7.506  28.616  0.00  0.00    -0.268 OA
ATOM     20  C   UNL     1       4.901  -6.320  26.704  0.00  0.00    +0.088 A 
ATOM     21  C   UNL     1       5.226  -5.388  25.801  0.00  0.00    +0.098 A 
ENDBRANCH  11  13
BRANCH  10  22
ATOM     22  O   UNL     1       9.064  -3.422  24.037  0.00  0.00    -0.385 OA
ATOM     23  H   UNL     1       9.741  -4.037  23.669  0.00  0.00    +0.210 HD
ENDBRANCH  10  22
BRANCH   9  24
ATOM     24  O   UNL     1       6.537  -4.692  21.866  0.00  0.00    -0.386 OA
ATOM     25  H   UNL     1       5.727  -4.907  22.366  0.00  0.00    +0.210 HD
ENDBRANCH   9  24
ENDBRANCH   7   8
ENDBRANCH   6   7
ENDBRANCH   2   6
ENDBRANCH   1   2
BRANCH   1  26
ATOM     26  P   UNL     1       9.772   0.912  22.503  0.00  0.00    +0.486 P 
ATOM     27  O   UNL     1       9.339   0.394  21.131  0.00  0.00    -0.227 OA
BRANCH  26  28
ATOM     28  O   UNL     1      10.393   2.285  21.653  0.00  0.00    -0.302 OA
ATOM     29  H   UNL     1       9.849   2.965  22.110  0.00  0.00    +0.222 HD
ENDBRANCH  26  28
BRANCH  26  30
ATOM     30  O   UNL     1       8.618   1.907  23.120  0.00  0.00    -0.254 OA
BRANCH  30  32
ATOM     31  C   UNL     1       7.384   4.055  22.791  0.00  0.00    +0.160 C 
ATOM     32  C   UNL     1       8.749   3.318  23.067  0.00  0.00    +0.285 C 
ATOM     33  O   UNL     1       9.587   3.791  24.101  0.00  0.00    -0.341 OA
ATOM     34  C   UNL     1       9.727   5.192  24.310  0.00  0.00    +0.178 C 
ATOM     35  C   UNL     1       8.384   5.929  24.281  0.00  0.00    +0.176 C 
ATOM     36  C   UNL     1       7.514   5.570  23.057  0.00  0.00    +0.171 C 
BRANCH  31  39
ATOM     37  C   UNL     1       4.375   2.381  24.601  0.00  0.00    +0.109 C 
ATOM     38  C   UNL     1       5.725   3.047  24.477  0.00  0.00    +0.210 C 
ATOM     39  N   UNL     1       6.115   3.404  23.216  0.00  0.00    -0.305 N 
ATOM     40  H   UNL     1       5.532   3.063  22.452  0.00  0.00    +0.149 HD
ATOM     41  O   UNL     1       6.424   3.221  25.471  0.00  0.00    -0.276 OA
ENDBRANCH  31  39
BRANCH  36  42
ATOM     42  O   UNL     1       8.038   6.234  21.885  0.00  0.00    -0.387 OA
ATOM     43  H   UNL     1       7.409   6.902  21.568  0.00  0.00    +0.210 HD
ENDBRANCH  36  42
BRANCH  35  44
ATOM     44  O   UNL     1       7.751   5.679  25.538  0.00  0.00    -0.387 OA
ATOM     45  H   UNL     1       7.501   6.528  25.959  0.00  0.00    +0.210 HD
ENDBRANCH  35  44
BRANCH  34  46
ATOM     46  C   UNL     1      10.797   5.867  23.430  0.00  0.00    +0.190 C 
BRANCH  46  47
ATOM     47  O   UNL     1      11.710   4.930  22.860  0.00  0.00    -0.392 OA
ATOM     48  H   UNL     1      12.254   4.576  23.584  0.00  0.00    +0.210 HD
ENDBRANCH  46  47
ENDBRANCH  34  46
ENDBRANCH  30  32
ENDBRANCH  26  30
ENDBRANCH   1  26
TORSDOF 17
ENDMDL
MODEL 4
REMARK VINA RESULT:      -7.7      1.730      3.586
REMARK  Name = 
REMARK  18 active torsions:
REMARK  status: ('A' for Active; 'I' for Inactive)
REMARK    1  A    between atoms: C_1  and  C_2
REMARK    2  A    between atoms: N_4  and  C_5
REMARK    3  A    between atoms: C_7  and  O_9
REMARK    4  A    between atoms: C_10  and  O_12
REMARK    5  A    between atoms: C_13  and  C_15
REMARK    6  A    between atoms: C_15  and  O_16
REMARK    7  A    between atoms: C_18  and  O_20
REMARK    8  A    between atoms: O_20  and  P_21
REMARK    9  A    between atoms: P_21  and  O_22
REMARK   10  A    between atoms: P_21  and  O_24
REMARK   11  A    between atoms: O_24  and  P_25
REMARK   12  A    between atoms: P_25  and  O_26
REMARK   13  A    between atoms: P_25  and  O_28
REMARK   14  A    between atoms: O_28  and  C_29
REMARK   15  A    between atoms: C_29  and  C_30
REMARK   16  A    between atoms: C_33  and  N_41
REMARK   17  A    between atoms: C_35  and  O_37
REMARK   18  A    between atoms: C_38  and  O_40
REMARK                            x       y       z     vdW  Elec       q    Type
REMARK                         _______ _______ _______ _____ _____    ______ ____
ROOT
ATOM      1  O   UNL     1       8.601  -0.187  23.447  0.00  0.00    -0.186 OA
ENDROOT
BRANCH   1   2
ATOM      2  P   UNL     1       9.372  -0.315  24.990  0.00  0.00    +0.483 P 
ATOM      3  O   UNL     1      10.756   0.326  24.933  0.00  0.00    -0.227 OA
BRANCH   2   4
ATOM      4  O   UNL     1       8.726   1.226  25.439  0.00  0.00    -0.302 OA
ATOM      5  H   UNL     1       9.456   1.812  25.719  0.00  0.00    +0.222 HD
ENDBRANCH   2   4
BRANCH   2   6
ATOM      6  O   UNL     1      10.020  -1.855  24.540  0.00  0.00    -0.284 OA
BRANCH   6   7
ATOM      7  C   UNL     1       9.165  -2.814  23.904  0.00  0.00    +0.206 C 
BRANCH   7   8
ATOM      8  C   UNL     1       8.929  -4.175  24.631  0.00  0.00    +0.178 C 
ATOM      9  C   UNL     1       8.448  -4.070  26.074  0.00  0.00    +0.178 C 
ATOM     10  C   UNL     1       6.936  -3.930  25.961  0.00  0.00    +0.195 C 
ATOM     11  C   UNL     1       6.605  -4.449  24.543  0.00  0.00    +0.255 C 
ATOM     12  O   UNL     1       7.851  -4.940  23.999  0.00  0.00    -0.346 OA
BRANCH  11  13
ATOM     13  N   UNL     1       5.510  -5.428  24.521  0.00  0.00    -0.271 N 
ATOM     14  C   UNL     1       4.873  -5.595  23.290  0.00  0.00    +0.331 A 
ATOM     15  O   UNL     1       5.161  -4.944  22.285  0.00  0.00    -0.246 OA
ATOM     16  N   UNL     1       3.877  -6.534  23.248  0.00  0.00    -0.275 N 
ATOM     17  H   UNL     1       3.389  -6.644  22.374  0.00  0.00    +0.173 HD
ATOM     18  C   UNL     1       3.490  -7.348  24.269  0.00  0.00    +0.254 A 
ATOM     19  O   UNL     1       2.590  -8.173  24.178  0.00  0.00    -0.268 OA
ATOM     20  C   UNL     1       4.245  -7.176  25.527  0.00  0.00    +0.088 A 
ATOM     21  C   UNL     1       5.203  -6.246  25.594  0.00  0.00    +0.098 A 
ENDBRANCH  11  13
BRANCH  10  22
ATOM     22  O   UNL     1       6.568  -2.555  26.091  0.00  0.00    -0.385 OA
ATOM     23  H   UNL     1       5.652  -2.562  26.453  0.00  0.00    +0.210 HD
ENDBRANCH  10  22
BRANCH   9  24
ATOM     24  O   UNL     1       8.771  -5.269  26.790  0.00  0.00    -0.386 OA
ATOM     25  H   UNL     1       8.447  -5.182  27.706  0.00  0.00    +0.210 HD
ENDBRANCH   9  24
ENDBRANCH   7   8
ENDBRANCH   6   7
ENDBRANCH   2   6
ENDBRANCH   1   2
BRANCH   1  26
ATOM     26  P   UNL     1       9.437   1.017  22.528  0.00  0.00    +0.486 P 
ATOM     27  O   UNL     1       9.281   0.269  21.203  0.00  0.00    -0.227 OA
BRANCH  26  28
ATOM     28  O   UNL     1      10.272   2.222  21.609  0.00  0.00    -0.302 OA
ATOM     29  H   UNL     1      10.213   1.771  20.738  0.00  0.00    +0.222 HD
ENDBRANCH  26  28
BRANCH  26  30
ATOM     30  O   UNL     1       8.218   2.105  22.709  0.00  0.00    -0.254 OA
BRANCH  30  32
ATOM     31  C   UNL     1       7.189   4.375  22.535  0.00  0.00    +0.160 C 
ATOM     32  C   UNL     1       8.472   3.497  22.792  0.00  0.00    +0.285 C 
ATOM     33  O   UNL     1       9.300   3.800  23.894  0.00  0.00    -0.341 OA
ATOM     34  C   UNL     1       9.551   5.159  24.237  0.00  0.00    +0.178 C 
ATOM     35  C   UNL     1       8.278   6.012  24.228  0.00  0.00    +0.176 C 
ATOM     36  C   UNL     1       7.437   5.843  22.945  0.00  0.00    +0.171 C 
BRANCH  31  39
ATOM     37  C   UNL     1       3.963   2.841  24.075  0.00  0.00    +0.109 C 
ATOM     38  C   UNL     1       5.366   3.399  24.063  0.00  0.00    +0.210 C 
ATOM     39  N   UNL     1       5.851   3.806  22.851  0.00  0.00    -0.305 N 
ATOM     40  H   UNL     1       5.285   3.566  22.038  0.00  0.00    +0.149 HD
ATOM     41  O   UNL     1       6.022   3.447  25.100  0.00  0.00    -0.276 OA
ENDBRANCH  31  39
BRANCH  36  42
ATOM     42  O   UNL     1       8.067   6.559  21.860  0.00  0.00    -0.387 OA
ATOM     43  H   UNL     1       8.217   7.485  22.110  0.00  0.00    +0.210 HD
ENDBRANCH  36  42
BRANCH  35  44
ATOM     44  O   UNL     1       7.571   5.709  25.432  0.00  0.00    -0.387 OA
ATOM     45  H   UNL     1       7.702   6.429  26.085  0.00  0.00    +0.210 HD
ENDBRANCH  35  44
BRANCH  34  46
ATOM     46  C   UNL     1      10.712   5.811  23.464  0.00  0.00    +0.190 C 
BRANCH  46  47
ATOM     47  O   UNL     1      11.626   4.851  22.933  0.00  0.00    -0.392 OA
ATOM     48  H   UNL     1      11.425   3.996  23.350  0.00  0.00    +0.210 HD
ENDBRANCH  46  47
ENDBRANCH  34  46
ENDBRANCH  30  32
ENDBRANCH  26  30
ENDBRANCH   1  26
TORSDOF 17
ENDMDL
MODEL 5
REMARK VINA RESULT:      -7.6      1.594      2.127
REMARK  Name = 
REMARK  18 active torsions:
REMARK  status: ('A' for Active; 'I' for Inactive)
REMARK    1  A    between atoms: C_1  and  C_2
REMARK    2  A    between atoms: N_4  and  C_5
REMARK    3  A    between atoms: C_7  and  O_9
REMARK    4  A    between atoms: C_10  and  O_12
REMARK    5  A    between atoms: C_13  and  C_15
REMARK    6  A    between atoms: C_15  and  O_16
REMARK    7  A    between atoms: C_18  and  O_20
REMARK    8  A    between atoms: O_20  and  P_21
REMARK    9  A    between atoms: P_21  and  O_22
REMARK   10  A    between atoms: P_21  and  O_24
REMARK   11  A    between atoms: O_24  and  P_25
REMARK   12  A    between atoms: P_25  and  O_26
REMARK   13  A    between atoms: P_25  and  O_28
REMARK   14  A    between atoms: O_28  and  C_29
REMARK   15  A    between atoms: C_29  and  C_30
REMARK   16  A    between atoms: C_33  and  N_41
REMARK   17  A    between atoms: C_35  and  O_37
REMARK   18  A    between atoms: C_38  and  O_40
REMARK                            x       y       z     vdW  Elec       q    Type
REMARK                         _______ _______ _______ _____ _____    ______ ____
ROOT
ATOM      1  O   UNL     1      10.368   0.436  22.836  0.00  0.00    -0.186 OA
ENDROOT
BRANCH   1   2
ATOM      2  P   UNL     1       9.152  -0.148  21.753  0.00  0.00    +0.483 P 
ATOM      3  O   UNL     1       7.779  -0.046  22.410  0.00  0.00    -0.227 OA
BRANCH   2   4
ATOM      4  O   UNL     1       8.930   1.454  21.139  0.00  0.00    -0.302 OA
ATOM      5  H   UNL     1       9.579   2.052  21.559  0.00  0.00    +0.222 HD
ENDBRANCH   2   4
BRANCH   2   6
ATOM      6  O   UNL     1       9.373  -1.750  22.367  0.00  0.00    -0.284 OA
BRANCH   6   7
ATOM      7  C   UNL     1       8.223  -2.575  22.599  0.00  0.00    +0.206 C 
BRANCH   7   8
ATOM      8  C   UNL     1       8.431  -3.910  23.380  0.00  0.00    +0.178 C 
ATOM      9  C   UNL     1       9.400  -3.835  24.556  0.00  0.00    +0.178 C 
ATOM     10  C   UNL     1       8.549  -3.349  25.720  0.00  0.00    +0.195 C 
ATOM     11  C   UNL     1       7.094  -3.645  25.285  0.00  0.00    +0.255 C 
ATOM     12  O   UNL     1       7.192  -4.350  24.027  0.00  0.00    -0.346 OA
BRANCH  11  13
ATOM     13  N   UNL     1       6.310  -4.346  26.311  0.00  0.00    -0.271 N 
ATOM     14  C   UNL     1       5.651  -3.529  27.232  0.00  0.00    +0.331 A 
ATOM     15  O   UNL     1       5.743  -2.300  27.233  0.00  0.00    -0.246 OA
ATOM     16  N   UNL     1       4.885  -4.171  28.168  0.00  0.00    -0.275 N 
ATOM     17  H   UNL     1       4.428  -3.594  28.856  0.00  0.00    +0.173 HD
ATOM     18  C   UNL     1       4.665  -5.512  28.251  0.00  0.00    +0.254 A 
ATOM     19  O   UNL     1       3.969  -6.035  29.112  0.00  0.00    -0.268 OA
ATOM     20  C   UNL     1       5.331  -6.321  27.210  0.00  0.00    +0.088 A 
ATOM     21  C   UNL     1       6.104  -5.713  26.303  0.00  0.00    +0.098 A 
ENDBRANCH  11  13
BRANCH  10  22
ATOM     22  O   UNL     1       8.741  -1.944  25.905  0.00  0.00    -0.385 OA
ATOM     23  H   UNL     1       9.419  -1.865  26.615  0.00  0.00    +0.210 HD
ENDBRANCH  10  22
BRANCH   9  24
ATOM     24  O   UNL     1       9.921  -5.139  24.848  0.00  0.00    -0.386 OA
ATOM     25  H   UNL     1       9.178  -5.722  25.097  0.00  0.00    +0.210 HD
ENDBRANCH   9  24
ENDBRANCH   7   8
ENDBRANCH   6   7
ENDBRANCH   2   6
ENDBRANCH   1   2
BRANCH   1  26
ATOM     26  P   UNL     1       9.575   1.131  24.207  0.00  0.00    +0.486 P 
ATOM     27  O   UNL     1      10.560   0.536  25.215  0.00  0.00    -0.227 OA
BRANCH  26  28
ATOM     28  O   UNL     1       8.781   1.826  25.579  0.00  0.00    -0.302 OA
ATOM     29  H   UNL     1       9.593   2.076  26.073  0.00  0.00    +0.222 HD
ENDBRANCH  26  28
BRANCH  26  30
ATOM     30  O   UNL     1      10.038   2.653  23.796  0.00  0.00    -0.254 OA
BRANCH  30  32
ATOM     31  C   UNL     1       9.933   5.148  23.857  0.00  0.00    +0.160 C 
ATOM     32  C   UNL     1       9.186   3.768  23.996  0.00  0.00    +0.285 C 
ATOM     33  O   UNL     1       7.948   3.589  23.341  0.00  0.00    -0.341 OA
ATOM     34  C   UNL     1       7.011   4.660  23.299  0.00  0.00    +0.178 C 
ATOM     35  C   UNL     1       7.662   5.997  22.933  0.00  0.00    +0.176 C 
ATOM     36  C   UNL     1       8.923   6.313  23.766  0.00  0.00    +0.171 C 
BRANCH  31  39
ATOM     37  C   UNL     1      13.423   5.629  22.208  0.00  0.00    +0.109 C 
ATOM     38  C   UNL     1      12.401   5.630  23.319  0.00  0.00    +0.210 C 
ATOM     39  N   UNL     1      11.136   5.233  22.984  0.00  0.00    -0.305 N 
ATOM     40  H   UNL     1      10.952   5.110  21.989  0.00  0.00    +0.149 HD
ATOM     41  O   UNL     1      12.713   5.998  24.448  0.00  0.00    -0.276 OA
ENDBRANCH  31  39
BRANCH  36  42
ATOM     42  O   UNL     1       8.530   6.730  25.093  0.00  0.00    -0.387 OA
ATOM     43  H   UNL     1       7.689   6.312  25.342  0.00  0.00    +0.210 HD
ENDBRANCH  36  42
BRANCH  35  44
ATOM     44  O   UNL     1       7.887   5.974  21.523  0.00  0.00    -0.387 OA
ATOM     45  H   UNL     1       8.636   5.375  21.315  0.00  0.00    +0.210 HD
ENDBRANCH  35  44
BRANCH  34  46
ATOM     46  C   UNL     1       6.095   4.758  24.533  0.00  0.00    +0.190 C 
BRANCH  46  47
ATOM     47  O   UNL     1       5.594   6.078  24.741  0.00  0.00    -0.392 OA
ATOM     48  H   UNL     1       6.247   6.557  25.279  0.00  0.00    +0.210 HD
ENDBRANCH  46  47
ENDBRANCH  34  46
ENDBRANCH  30  32
ENDBRANCH  26  30
ENDBRANCH   1  26
TORSDOF 17
ENDMDL
MODEL 6
REMARK VINA RESULT:      -7.6      2.710      4.389
REMARK  Name = 
REMARK  18 active torsions:
REMARK  status: ('A' for Active; 'I' for Inactive)
REMARK    1  A    between atoms: C_1  and  C_2
REMARK    2  A    between atoms: N_4  and  C_5
REMARK    3  A    between atoms: C_7  and  O_9
REMARK    4  A    between atoms: C_10  and  O_12
REMARK    5  A    between atoms: C_13  and  C_15
REMARK    6  A    between atoms: C_15  and  O_16
REMARK    7  A    between atoms: C_18  and  O_20
REMARK    8  A    between atoms: O_20  and  P_21
REMARK    9  A    between atoms: P_21  and  O_22
REMARK   10  A    between atoms: P_21  and  O_24
REMARK   11  A    between atoms: O_24  and  P_25
REMARK   12  A    between atoms: P_25  and  O_26
REMARK   13  A    between atoms: P_25  and  O_28
REMARK   14  A    between atoms: O_28  and  C_29
REMARK   15  A    between atoms: C_29  and  C_30
REMARK   16  A    between atoms: C_33  and  N_41
REMARK   17  A    between atoms: C_35  and  O_37
REMARK   18  A    between atoms: C_38  and  O_40
REMARK                            x       y       z     vdW  Elec       q    Type
REMARK                         _______ _______ _______ _____ _____    ______ ____
ROOT
ATOM      1  O   UNL     1       8.370  -0.430  22.562  0.00  0.00    -0.186 OA
ENDROOT
BRANCH   1   2
ATOM      2  P   UNL     1       9.418  -1.661  23.178  0.00  0.00    +0.483 P 
ATOM      3  O   UNL     1      10.625  -1.821  22.260  0.00  0.00    -0.227 OA
BRANCH   2   4
ATOM      4  O   UNL     1      10.303  -0.464  24.060  0.00  0.00    -0.302 OA
ATOM      5  H   UNL     1      10.049  -0.506  25.003  0.00  0.00    +0.222 HD
ENDBRANCH   2   4
BRANCH   2   6
ATOM      6  O   UNL     1       8.534  -2.857  22.295  0.00  0.00    -0.284 OA
BRANCH   6   7
ATOM      7  C   UNL     1       7.101  -2.857  22.360  0.00  0.00    +0.206 C 
BRANCH   7   8
ATOM      8  C   UNL     1       6.379  -4.233  22.512  0.00  0.00    +0.178 C 
ATOM      9  C   UNL     1       7.290  -5.455  22.483  0.00  0.00    +0.178 C 
ATOM     10  C   UNL     1       7.769  -5.607  23.919  0.00  0.00    +0.195 C 
ATOM     11  C   UNL     1       6.749  -4.799  24.755  0.00  0.00    +0.255 C 
ATOM     12  O   UNL     1       5.736  -4.356  23.823  0.00  0.00    -0.346 OA
BRANCH  11  13
ATOM     13  N   UNL     1       6.224  -5.540  25.910  0.00  0.00    -0.271 N 
ATOM     14  C   UNL     1       6.986  -5.457  27.077  0.00  0.00    +0.331 A 
ATOM     15  O   UNL     1       8.054  -4.848  27.147  0.00  0.00    -0.246 OA
ATOM     16  N   UNL     1       6.485  -6.111  28.172  0.00  0.00    -0.275 N 
ATOM     17  H   UNL     1       7.039  -6.084  29.013  0.00  0.00    +0.173 HD
ATOM     18  C   UNL     1       5.302  -6.781  28.241  0.00  0.00    +0.254 A 
ATOM     19  O   UNL     1       4.900  -7.351  29.249  0.00  0.00    -0.268 OA
ATOM     20  C   UNL     1       4.506  -6.777  26.997  0.00  0.00    +0.088 A 
ATOM     21  C   UNL     1       4.991  -6.166  25.911  0.00  0.00    +0.098 A 
ENDBRANCH  11  13
BRANCH  10  22
ATOM     22  O   UNL     1       9.080  -5.050  24.052  0.00  0.00    -0.385 OA
ATOM     23  H   UNL     1       9.468  -5.484  24.847  0.00  0.00    +0.210 HD
ENDBRANCH  10  22
BRANCH   9  24
ATOM     24  O   UNL     1       6.543  -6.616  22.096  0.00  0.00    -0.386 OA
ATOM     25  H   UNL     1       5.964  -6.875  22.838  0.00  0.00    +0.210 HD
ENDBRANCH   9  24
ENDBRANCH   7   8
ENDBRANCH   6   7
ENDBRANCH   2   6
ENDBRANCH   1   2
BRANCH   1  26
ATOM     26  P   UNL     1       9.342   0.934  22.129  0.00  0.00    +0.486 P 
ATOM     27  O   UNL     1       8.550   1.230  20.854  0.00  0.00    -0.227 OA
BRANCH  26  28
ATOM     28  O   UNL     1      10.313   2.298  21.696  0.00  0.00    -0.302 OA
ATOM     29  H   UNL     1       9.742   2.627  20.967  0.00  0.00    +0.222 HD
ENDBRANCH  26  28
BRANCH  26  30
ATOM     30  O   UNL     1       8.761   1.835  23.375  0.00  0.00    -0.254 OA
BRANCH  30  32
ATOM     31  C   UNL     1       6.321   2.223  23.004  0.00  0.00    +0.160 C 
ATOM     32  C   UNL     1       7.767   2.826  23.175  0.00  0.00    +0.285 C 
ATOM     33  O   UNL     1       7.955   3.920  24.046  0.00  0.00    -0.341 OA
ATOM     34  C   UNL     1       6.976   4.952  24.104  0.00  0.00    +0.178 C 
ATOM     35  C   UNL     1       5.547   4.405  24.176  0.00  0.00    +0.176 C 
ATOM     36  C   UNL     1       5.249   3.329  23.110  0.00  0.00    +0.171 C 
BRANCH  31  39
ATOM     37  C   UNL     1       5.678  -0.832  25.325  0.00  0.00    +0.109 C 
ATOM     38  C   UNL     1       6.038   0.591  24.971  0.00  0.00    +0.210 C 
ATOM     39  N   UNL     1       6.004   0.917  23.644  0.00  0.00    -0.305 N 
ATOM     40  H   UNL     1       5.882   0.141  22.994  0.00  0.00    +0.149 HD
ATOM     41  O   UNL     1       6.365   1.385  25.849  0.00  0.00    -0.276 OA
ENDBRANCH  31  39
BRANCH  36  42
ATOM     42  O   UNL     1       5.068   3.965  21.824  0.00  0.00    -0.387 OA
ATOM     43  H   UNL     1       4.676   3.340  21.192  0.00  0.00    +0.210 HD
ENDBRANCH  36  42
BRANCH  35  44
ATOM     44  O   UNL     1       5.342   3.964  25.520  0.00  0.00    -0.387 OA
ATOM     45  H   UNL     1       4.480   4.293  25.850  0.00  0.00    +0.210 HD
ENDBRANCH  35  44
BRANCH  34  46
ATOM     46  C   UNL     1       7.141   6.052  23.039  0.00  0.00    +0.190 C 
BRANCH  46  47
ATOM     47  O   UNL     1       7.625   5.545  21.796  0.00  0.00    -0.392 OA
ATOM     48  H   UNL     1       7.521   4.578  21.815  0.00  0.00    +0.210 HD
ENDBRANCH  46  47
ENDBRANCH  34  46
ENDBRANCH  30  32
ENDBRANCH  26  30
ENDBRANCH   1  26
TORSDOF 17
ENDMDL
MODEL 7
REMARK VINA RESULT:      -7.5      2.261      3.221
REMARK  Name = 
REMARK  18 active torsions:
REMARK  status: ('A' for Active; 'I' for Inactive)
REMARK    1  A    between atoms: C_1  and  C_2
REMARK    2  A    between atoms: N_4  and  C_5
REMARK    3  A    between atoms: C_7  and  O_9
REMARK    4  A    between atoms: C_10  and  O_12
REMARK    5  A    between atoms: C_13  and  C_15
REMARK    6  A    between atoms: C_15  and  O_16
REMARK    7  A    between atoms: C_18  and  O_20
REMARK    8  A    between atoms: O_20  and  P_21
REMARK    9  A    between atoms: P_21  and  O_22
REMARK   10  A    between atoms: P_21  and  O_24
REMARK   11  A    between atoms: O_24  and  P_25
REMARK   12  A    between atoms: P_25  and  O_26
REMARK   13  A    between atoms: P_25  and  O_28
REMARK   14  A    between atoms: O_28  and  C_29
REMARK   15  A    between atoms: C_29  and  C_30
REMARK   16  A    between atoms: C_33  and  N_41
REMARK   17  A    between atoms: C_35  and  O_37
REMARK   18  A    between atoms: C_38  and  O_40
REMARK                            x       y       z     vdW  Elec       q    Type
REMARK                         _______ _______ _______ _____ _____    ______ ____
ROOT
ATOM      1  O   UNL     1      10.187   1.307  22.753  0.00  0.00    -0.186 OA
ENDROOT
BRANCH   1   2
ATOM      2  P   UNL     1       9.291   0.278  21.689  0.00  0.00    +0.483 P 
ATOM      3  O   UNL     1       7.904   0.014  22.268  0.00  0.00    -0.227 OA
BRANCH   2   4
ATOM      4  O   UNL     1       8.645   1.669  20.889  0.00  0.00    -0.302 OA
ATOM      5  H   UNL     1       9.040   1.740  19.998  0.00  0.00    +0.222 HD
ENDBRANCH   2   4
BRANCH   2   6
ATOM      6  O   UNL     1       9.936  -1.113  22.490  0.00  0.00    -0.284 OA
BRANCH   6   7
ATOM      7  C   UNL     1       9.193  -2.340  22.467  0.00  0.00    +0.206 C 
BRANCH   7   8
ATOM      8  C   UNL     1       8.891  -3.032  23.833  0.00  0.00    +0.178 C 
ATOM      9  C   UNL     1       7.967  -2.259  24.768  0.00  0.00    +0.178 C 
ATOM     10  C   UNL     1       6.564  -2.647  24.322  0.00  0.00    +0.195 C 
ATOM     11  C   UNL     1       6.761  -3.955  23.521  0.00  0.00    +0.255 C 
ATOM     12  O   UNL     1       8.162  -4.290  23.645  0.00  0.00    -0.346 OA
BRANCH  11  13
ATOM     13  N   UNL     1       5.845  -5.031  23.925  0.00  0.00    -0.271 N 
ATOM     14  C   UNL     1       5.189  -5.689  22.884  0.00  0.00    +0.331 A 
ATOM     15  O   UNL     1       5.318  -5.379  21.699  0.00  0.00    -0.246 OA
ATOM     16  N   UNL     1       4.363  -6.720  23.247  0.00  0.00    -0.275 N 
ATOM     17  H   UNL     1       3.861  -7.184  22.508  0.00  0.00    +0.173 HD
ATOM     18  C   UNL     1       4.166  -7.191  24.510  0.00  0.00    +0.254 A 
ATOM     19  O   UNL     1       3.413  -8.118  24.780  0.00  0.00    -0.268 OA
ATOM     20  C   UNL     1       4.939  -6.501  25.563  0.00  0.00    +0.088 A 
ATOM     21  C   UNL     1       5.730  -5.476  25.230  0.00  0.00    +0.098 A 
ENDBRANCH  11  13
BRANCH  10  22
ATOM     22  O   UNL     1       6.024  -1.622  23.484  0.00  0.00    -0.385 OA
ATOM     23  H   UNL     1       6.113  -0.788  24.000  0.00  0.00    +0.210 HD
ENDBRANCH  10  22
BRANCH   9  24
ATOM     24  O   UNL     1       8.177  -2.676  26.123  0.00  0.00    -0.386 OA
ATOM     25  H   UNL     1       8.486  -1.908  26.640  0.00  0.00    +0.210 HD
ENDBRANCH   9  24
ENDBRANCH   7   8
ENDBRANCH   6   7
ENDBRANCH   2   6
ENDBRANCH   1   2
BRANCH   1  26
ATOM     26  P   UNL     1       9.883   0.792  24.377  0.00  0.00    +0.486 P 
ATOM     27  O   UNL     1      11.344   0.935  24.810  0.00  0.00    -0.227 OA
BRANCH  26  28
ATOM     28  O   UNL     1       9.580   0.278  26.000  0.00  0.00    -0.302 OA
ATOM     29  H   UNL     1       9.723  -0.683  25.851  0.00  0.00    +0.222 HD
ENDBRANCH  26  28
BRANCH  26  30
ATOM     30  O   UNL     1       9.052   2.164  24.734  0.00  0.00    -0.254 OA
BRANCH  30  32
ATOM     31  C   UNL     1       7.064   3.506  25.433  0.00  0.00    +0.160 C 
ATOM     32  C   UNL     1       7.822   2.125  25.438  0.00  0.00    +0.285 C 
ATOM     33  O   UNL     1       7.103   0.947  25.144  0.00  0.00    -0.341 OA
ATOM     34  C   UNL     1       5.777   0.787  25.636  0.00  0.00    +0.178 C 
ATOM     35  C   UNL     1       4.921   2.042  25.439  0.00  0.00    +0.176 C 
ATOM     36  C   UNL     1       5.610   3.336  25.925  0.00  0.00    +0.171 C 
BRANCH  31  39
ATOM     37  C   UNL     1       7.407   5.376  22.039  0.00  0.00    +0.109 C 
ATOM     38  C   UNL     1       7.074   4.231  22.966  0.00  0.00    +0.210 C 
ATOM     39  N   UNL     1       7.284   4.446  24.300  0.00  0.00    -0.305 N 
ATOM     40  H   UNL     1       7.781   5.301  24.544  0.00  0.00    +0.149 HD
ATOM     41  O   UNL     1       6.664   3.166  22.513  0.00  0.00    -0.276 OA
ENDBRANCH  31  39
BRANCH  36  42
ATOM     42  O   UNL     1       5.568   3.389  27.368  0.00  0.00    -0.387 OA
ATOM     43  H   UNL     1       5.105   2.611  27.720  0.00  0.00    +0.210 HD
ENDBRANCH  36  42
BRANCH  35  44
ATOM     44  O   UNL     1       4.539   2.068  24.063  0.00  0.00    -0.387 OA
ATOM     45  H   UNL     1       4.065   2.904  23.865  0.00  0.00    +0.210 HD
ENDBRANCH  35  44
BRANCH  34  46
ATOM     46  C   UNL     1       5.689   0.223  27.067  0.00  0.00    +0.190 C 
BRANCH  46  47
ATOM     47  O   UNL     1       6.894  -0.421  27.478  0.00  0.00    -0.392 OA
ATOM     48  H   UNL     1       6.649  -1.281  27.860  0.00  0.00    +0.210 HD
ENDBRANCH  46  47
ENDBRANCH  34  46
ENDBRANCH  30  32
ENDBRANCH  26  30
ENDBRANCH   1  26
TORSDOF 17
ENDMDL
MODEL 8
REMARK VINA RESULT:      -7.5      1.592      2.708
REMARK  Name = 
REMARK  18 active torsions:
REMARK  status: ('A' for Active; 'I' for Inactive)
REMARK    1  A    between atoms: C_1  and  C_2
REMARK    2  A    between atoms: N_4  and  C_5
REMARK    3  A    between atoms: C_7  and  O_9
REMARK    4  A    between atoms: C_10  and  O_12
REMARK    5  A    between atoms: C_13  and  C_15
REMARK    6  A    between atoms: C_15  and  O_16
REMARK    7  A    between atoms: C_18  and  O_20
REMARK    8  A    between atoms: O_20  and  P_21
REMARK    9  A    between atoms: P_21  and  O_22
REMARK   10  A    between atoms: P_21  and  O_24
REMARK   11  A    between atoms: O_24  and  P_25
REMARK   12  A    between atoms: P_25  and  O_26
REMARK   13  A    between atoms: P_25  and  O_28
REMARK   14  A    between atoms: O_28  and  C_29
REMARK   15  A    between atoms: C_29  and  C_30
REMARK   16  A    between atoms: C_33  and  N_41
REMARK   17  A    between atoms: C_35  and  O_37
REMARK   18  A    between atoms: C_38  and  O_40
REMARK                            x       y       z     vdW  Elec       q    Type
REMARK                         _______ _______ _______ _____ _____    ______ ____
ROOT
ATOM      1  O   UNL     1       8.498   0.807  23.815  0.00  0.00    -0.186 OA
ENDROOT
BRANCH   1   2
ATOM      2  P   UNL     1       9.342  -0.600  24.363  0.00  0.00    +0.483 P 
ATOM      3  O   UNL     1      10.696  -0.696  23.667  0.00  0.00    -0.227 OA
BRANCH   2   4
ATOM      4  O   UNL     1      10.097   0.338  25.606  0.00  0.00    -0.302 OA
ATOM      5  H   UNL     1       9.410   0.819  26.107  0.00  0.00    +0.222 HD
ENDBRANCH   2   4
BRANCH   2   6
ATOM      6  O   UNL     1       8.588  -1.538  23.121  0.00  0.00    -0.284 OA
BRANCH   6   7
ATOM      7  C   UNL     1       7.157  -1.562  23.033  0.00  0.00    +0.206 C 
BRANCH   7   8
ATOM      8  C   UNL     1       6.459  -2.952  22.901  0.00  0.00    +0.178 C 
ATOM      9  C   UNL     1       7.380  -4.114  22.545  0.00  0.00    +0.178 C 
ATOM     10  C   UNL     1       7.938  -4.581  23.881  0.00  0.00    +0.195 C 
ATOM     11  C   UNL     1       6.957  -4.010  24.931  0.00  0.00    +0.255 C 
ATOM     12  O   UNL     1       5.890  -3.388  24.180  0.00  0.00    -0.346 OA
BRANCH  11  13
ATOM     13  N   UNL     1       6.504  -5.007  25.910  0.00  0.00    -0.271 N 
ATOM     14  C   UNL     1       7.368  -5.237  26.982  0.00  0.00    +0.331 A 
ATOM     15  O   UNL     1       8.463  -4.686  27.100  0.00  0.00    -0.246 OA
ATOM     16  N   UNL     1       6.937  -6.136  27.922  0.00  0.00    -0.275 N 
ATOM     17  H   UNL     1       7.563  -6.333  28.686  0.00  0.00    +0.173 HD
ATOM     18  C   UNL     1       5.737  -6.779  27.934  0.00  0.00    +0.254 A 
ATOM     19  O   UNL     1       5.401  -7.577  28.801  0.00  0.00    -0.268 OA
ATOM     20  C   UNL     1       4.836  -6.445  26.813  0.00  0.00    +0.088 A 
ATOM     21  C   UNL     1       5.250  -5.589  25.872  0.00  0.00    +0.098 A 
ENDBRANCH  11  13
BRANCH  10  22
ATOM     22  O   UNL     1       9.248  -4.040  24.072  0.00  0.00    -0.385 OA
ATOM     23  H   UNL     1       9.153  -3.069  23.934  0.00  0.00    +0.210 HD
ENDBRANCH  10  22
BRANCH   9  24
ATOM     24  O   UNL     1       6.625  -5.171  21.939  0.00  0.00    -0.386 OA
ATOM     25  H   UNL     1       5.742  -5.200  22.354  0.00  0.00    +0.210 HD
ENDBRANCH   9  24
ENDBRANCH   7   8
ENDBRANCH   6   7
ENDBRANCH   2   6
ENDBRANCH   1   2
BRANCH   1  26
ATOM     26  P   UNL     1       9.553   1.690  22.767  0.00  0.00    +0.486 P 
ATOM     27  O   UNL     1       8.420   2.180  21.862  0.00  0.00    -0.227 OA
BRANCH  26  28
ATOM     28  O   UNL     1      10.608   2.574  21.718  0.00  0.00    -0.302 OA
ATOM     29  H   UNL     1      10.036   3.366  21.612  0.00  0.00    +0.222 HD
ENDBRANCH  26  28
BRANCH  26  30
ATOM     30  O   UNL     1       9.879   2.814  23.921  0.00  0.00    -0.254 OA
BRANCH  30  32
ATOM     31  C   UNL     1       9.871   5.312  23.873  0.00  0.00    +0.160 C 
ATOM     32  C   UNL     1       9.073   3.969  24.081  0.00  0.00    +0.285 C 
ATOM     33  O   UNL     1       7.822   3.810  23.448  0.00  0.00    -0.341 OA
ATOM     34  C   UNL     1       6.926   4.914  23.368  0.00  0.00    +0.178 C 
ATOM     35  C   UNL     1       7.623   6.208  22.937  0.00  0.00    +0.176 C 
ATOM     36  C   UNL     1       8.906   6.509  23.741  0.00  0.00    +0.171 C 
BRANCH  31  39
ATOM     37  C   UNL     1      13.364   5.547  22.177  0.00  0.00    +0.109 C 
ATOM     38  C   UNL     1      12.359   5.621  23.302  0.00  0.00    +0.210 C 
ATOM     39  N   UNL     1      11.066   5.311  22.985  0.00  0.00    -0.305 N 
ATOM     40  H   UNL     1      10.861   5.198  21.993  0.00  0.00    +0.149 HD
ATOM     41  O   UNL     1      12.710   5.970  24.425  0.00  0.00    -0.276 OA
ENDBRANCH  31  39
BRANCH  36  42
ATOM     42  O   UNL     1       8.546   7.000  25.052  0.00  0.00    -0.387 OA
ATOM     43  H   UNL     1       9.148   7.713  25.322  0.00  0.00    +0.210 HD
ENDBRANCH  36  42
BRANCH  35  44
ATOM     44  O   UNL     1       7.830   6.114  21.526  0.00  0.00    -0.387 OA
ATOM     45  H   UNL     1       7.931   5.173  21.267  0.00  0.00    +0.210 HD
ENDBRANCH  35  44
BRANCH  34  46
ATOM     46  C   UNL     1       6.030   5.102  24.606  0.00  0.00    +0.190 C 
BRANCH  46  47
ATOM     47  O   UNL     1       4.810   5.778  24.304  0.00  0.00    -0.392 OA
ATOM     48  H   UNL     1       4.946   6.271  23.477  0.00  0.00    +0.210 HD
ENDBRANCH  46  47
ENDBRANCH  34  46
ENDBRANCH  30  32
ENDBRANCH  26  30
ENDBRANCH   1  26
TORSDOF 17
ENDMDL
MODEL 9
REMARK VINA RESULT:      -7.5      2.719     10.095
REMARK  Name = 
REMARK  18 active torsions:
REMARK  status: ('A' for Active; 'I' for Inactive)
REMARK    1  A    between atoms: C_1  and  C_2
REMARK    2  A    between atoms: N_4  and  C_5
REMARK    3  A    between atoms: C_7  and  O_9
REMARK    4  A    between atoms: C_10  and  O_12
REMARK    5  A    between atoms: C_13  and  C_15
REMARK    6  A    between atoms: C_15  and  O_16
REMARK    7  A    between atoms: C_18  and  O_20
REMARK    8  A    between atoms: O_20  and  P_21
REMARK    9  A    between atoms: P_21  and  O_22
REMARK   10  A    between atoms: P_21  and  O_24
REMARK   11  A    between atoms: O_24  and  P_25
REMARK   12  A    between atoms: P_25  and  O_26
REMARK   13  A    between atoms: P_25  and  O_28
REMARK   14  A    between atoms: O_28  and  C_29
REMARK   15  A    between atoms: C_29  and  C_30
REMARK   16  A    between atoms: C_33  and  N_41
REMARK   17  A    between atoms: C_35  and  O_37
REMARK   18  A    between atoms: C_38  and  O_40
REMARK                            x       y       z     vdW  Elec       q    Type
REMARK                         _______ _______ _______ _____ _____    ______ ____
ROOT
ATOM      1  O   UNL     1       8.231  -4.366  26.496  0.00  0.00    -0.186 OA
ENDROOT
BRANCH   1   2
ATOM      2  P   UNL     1       8.768  -4.883  24.935  0.00  0.00    +0.483 P 
ATOM      3  O   UNL     1      10.237  -4.517  24.744  0.00  0.00    -0.227 OA
BRANCH   2   4
ATOM      4  O   UNL     1       9.277  -6.392  25.610  0.00  0.00    -0.302 OA
ATOM      5  H   UNL     1       9.375  -7.048  24.893  0.00  0.00    +0.222 HD
ENDBRANCH   2   4
BRANCH   2   6
ATOM      6  O   UNL     1       8.260  -3.373  24.260  0.00  0.00    -0.284 OA
BRANCH   6   7
ATOM      7  C   UNL     1       8.935  -2.170  24.652  0.00  0.00    +0.206 C 
BRANCH   7   8
ATOM      8  C   UNL     1       9.742  -1.400  23.560  0.00  0.00    +0.178 C 
ATOM      9  C   UNL     1       8.941  -0.967  22.338  0.00  0.00    +0.178 C 
ATOM     10  C   UNL     1       8.322   0.364  22.741  0.00  0.00    +0.195 C 
ATOM     11  C   UNL     1       9.177   0.841  23.937  0.00  0.00    +0.255 C 
ATOM     12  O   UNL     1      10.248  -0.122  24.070  0.00  0.00    -0.346 OA
BRANCH  11  13
ATOM     13  N   UNL     1       9.631   2.233  23.812  0.00  0.00    -0.271 N 
ATOM     14  C   UNL     1       8.739   3.203  24.272  0.00  0.00    +0.331 A 
ATOM     15  O   UNL     1       7.620   2.939  24.716  0.00  0.00    -0.246 OA
ATOM     16  N   UNL     1       9.167   4.502  24.196  0.00  0.00    -0.275 N 
ATOM     17  H   UNL     1       8.522   5.214  24.498  0.00  0.00    +0.173 HD
ATOM     18  C   UNL     1      10.389   4.926  23.769  0.00  0.00    +0.254 A 
ATOM     19  O   UNL     1      10.722   6.104  23.721  0.00  0.00    -0.268 OA
ATOM     20  C   UNL     1      11.317   3.852  23.360  0.00  0.00    +0.088 A 
ATOM     21  C   UNL     1      10.906   2.580  23.403  0.00  0.00    +0.098 A 
ENDBRANCH  11  13
BRANCH  10  22
ATOM     22  O   UNL     1       6.965   0.162  23.143  0.00  0.00    -0.385 OA
ATOM     23  H   UNL     1       6.626  -0.562  22.567  0.00  0.00    +0.210 HD
ENDBRANCH  10  22
BRANCH   9  24
ATOM     24  O   UNL     1       9.816  -0.775  21.218  0.00  0.00    -0.386 OA
ATOM     25  H   UNL     1      10.216   0.113  21.285  0.00  0.00    +0.210 HD
ENDBRANCH   9  24
ENDBRANCH   7   8
ENDBRANCH   6   7
ENDBRANCH   2   6
ENDBRANCH   1   2
BRANCH   1  26
ATOM     26  P   UNL     1       7.095  -5.531  27.085  0.00  0.00    +0.486 P 
ATOM     27  O   UNL     1       6.365  -4.527  27.978  0.00  0.00    -0.227 OA
BRANCH  26  28
ATOM     28  O   UNL     1       5.959  -6.695  27.673  0.00  0.00    -0.302 OA
ATOM     29  H   UNL     1       6.166  -7.404  27.024  0.00  0.00    +0.222 HD
ENDBRANCH  26  28
BRANCH  26  30
ATOM     30  O   UNL     1       6.343  -5.641  25.628  0.00  0.00    -0.254 OA
BRANCH  30  32
ATOM     31  C   UNL     1       4.321  -4.577  24.618  0.00  0.00    +0.160 C 
ATOM     32  C   UNL     1       4.931  -5.712  25.525  0.00  0.00    +0.285 C 
ATOM     33  O   UNL     1       4.498  -7.043  25.340  0.00  0.00    -0.341 OA
ATOM     34  C   UNL     1       3.127  -7.308  25.067  0.00  0.00    +0.178 C 
ATOM     35  C   UNL     1       2.545  -6.367  24.008  0.00  0.00    +0.176 C 
ATOM     36  C   UNL     1       2.845  -4.878  24.280  0.00  0.00    +0.171 C 
BRANCH  31  39
ATOM     37  C   UNL     1       6.481  -3.768  21.486  0.00  0.00    +0.109 C 
ATOM     38  C   UNL     1       5.643  -4.615  22.413  0.00  0.00    +0.210 C 
ATOM     39  N   UNL     1       5.154  -3.996  23.530  0.00  0.00    -0.305 N 
ATOM     40  H   UNL     1       5.514  -3.062  23.719  0.00  0.00    +0.149 HD
ATOM     41  O   UNL     1       5.449  -5.802  22.163  0.00  0.00    -0.276 OA
ENDBRANCH  31  39
BRANCH  36  42
ATOM     42  O   UNL     1       1.988  -4.403  25.343  0.00  0.00    -0.387 OA
ATOM     43  H   UNL     1       1.058  -4.438  25.066  0.00  0.00    +0.210 HD
ENDBRANCH  36  42
BRANCH  35  44
ATOM     44  O   UNL     1       3.016  -6.833  22.741  0.00  0.00    -0.387 OA
ATOM     45  H   UNL     1       2.977  -6.105  22.084  0.00  0.00    +0.210 HD
ENDBRANCH  35  44
BRANCH  34  46
ATOM     46  C   UNL     1       2.235  -7.422  26.318  0.00  0.00    +0.190 C 
BRANCH  46  47
ATOM     47  O   UNL     1       2.991  -7.516  27.525  0.00  0.00    -0.392 OA
ATOM     48  H   UNL     1       3.933  -7.505  27.281  0.00  0.00    +0.210 HD
ENDBRANCH  46  47
ENDBRANCH  34  46
ENDBRANCH  30  32
ENDBRANCH  26  30
ENDBRANCH   1  26
TORSDOF 17
ENDMDL
