MODEL 1
REMARK VINA RESULT:      -6.7      0.000      0.000
REMARK  Name = 
REMARK  18 active torsions:
REMARK  status: ('A' for Active; 'I' for Inactive)
REMARK    1  A    between atoms: O_1  and  C_2
REMARK    2  A    between atoms: C_2  and  C_3
REMARK    3  A    between atoms: C_6  and  O_8
REMARK    4  A    between atoms: O_8  and  C_9
REMARK    5  A    between atoms: C_11  and  O_13
REMARK    6  A    between atoms: C_14  and  O_16
REMARK    7  A    between atoms: C_17  and  O_19
REMARK    8  A    between atoms: O_19  and  C_20
REMARK    9  A    between atoms: C_20  and  C_21
REMARK   10  A    between atoms: C_21  and  C_22
REMARK   11  A    between atoms: C_22  and  C_23
REMARK   12  A    between atoms: C_23  and  C_24
REMARK   13  A    between atoms: C_24  and  C_25
REMARK   14  A    between atoms: C_32  and  C_34
REMARK   15  A    between atoms: C_34  and  O_35
REMARK   16  A    between atoms: C_36  and  O_38
REMARK   17  A    between atoms: C_39  and  O_41
REMARK   18  A    between atoms: C_42  and  O_44
REMARK                            x       y       z     vdW  Elec       q    Type
REMARK                         _______ _______ _______ _____ _____    ______ ____
ROOT
ATOM      1  C   UNL     1       6.437  -3.897  24.240  0.00  0.00    +0.183 C 
ATOM      2  C   UNL     1       7.330  -4.288  23.035  0.00  0.00    +0.178 C 
ATOM      3  O   UNL     1       8.636  -3.679  23.094  0.00  0.00    -0.341 OA
ATOM      4  C   UNL     1       8.706  -2.273  23.379  0.00  0.00    +0.282 C 
ATOM      5  C   UNL     1       7.912  -1.909  24.642  0.00  0.00    +0.201 C 
ATOM      6  C   UNL     1       6.450  -2.371  24.445  0.00  0.00    +0.179 C 
ENDROOT
BRANCH   6   7
ATOM      7  O   UNL     1       5.774  -1.683  23.387  0.00  0.00    -0.386 OA
ATOM      8  H   UNL     1       4.878  -1.427  23.686  0.00  0.00    +0.210 HD
ENDBRANCH   6   7
BRANCH   5   9
ATOM      9  O   UNL     1       8.524  -2.474  25.799  0.00  0.00    -0.384 OA
ATOM     10  H   UNL     1       8.705  -1.730  26.411  0.00  0.00    +0.210 HD
ENDBRANCH   5   9
BRANCH   1  11
ATOM     11  O   UNL     1       6.980  -4.591  25.399  0.00  0.00    -0.340 OA
BRANCH  11  16
ATOM     12  C   UNL     1       4.372  -6.664  26.890  0.00  0.00    +0.178 C 
ATOM     13  C   UNL     1       4.855  -6.705  28.358  0.00  0.00    +0.177 C 
ATOM     14  C   UNL     1       5.596  -5.429  28.800  0.00  0.00    +0.179 C 
ATOM     15  C   UNL     1       6.648  -5.044  27.754  0.00  0.00    +0.201 C 
ATOM     16  C   UNL     1       5.980  -4.949  26.371  0.00  0.00    +0.282 C 
ATOM     17  O   UNL     1       5.380  -6.178  25.988  0.00  0.00    -0.341 OA
BRANCH  15  18
ATOM     18  O   UNL     1       7.695  -6.032  27.725  0.00  0.00    -0.384 OA
ATOM     19  H   UNL     1       8.345  -5.732  28.394  0.00  0.00    +0.210 HD
ENDBRANCH  15  18
BRANCH  14  20
ATOM     20  O   UNL     1       4.704  -4.347  29.079  0.00  0.00    -0.386 OA
ATOM     21  H   UNL     1       5.126  -3.737  29.726  0.00  0.00    +0.210 HD
ENDBRANCH  14  20
BRANCH  13  22
ATOM     22  O   UNL     1       5.735  -7.836  28.511  0.00  0.00    -0.386 OA
ATOM     23  H   UNL     1       6.082  -8.061  27.620  0.00  0.00    +0.210 HD
ENDBRANCH  13  22
BRANCH  12  24
ATOM     24  C   UNL     1       3.026  -5.939  26.683  0.00  0.00    +0.190 C 
BRANCH  24  25
ATOM     25  O   UNL     1       2.248  -5.856  27.875  0.00  0.00    -0.392 OA
ATOM     26  H   UNL     1       2.642  -6.488  28.508  0.00  0.00    +0.210 HD
ENDBRANCH  24  25
ENDBRANCH  12  24
ENDBRANCH  11  16
ENDBRANCH   1  11
BRANCH   2  27
ATOM     27  C   UNL     1       6.672  -4.076  21.659  0.00  0.00    +0.190 C 
BRANCH  27  28
ATOM     28  O   UNL     1       5.249  -4.148  21.771  0.00  0.00    -0.392 OA
ATOM     29  H   UNL     1       5.068  -4.742  22.525  0.00  0.00    +0.210 HD
ENDBRANCH  27  28
ENDBRANCH   2  27
BRANCH   4  30
ATOM     30  O   UNL     1       8.278  -1.508  22.250  0.00  0.00    -0.349 OA
BRANCH  30  31
ATOM     31  C   UNL     1       9.318  -0.770  21.589  0.00  0.00    +0.163 C 
BRANCH  31  32
ATOM     32  C   UNL     1       9.025   0.720  21.458  0.00  0.00    +0.028 C 
BRANCH  32  33
ATOM     33  C   UNL     1      10.117   1.503  22.168  0.00  0.00    +0.002 C 
BRANCH  33  34
ATOM     34  C   UNL     1       9.771   1.807  23.617  0.00  0.00    +0.000 C 
BRANCH  34  35
ATOM     35  C   UNL     1       9.851   3.318  23.807  0.00  0.00    +0.003 C 
BRANCH  35  36
ATOM     36  C   UNL     1       8.607   3.951  24.444  0.00  0.00    -0.011 C 
ATOM     37  C   UNL     1       7.361   3.558  23.632  0.00  0.00    +0.003 C 
ATOM     38  C   UNL     1       7.325   4.226  22.256  0.00  0.00    +0.000 C 
ATOM     39  C   UNL     1       7.484   5.741  22.349  0.00  0.00    +0.000 C 
ATOM     40  C   UNL     1       8.684   6.165  23.191  0.00  0.00    +0.000 C 
ATOM     41  C   UNL     1       8.684   5.481  24.557  0.00  0.00    +0.003 C 
ENDBRANCH  35  36
ENDBRANCH  34  35
ENDBRANCH  33  34
ENDBRANCH  32  33
ENDBRANCH  31  32
ENDBRANCH  30  31
ENDBRANCH   4  30
TORSDOF 18
ENDMDL
MODEL 2
REMARK VINA RESULT:      -6.6      2.208      3.717
REMARK  Name = 
REMARK  18 active torsions:
REMARK  status: ('A' for Active; 'I' for Inactive)
REMARK    1  A    between atoms: O_1  and  C_2
REMARK    2  A    between atoms: C_2  and  C_3
REMARK    3  A    between atoms: C_6  and  O_8
REMARK    4  A    between atoms: O_8  and  C_9
REMARK    5  A    between atoms: C_11  and  O_13
REMARK    6  A    between atoms: C_14  and  O_16
REMARK    7  A    between atoms: C_17  and  O_19
REMARK    8  A    between atoms: O_19  and  C_20
REMARK    9  A    between atoms: C_20  and  C_21
REMARK   10  A    between atoms: C_21  and  C_22
REMARK   11  A    between atoms: C_22  and  C_23
REMARK   12  A    between atoms: C_23  and  C_24
REMARK   13  A    between atoms: C_24  and  C_25
REMARK   14  A    between atoms: C_32  and  C_34
REMARK   15  A    between atoms: C_34  and  O_35
REMARK   16  A    between atoms: C_36  and  O_38
REMARK   17  A    between atoms: C_39  and  O_41
REMARK   18  A    between atoms: C_42  and  O_44
REMARK                            x       y       z     vdW  Elec       q    Type
REMARK                         _______ _______ _______ _____ _____    ______ ____
ROOT
ATOM      1  C   UNL     1       5.174  -5.288  23.697  0.00  0.00    +0.183 C 
ATOM      2  C   UNL     1       6.335  -5.571  22.711  0.00  0.00    +0.178 C 
ATOM      3  O   UNL     1       7.583  -5.829  23.386  0.00  0.00    -0.341 OA
ATOM      4  C   UNL     1       7.976  -4.927  24.432  0.00  0.00    +0.282 C 
ATOM      5  C   UNL     1       6.860  -4.740  25.471  0.00  0.00    +0.201 C 
ATOM      6  C   UNL     1       5.597  -4.233  24.737  0.00  0.00    +0.179 C 
ENDROOT
BRANCH   6   7
ATOM      7  O   UNL     1       5.760  -2.939  24.150  0.00  0.00    -0.386 OA
ATOM      8  H   UNL     1       6.693  -2.819  23.882  0.00  0.00    +0.210 HD
ENDBRANCH   6   7
BRANCH   5   9
ATOM      9  O   UNL     1       6.638  -5.949  26.192  0.00  0.00    -0.384 OA
ATOM     10  H   UNL     1       7.296  -6.597  25.860  0.00  0.00    +0.210 HD
ENDBRANCH   5   9
BRANCH   1  11
ATOM     11  O   UNL     1       4.851  -6.558  24.332  0.00  0.00    -0.340 OA
BRANCH  11  16
ATOM     12  C   UNL     1       1.773  -8.520  24.296  0.00  0.00    +0.178 C 
ATOM     13  C   UNL     1       1.155  -8.091  25.646  0.00  0.00    +0.177 C 
ATOM     14  C   UNL     1       1.503  -6.647  26.054  0.00  0.00    +0.179 C 
ATOM     15  C   UNL     1       3.008  -6.404  25.894  0.00  0.00    +0.201 C 
ATOM     16  C   UNL     1       3.437  -6.787  24.466  0.00  0.00    +0.282 C 
ATOM     17  O   UNL     1       3.157  -8.149  24.177  0.00  0.00    -0.341 OA
BRANCH  15  18
ATOM     18  O   UNL     1       3.736  -7.195  26.852  0.00  0.00    -0.384 OA
ATOM     19  H   UNL     1       3.912  -6.589  27.600  0.00  0.00    +0.210 HD
ENDBRANCH  15  18
BRANCH  14  20
ATOM     20  O   UNL     1       0.730  -5.676  25.344  0.00  0.00    -0.386 OA
ATOM     21  H   UNL     1       0.807  -4.806  25.797  0.00  0.00    +0.210 HD
ENDBRANCH  14  20
BRANCH  13  22
ATOM     22  O   UNL     1       1.628  -8.994  26.664  0.00  0.00    -0.386 OA
ATOM     23  H   UNL     1       1.824  -9.852  26.228  0.00  0.00    +0.210 HD
ENDBRANCH  13  22
BRANCH  12  24
ATOM     24  C   UNL     1       0.961  -8.086  23.058  0.00  0.00    +0.190 C 
BRANCH  24  25
ATOM     25  O   UNL     1       1.579  -8.457  21.827  0.00  0.00    -0.392 OA
ATOM     26  H   UNL     1       1.936  -9.358  21.957  0.00  0.00    +0.210 HD
ENDBRANCH  24  25
ENDBRANCH  12  24
ENDBRANCH  11  16
ENDBRANCH   1  11
BRANCH   2  27
ATOM     27  C   UNL     1       6.502  -4.514  21.604  0.00  0.00    +0.190 C 
BRANCH  27  28
ATOM     28  O   UNL     1       5.298  -3.760  21.448  0.00  0.00    -0.392 OA
ATOM     29  H   UNL     1       4.988  -3.932  20.539  0.00  0.00    +0.210 HD
ENDBRANCH  27  28
ENDBRANCH   2  27
BRANCH   4  30
ATOM     30  O   UNL     1       8.402  -3.677  23.886  0.00  0.00    -0.349 OA
BRANCH  30  31
ATOM     31  C   UNL     1       9.188  -2.866  24.774  0.00  0.00    +0.163 C 
BRANCH  31  32
ATOM     32  C   UNL     1       9.576  -1.514  24.187  0.00  0.00    +0.028 C 
BRANCH  32  33
ATOM     33  C   UNL     1      10.305  -1.736  22.871  0.00  0.00    +0.002 C 
BRANCH  33  34
ATOM     34  C   UNL     1       9.607  -1.070  21.697  0.00  0.00    +0.000 C 
BRANCH  34  35
ATOM     35  C   UNL     1       8.590  -0.082  22.260  0.00  0.00    +0.003 C 
BRANCH  35  36
ATOM     36  C   UNL     1       8.746   1.358  21.751  0.00  0.00    -0.011 C 
ATOM     37  C   UNL     1      10.159   1.867  22.084  0.00  0.00    +0.003 C 
ATOM     38  C   UNL     1      10.363   2.090  23.583  0.00  0.00    +0.000 C 
ATOM     39  C   UNL     1       9.284   2.987  24.183  0.00  0.00    +0.000 C 
ATOM     40  C   UNL     1       7.869   2.538  23.829  0.00  0.00    +0.000 C 
ATOM     41  C   UNL     1       7.704   2.329  22.325  0.00  0.00    +0.003 C 
ENDBRANCH  35  36
ENDBRANCH  34  35
ENDBRANCH  33  34
ENDBRANCH  32  33
ENDBRANCH  31  32
ENDBRANCH  30  31
ENDBRANCH   4  30
TORSDOF 18
ENDMDL
MODEL 3
REMARK VINA RESULT:      -6.5      1.534      2.584
REMARK  Name = 
REMARK  18 active torsions:
REMARK  status: ('A' for Active; 'I' for Inactive)
REMARK    1  A    between atoms: O_1  and  C_2
REMARK    2  A    between atoms: C_2  and  C_3
REMARK    3  A    between atoms: C_6  and  O_8
REMARK    4  A    between atoms: O_8  and  C_9
REMARK    5  A    between atoms: C_11  and  O_13
REMARK    6  A    between atoms: C_14  and  O_16
REMARK    7  A    between atoms: C_17  and  O_19
REMARK    8  A    between atoms: O_19  and  C_20
REMARK    9  A    between atoms: C_20  and  C_21
REMARK   10  A    between atoms: C_21  and  C_22
REMARK   11  A    between atoms: C_22  and  C_23
REMARK   12  A    between atoms: C_23  and  C_24
REMARK   13  A    between atoms: C_24  and  C_25
REMARK   14  A    between atoms: C_32  and  C_34
REMARK   15  A    between atoms: C_34  and  O_35
REMARK   16  A    between atoms: C_36  and  O_38
REMARK   17  A    between atoms: C_39  and  O_41
REMARK   18  A    between atoms: C_42  and  O_44
REMARK                            x       y       z     vdW  Elec       q    Type
REMARK                         _______ _______ _______ _____ _____    ______ ____
ROOT
ATOM      1  C   UNL     1       7.322  -4.335  25.273  0.00  0.00    +0.183 C 
ATOM      2  C   UNL     1       8.626  -3.882  25.975  0.00  0.00    +0.178 C 
ATOM      3  O   UNL     1       8.919  -2.487  25.751  0.00  0.00    -0.341 OA
ATOM      4  C   UNL     1       8.835  -1.995  24.404  0.00  0.00    +0.282 C 
ATOM      5  C   UNL     1       7.491  -2.349  23.751  0.00  0.00    +0.201 C 
ATOM      6  C   UNL     1       7.319  -3.885  23.800  0.00  0.00    +0.179 C 
ENDROOT
BRANCH   6   7
ATOM      7  O   UNL     1       8.291  -4.591  23.023  0.00  0.00    -0.386 OA
ATOM      8  H   UNL     1       8.013  -5.523  22.923  0.00  0.00    +0.210 HD
ENDBRANCH   6   7
BRANCH   5   9
ATOM      9  O   UNL     1       6.425  -1.648  24.387  0.00  0.00    -0.384 OA
ATOM     10  H   UNL     1       6.027  -1.066  23.705  0.00  0.00    +0.210 HD
ENDBRANCH   5   9
BRANCH   1  11
ATOM     11  O   UNL     1       6.222  -3.732  26.012  0.00  0.00    -0.340 OA
BRANCH  11  16
ATOM     12  C   UNL     1       4.656  -7.017  26.287  0.00  0.00    +0.178 C 
ATOM     13  C   UNL     1       4.294  -7.028  27.789  0.00  0.00    +0.177 C 
ATOM     14  C   UNL     1       3.969  -5.633  28.357  0.00  0.00    +0.179 C 
ATOM     15  C   UNL     1       5.046  -4.628  27.929  0.00  0.00    +0.201 C 
ATOM     16  C   UNL     1       5.207  -4.676  26.399  0.00  0.00    +0.282 C 
ATOM     17  O   UNL     1       5.579  -5.970  25.946  0.00  0.00    -0.341 OA
BRANCH  15  18
ATOM     18  O   UNL     1       6.297  -4.952  28.563  0.00  0.00    -0.384 OA
ATOM     19  H   UNL     1       6.229  -4.576  29.464  0.00  0.00    +0.210 HD
ENDBRANCH  15  18
BRANCH  14  20
ATOM     20  O   UNL     1       2.658  -5.189  28.000  0.00  0.00    -0.386 OA
ATOM     21  H   UNL     1       2.213  -5.887  27.468  0.00  0.00    +0.210 HD
ENDBRANCH  14  20
BRANCH  13  22
ATOM     22  O   UNL     1       5.407  -7.582  28.517  0.00  0.00    -0.386 OA
ATOM     23  H   UNL     1       6.102  -6.889  28.565  0.00  0.00    +0.210 HD
ENDBRANCH  13  22
BRANCH  12  24
ATOM     24  C   UNL     1       3.438  -7.032  25.339  0.00  0.00    +0.190 C 
BRANCH  24  25
ATOM     25  O   UNL     1       3.638  -7.849  24.187  0.00  0.00    -0.392 OA
ATOM     26  H   UNL     1       4.529  -7.635  23.847  0.00  0.00    +0.210 HD
ENDBRANCH  24  25
ENDBRANCH  12  24
ENDBRANCH  11  16
ENDBRANCH   1  11
BRANCH   2  27
ATOM     27  C   UNL     1       9.850  -4.767  25.679  0.00  0.00    +0.190 C 
BRANCH  27  28
ATOM     28  O   UNL     1       9.445  -6.119  25.454  0.00  0.00    -0.392 OA
ATOM     29  H   UNL     1       9.045  -6.135  24.563  0.00  0.00    +0.210 HD
ENDBRANCH  27  28
ENDBRANCH   2  27
BRANCH   4  30
ATOM     30  O   UNL     1       9.938  -2.465  23.626  0.00  0.00    -0.349 OA
BRANCH  30  31
ATOM     31  C   UNL     1      10.408  -1.548  22.626  0.00  0.00    +0.163 C 
BRANCH  31  32
ATOM     32  C   UNL     1      10.366  -0.089  23.064  0.00  0.00    +0.028 C 
BRANCH  32  33
ATOM     33  C   UNL     1       9.925   0.768  21.889  0.00  0.00    +0.002 C 
BRANCH  33  34
ATOM     34  C   UNL     1       8.413   0.885  21.786  0.00  0.00    +0.000 C 
BRANCH  34  35
ATOM     35  C   UNL     1       8.062   2.369  21.755  0.00  0.00    +0.003 C 
BRANCH  35  36
ATOM     36  C   UNL     1       7.068   2.816  22.835  0.00  0.00    -0.011 C 
ATOM     37  C   UNL     1       7.029   4.353  22.890  0.00  0.00    +0.003 C 
ATOM     38  C   UNL     1       8.320   4.952  23.451  0.00  0.00    +0.000 C 
ATOM     39  C   UNL     1       8.693   4.348  24.803  0.00  0.00    +0.000 C 
ATOM     40  C   UNL     1       8.691   2.822  24.796  0.00  0.00    +0.000 C 
ATOM     41  C   UNL     1       7.386   2.263  24.232  0.00  0.00    +0.003 C 
ENDBRANCH  35  36
ENDBRANCH  34  35
ENDBRANCH  33  34
ENDBRANCH  32  33
ENDBRANCH  31  32
ENDBRANCH  30  31
ENDBRANCH   4  30
TORSDOF 18
ENDMDL
MODEL 4
REMARK VINA RESULT:      -6.5      1.685      2.902
REMARK  Name = 
REMARK  18 active torsions:
REMARK  status: ('A' for Active; 'I' for Inactive)
REMARK    1  A    between atoms: O_1  and  C_2
REMARK    2  A    between atoms: C_2  and  C_3
REMARK    3  A    between atoms: C_6  and  O_8
REMARK    4  A    between atoms: O_8  and  C_9
REMARK    5  A    between atoms: C_11  and  O_13
REMARK    6  A    between atoms: C_14  and  O_16
REMARK    7  A    between atoms: C_17  and  O_19
REMARK    8  A    between atoms: O_19  and  C_20
REMARK    9  A    between atoms: C_20  and  C_21
REMARK   10  A    between atoms: C_21  and  C_22
REMARK   11  A    between atoms: C_22  and  C_23
REMARK   12  A    between atoms: C_23  and  C_24
REMARK   13  A    between atoms: C_24  and  C_25
REMARK   14  A    between atoms: C_32  and  C_34
REMARK   15  A    between atoms: C_34  and  O_35
REMARK   16  A    between atoms: C_36  and  O_38
REMARK   17  A    between atoms: C_39  and  O_41
REMARK   18  A    between atoms: C_42  and  O_44
REMARK                            x       y       z     vdW  Elec       q    Type
REMARK                         _______ _______ _______ _____ _____    ______ ____
ROOT
ATOM      1  C   UNL     1       6.737  -3.448  24.614  0.00  0.00    +0.183 C 
ATOM      2  C   UNL     1       6.877  -2.562  23.351  0.00  0.00    +0.178 C 
ATOM      3  O   UNL     1       8.179  -2.673  22.739  0.00  0.00    -0.341 OA
ATOM      4  C   UNL     1       9.329  -2.574  23.594  0.00  0.00    +0.282 C 
ATOM      5  C   UNL     1       9.238  -3.540  24.785  0.00  0.00    +0.201 C 
ATOM      6  C   UNL     1       7.935  -3.231  25.558  0.00  0.00    +0.179 C 
ENDROOT
BRANCH   6   7
ATOM      7  O   UNL     1       7.920  -1.930  26.151  0.00  0.00    -0.386 OA
ATOM      8  H   UNL     1       7.205  -1.397  25.749  0.00  0.00    +0.210 HD
ENDBRANCH   6   7
BRANCH   5   9
ATOM      9  O   UNL     1       9.316  -4.892  24.341  0.00  0.00    -0.384 OA
ATOM     10  H   UNL     1       9.748  -4.873  23.461  0.00  0.00    +0.210 HD
ENDBRANCH   5   9
BRANCH   1  11
ATOM     11  O   UNL     1       6.674  -4.826  24.148  0.00  0.00    -0.340 OA
BRANCH  11  16
ATOM     12  C   UNL     1       3.519  -5.246  25.936  0.00  0.00    +0.178 C 
ATOM     13  C   UNL     1       2.632  -5.812  24.805  0.00  0.00    +0.177 C 
ATOM     14  C   UNL     1       3.406  -6.662  23.779  0.00  0.00    +0.179 C 
ATOM     15  C   UNL     1       4.675  -5.924  23.337  0.00  0.00    +0.201 C 
ATOM     16  C   UNL     1       5.489  -5.521  24.579  0.00  0.00    +0.282 C 
ATOM     17  O   UNL     1       4.746  -4.678  25.448  0.00  0.00    -0.341 OA
BRANCH  15  18
ATOM     18  O   UNL     1       4.320  -4.750  22.582  0.00  0.00    -0.384 OA
ATOM     19  H   UNL     1       5.062  -4.126  22.721  0.00  0.00    +0.210 HD
ENDBRANCH  15  18
BRANCH  14  20
ATOM     20  O   UNL     1       3.698  -7.975  24.266  0.00  0.00    -0.386 OA
ATOM     21  H   UNL     1       4.543  -8.286  23.870  0.00  0.00    +0.210 HD
ENDBRANCH  14  20
BRANCH  13  22
ATOM     22  O   UNL     1       2.010  -4.706  24.123  0.00  0.00    -0.386 OA
ATOM     23  H   UNL     1       2.726  -4.174  23.711  0.00  0.00    +0.210 HD
ENDBRANCH  13  22
BRANCH  12  24
ATOM     24  C   UNL     1       3.771  -6.228  27.099  0.00  0.00    +0.190 C 
BRANCH  24  25
ATOM     25  O   UNL     1       2.902  -7.358  27.074  0.00  0.00    -0.392 OA
ATOM     26  H   UNL     1       2.054  -7.065  27.464  0.00  0.00    +0.210 HD
ENDBRANCH  24  25
ENDBRANCH  12  24
ENDBRANCH  11  16
ENDBRANCH   1  11
BRANCH   2  27
ATOM     27  C   UNL     1       6.477  -1.090  23.557  0.00  0.00    +0.190 C 
BRANCH  27  28
ATOM     28  O   UNL     1       5.402  -0.993  24.495  0.00  0.00    -0.392 OA
ATOM     29  H   UNL     1       5.723  -1.414  25.315  0.00  0.00    +0.210 HD
ENDBRANCH  27  28
ENDBRANCH   2  27
BRANCH   4  30
ATOM     30  O   UNL     1       9.524  -1.225  24.024  0.00  0.00    -0.349 OA
BRANCH  30  31
ATOM     31  C   UNL     1      10.439  -0.461  23.224  0.00  0.00    +0.163 C 
BRANCH  31  32
ATOM     32  C   UNL     1       9.769   0.296  22.082  0.00  0.00    +0.028 C 
BRANCH  32  33
ATOM     33  C   UNL     1      10.137   1.768  22.183  0.00  0.00    +0.002 C 
BRANCH  33  34
ATOM     34  C   UNL     1      10.233   2.250  23.621  0.00  0.00    +0.000 C 
BRANCH  34  35
ATOM     35  C   UNL     1      10.083   3.767  23.614  0.00  0.00    +0.003 C 
BRANCH  35  36
ATOM     36  C   UNL     1       8.837   4.293  24.340  0.00  0.00    -0.011 C 
ATOM     37  C   UNL     1       7.576   3.717  23.671  0.00  0.00    +0.003 C 
ATOM     38  C   UNL     1       7.337   4.296  22.276  0.00  0.00    +0.000 C 
ATOM     39  C   UNL     1       7.326   5.823  22.282  0.00  0.00    +0.000 C 
ATOM     40  C   UNL     1       8.540   6.426  22.984  0.00  0.00    +0.000 C 
ATOM     41  C   UNL     1       8.744   5.825  24.373  0.00  0.00    +0.003 C 
ENDBRANCH  35  36
ENDBRANCH  34  35
ENDBRANCH  33  34
ENDBRANCH  32  33
ENDBRANCH  31  32
ENDBRANCH  30  31
ENDBRANCH   4  30
TORSDOF 18
ENDMDL
MODEL 5
REMARK VINA RESULT:      -6.5      2.076      4.486
REMARK  Name = 
REMARK  18 active torsions:
REMARK  status: ('A' for Active; 'I' for Inactive)
REMARK    1  A    between atoms: O_1  and  C_2
REMARK    2  A    between atoms: C_2  and  C_3
REMARK    3  A    between atoms: C_6  and  O_8
REMARK    4  A    between atoms: O_8  and  C_9
REMARK    5  A    between atoms: C_11  and  O_13
REMARK    6  A    between atoms: C_14  and  O_16
REMARK    7  A    between atoms: C_17  and  O_19
REMARK    8  A    between atoms: O_19  and  C_20
REMARK    9  A    between atoms: C_20  and  C_21
REMARK   10  A    between atoms: C_21  and  C_22
REMARK   11  A    between atoms: C_22  and  C_23
REMARK   12  A    between atoms: C_23  and  C_24
REMARK   13  A    between atoms: C_24  and  C_25
REMARK   14  A    between atoms: C_32  and  C_34
REMARK   15  A    between atoms: C_34  and  O_35
REMARK   16  A    between atoms: C_36  and  O_38
REMARK   17  A    between atoms: C_39  and  O_41
REMARK   18  A    between atoms: C_42  and  O_44
REMARK                            x       y       z     vdW  Elec       q    Type
REMARK                         _______ _______ _______ _____ _____    ______ ____
ROOT
ATOM      1  C   UNL     1       7.941  -1.376  23.509  0.00  0.00    +0.183 C 
ATOM      2  C   UNL     1       7.540   0.049  23.050  0.00  0.00    +0.178 C 
ATOM      3  O   UNL     1       8.461   0.599  22.085  0.00  0.00    -0.341 OA
ATOM      4  C   UNL     1       9.865   0.503  22.372  0.00  0.00    +0.282 C 
ATOM      5  C   UNL     1      10.279  -0.936  22.715  0.00  0.00    +0.201 C 
ATOM      6  C   UNL     1       9.426  -1.412  23.914  0.00  0.00    +0.179 C 
ENDROOT
BRANCH   6   7
ATOM      7  O   UNL     1       9.671  -0.674  25.115  0.00  0.00    -0.386 OA
ATOM      8  H   UNL     1       9.788   0.272  24.897  0.00  0.00    +0.210 HD
ENDBRANCH   6   7
BRANCH   5   9
ATOM      9  O   UNL     1      10.154  -1.779  21.572  0.00  0.00    -0.384 OA
ATOM     10  H   UNL     1       9.994  -1.189  20.806  0.00  0.00    +0.210 HD
ENDBRANCH   5   9
BRANCH   1  11
ATOM     11  O   UNL     1       7.678  -2.263  22.384  0.00  0.00    -0.340 OA
BRANCH  11  16
ATOM     12  C   UNL     1       5.740  -4.635  24.369  0.00  0.00    +0.178 C 
ATOM     13  C   UNL     1       5.094  -5.475  23.245  0.00  0.00    +0.177 C 
ATOM     14  C   UNL     1       5.967  -5.594  21.982  0.00  0.00    +0.179 C 
ATOM     15  C   UNL     1       6.493  -4.212  21.575  0.00  0.00    +0.201 C 
ATOM     16  C   UNL     1       7.194  -3.559  22.779  0.00  0.00    +0.282 C 
ATOM     17  O   UNL     1       6.316  -3.410  23.886  0.00  0.00    -0.341 OA
BRANCH  15  18
ATOM     18  O   UNL     1       5.401  -3.383  21.135  0.00  0.00    -0.384 OA
ATOM     19  H   UNL     1       5.535  -3.277  20.171  0.00  0.00    +0.210 HD
ENDBRANCH  15  18
BRANCH  14  20
ATOM     20  O   UNL     1       7.028  -6.540  22.137  0.00  0.00    -0.386 OA
ATOM     21  H   UNL     1       7.830  -6.207  21.674  0.00  0.00    +0.210 HD
ENDBRANCH  14  20
BRANCH  13  22
ATOM     22  O   UNL     1       3.838  -4.863  22.891  0.00  0.00    -0.386 OA
ATOM     23  H   UNL     1       4.032  -3.948  22.589  0.00  0.00    +0.210 HD
ENDBRANCH  13  22
BRANCH  12  24
ATOM     24  C   UNL     1       6.731  -5.416  25.257  0.00  0.00    +0.190 C 
BRANCH  24  25
ATOM     25  O   UNL     1       6.087  -6.181  26.274  0.00  0.00    -0.392 OA
ATOM     26  H   UNL     1       6.794  -6.657  26.753  0.00  0.00    +0.210 HD
ENDBRANCH  24  25
ENDBRANCH  12  24
ENDBRANCH  11  16
ENDBRANCH   1  11
BRANCH   2  27
ATOM     27  C   UNL     1       7.273   1.037  24.200  0.00  0.00    +0.190 C 
BRANCH  27  28
ATOM     28  O   UNL     1       6.809   0.340  25.358  0.00  0.00    -0.392 OA
ATOM     29  H   UNL     1       6.782   1.001  26.076  0.00  0.00    +0.210 HD
ENDBRANCH  27  28
ENDBRANCH   2  27
BRANCH   4  30
ATOM     30  O   UNL     1      10.232   1.417  23.409  0.00  0.00    -0.349 OA
BRANCH  30  31
ATOM     31  C   UNL     1      10.473   2.763  22.971  0.00  0.00    +0.163 C 
BRANCH  31  32
ATOM     32  C   UNL     1       9.931   3.823  23.923  0.00  0.00    +0.028 C 
BRANCH  32  33
ATOM     33  C   UNL     1      10.810   5.061  23.837  0.00  0.00    +0.002 C 
BRANCH  33  34
ATOM     34  C   UNL     1      10.003   6.347  23.781  0.00  0.00    +0.000 C 
BRANCH  34  35
ATOM     35  C   UNL     1       8.627   6.059  24.371  0.00  0.00    +0.003 C 
BRANCH  35  36
ATOM     36  C   UNL     1       7.450   6.617  23.558  0.00  0.00    -0.011 C 
ATOM     37  C   UNL     1       6.130   6.285  24.276  0.00  0.00    +0.003 C 
ATOM     38  C   UNL     1       5.800   4.792  24.233  0.00  0.00    +0.000 C 
ATOM     39  C   UNL     1       5.824   4.239  22.810  0.00  0.00    +0.000 C 
ATOM     40  C   UNL     1       7.101   4.595  22.052  0.00  0.00    +0.000 C 
ATOM     41  C   UNL     1       7.395   6.092  22.116  0.00  0.00    +0.003 C 
ENDBRANCH  35  36
ENDBRANCH  34  35
ENDBRANCH  33  34
ENDBRANCH  32  33
ENDBRANCH  31  32
ENDBRANCH  30  31
ENDBRANCH   4  30
TORSDOF 18
ENDMDL
MODEL 6
REMARK VINA RESULT:      -6.5      1.956      3.754
REMARK  Name = 
REMARK  18 active torsions:
REMARK  status: ('A' for Active; 'I' for Inactive)
REMARK    1  A    between atoms: O_1  and  C_2
REMARK    2  A    between atoms: C_2  and  C_3
REMARK    3  A    between atoms: C_6  and  O_8
REMARK    4  A    between atoms: O_8  and  C_9
REMARK    5  A    between atoms: C_11  and  O_13
REMARK    6  A    between atoms: C_14  and  O_16
REMARK    7  A    between atoms: C_17  and  O_19
REMARK    8  A    between atoms: O_19  and  C_20
REMARK    9  A    between atoms: C_20  and  C_21
REMARK   10  A    between atoms: C_21  and  C_22
REMARK   11  A    between atoms: C_22  and  C_23
REMARK   12  A    between atoms: C_23  and  C_24
REMARK   13  A    between atoms: C_24  and  C_25
REMARK   14  A    between atoms: C_32  and  C_34
REMARK   15  A    between atoms: C_34  and  O_35
REMARK   16  A    between atoms: C_36  and  O_38
REMARK   17  A    between atoms: C_39  and  O_41
REMARK   18  A    between atoms: C_42  and  O_44
REMARK                            x       y       z     vdW  Elec       q    Type
REMARK                         _______ _______ _______ _____ _____    ______ ____
ROOT
ATOM      1  C   UNL     1       6.424  -4.853  24.969  0.00  0.00    +0.183 C 
ATOM      2  C   UNL     1       7.243  -3.857  25.827  0.00  0.00    +0.178 C 
ATOM      3  O   UNL     1       7.422  -2.582  25.176  0.00  0.00    -0.341 OA
ATOM      4  C   UNL     1       7.849  -2.587  23.805  0.00  0.00    +0.282 C 
ATOM      5  C   UNL     1       6.960  -3.488  22.935  0.00  0.00    +0.201 C 
ATOM      6  C   UNL     1       6.982  -4.913  23.535  0.00  0.00    +0.179 C 
ENDROOT
BRANCH   6   7
ATOM      7  O   UNL     1       8.272  -5.530  23.488  0.00  0.00    -0.386 OA
ATOM      8  H   UNL     1       8.248  -6.287  22.869  0.00  0.00    +0.210 HD
ENDBRANCH   6   7
BRANCH   5   9
ATOM      9  O   UNL     1       5.645  -2.947  22.832  0.00  0.00    -0.384 OA
ATOM     10  H   UNL     1       5.723  -1.986  23.014  0.00  0.00    +0.210 HD
ENDBRANCH   5   9
BRANCH   1  11
ATOM     11  O   UNL     1       5.048  -4.376  24.981  0.00  0.00    -0.340 OA
BRANCH  11  16
ATOM     12  C   UNL     1       1.892  -5.906  25.995  0.00  0.00    +0.178 C 
ATOM     13  C   UNL     1       1.469  -6.574  24.667  0.00  0.00    +0.177 C 
ATOM     14  C   UNL     1       2.656  -7.035  23.801  0.00  0.00    +0.179 C 
ATOM     15  C   UNL     1       3.693  -5.911  23.690  0.00  0.00    +0.201 C 
ATOM     16  C   UNL     1       4.078  -5.433  25.102  0.00  0.00    +0.282 C 
ATOM     17  O   UNL     1       2.953  -4.951  25.822  0.00  0.00    -0.341 OA
BRANCH  15  18
ATOM     18  O   UNL     1       3.148  -4.815  22.933  0.00  0.00    -0.384 OA
ATOM     19  H   UNL     1       3.311  -4.021  23.483  0.00  0.00    +0.210 HD
ENDBRANCH  15  18
BRANCH  14  20
ATOM     20  O   UNL     1       3.240  -8.251  24.276  0.00  0.00    -0.386 OA
ATOM     21  H   UNL     1       2.961  -8.403  25.207  0.00  0.00    +0.210 HD
ENDBRANCH  14  20
BRANCH  13  22
ATOM     22  O   UNL     1       0.681  -5.628  23.918  0.00  0.00    -0.386 OA
ATOM     23  H   UNL     1       1.214  -5.353  23.139  0.00  0.00    +0.210 HD
ENDBRANCH  13  22
BRANCH  12  24
ATOM     24  C   UNL     1       2.202  -6.897  27.136  0.00  0.00    +0.190 C 
BRANCH  24  25
ATOM     25  O   UNL     1       1.701  -8.210  26.886  0.00  0.00    -0.392 OA
ATOM     26  H   UNL     1       2.195  -8.812  27.478  0.00  0.00    +0.210 HD
ENDBRANCH  24  25
ENDBRANCH  12  24
ENDBRANCH  11  16
ENDBRANCH   1  11
BRANCH   2  27
ATOM     27  C   UNL     1       8.581  -4.415  26.347  0.00  0.00    +0.190 C 
BRANCH  27  28
ATOM     28  O   UNL     1       8.486  -5.826  26.551  0.00  0.00    -0.392 OA
ATOM     29  H   UNL     1       9.342  -6.100  26.933  0.00  0.00    +0.210 HD
ENDBRANCH  27  28
ENDBRANCH   2  27
BRANCH   4  30
ATOM     30  O   UNL     1       9.227  -2.954  23.707  0.00  0.00    -0.349 OA
BRANCH  30  31
ATOM     31  C   UNL     1      10.131  -1.860  23.493  0.00  0.00    +0.163 C 
BRANCH  31  32
ATOM     32  C   UNL     1       9.433  -0.522  23.275  0.00  0.00    +0.028 C 
BRANCH  32  33
ATOM     33  C   UNL     1       9.756  -0.018  21.878  0.00  0.00    +0.002 C 
BRANCH  33  34
ATOM     34  C   UNL     1      10.019   1.479  21.843  0.00  0.00    +0.000 C 
BRANCH  34  35
ATOM     35  C   UNL     1       9.870   2.010  23.265  0.00  0.00    +0.003 C 
BRANCH  35  36
ATOM     36  C   UNL     1       8.960   3.239  23.398  0.00  0.00    -0.011 C 
ATOM     37  C   UNL     1       8.524   3.395  24.866  0.00  0.00    +0.003 C 
ATOM     38  C   UNL     1       7.556   2.296  25.308  0.00  0.00    +0.000 C 
ATOM     39  C   UNL     1       6.356   2.177  24.373  0.00  0.00    +0.000 C 
ATOM     40  C   UNL     1       6.753   2.072  22.903  0.00  0.00    +0.000 C 
ATOM     41  C   UNL     1       7.717   3.185  22.498  0.00  0.00    +0.003 C 
ENDBRANCH  35  36
ENDBRANCH  34  35
ENDBRANCH  33  34
ENDBRANCH  32  33
ENDBRANCH  31  32
ENDBRANCH  30  31
ENDBRANCH   4  30
TORSDOF 18
ENDMDL
MODEL 7
REMARK VINA RESULT:      -6.4      3.767      9.504
REMARK  Name = 
REMARK  18 active torsions:
REMARK  status: ('A' for Active; 'I' for Inactive)
REMARK    1  A    between atoms: O_1  and  C_2
REMARK    2  A    between atoms: C_2  and  C_3
REMARK    3  A    between atoms: C_6  and  O_8
REMARK    4  A    between atoms: O_8  and  C_9
REMARK    5  A    between atoms: C_11  and  O_13
REMARK    6  A    between atoms: C_14  and  O_16
REMARK    7  A    between atoms: C_17  and  O_19
REMARK    8  A    between atoms: O_19  and  C_20
REMARK    9  A    between atoms: C_20  and  C_21
REMARK   10  A    between atoms: C_21  and  C_22
REMARK   11  A    between atoms: C_22  and  C_23
REMARK   12  A    between atoms: C_23  and  C_24
REMARK   13  A    between atoms: C_24  and  C_25
REMARK   14  A    between atoms: C_32  and  C_34
REMARK   15  A    between atoms: C_34  and  O_35
REMARK   16  A    between atoms: C_36  and  O_38
REMARK   17  A    between atoms: C_39  and  O_41
REMARK   18  A    between atoms: C_42  and  O_44
REMARK                            x       y       z     vdW  Elec       q    Type
REMARK                         _______ _______ _______ _____ _____    ______ ____
ROOT
ATOM      1  C   UNL     1       8.618   2.470  23.546  0.00  0.00    +0.183 C 
ATOM      2  C   UNL     1       8.287   1.413  22.462  0.00  0.00    +0.178 C 
ATOM      3  O   UNL     1       7.737   0.202  23.021  0.00  0.00    -0.341 OA
ATOM      4  C   UNL     1       8.410  -0.378  24.149  0.00  0.00    +0.282 C 
ATOM      5  C   UNL     1       8.634   0.649  25.269  0.00  0.00    +0.201 C 
ATOM      6  C   UNL     1       9.436   1.834  24.685  0.00  0.00    +0.179 C 
ENDROOT
BRANCH   6   7
ATOM      7  O   UNL     1      10.755   1.475  24.261  0.00  0.00    -0.386 OA
ATOM      8  H   UNL     1      11.388   1.645  24.987  0.00  0.00    +0.210 HD
ENDBRANCH   6   7
BRANCH   5   9
ATOM      9  O   UNL     1       7.390   1.045  25.841  0.00  0.00    -0.384 OA
ATOM     10  H   UNL     1       7.566   1.865  26.351  0.00  0.00    +0.210 HD
ENDBRANCH   5   9
BRANCH   1  11
ATOM     11  O   UNL     1       7.343   2.980  24.031  0.00  0.00    -0.340 OA
BRANCH  11  16
ATOM     12  C   UNL     1       8.414   6.365  23.184  0.00  0.00    +0.178 C 
ATOM     13  C   UNL     1       7.128   6.906  22.520  0.00  0.00    +0.177 C 
ATOM     14  C   UNL     1       5.834   6.302  23.097  0.00  0.00    +0.179 C 
ATOM     15  C   UNL     1       5.959   4.776  23.184  0.00  0.00    +0.201 C 
ATOM     16  C   UNL     1       7.237   4.414  23.961  0.00  0.00    +0.282 C 
ATOM     17  O   UNL     1       8.402   4.936  23.338  0.00  0.00    -0.341 OA
BRANCH  15  18
ATOM     18  O   UNL     1       6.015   4.213  21.860  0.00  0.00    -0.384 OA
ATOM     19  H   UNL     1       6.225   4.968  21.273  0.00  0.00    +0.210 HD
ENDBRANCH  15  18
BRANCH  14  20
ATOM     20  O   UNL     1       5.476   6.877  24.356  0.00  0.00    -0.386 OA
ATOM     21  H   UNL     1       5.416   7.855  24.261  0.00  0.00    +0.210 HD
ENDBRANCH  14  20
BRANCH  13  22
ATOM     22  O   UNL     1       7.193   6.615  21.110  0.00  0.00    -0.386 OA
ATOM     23  H   UNL     1       7.091   7.465  20.629  0.00  0.00    +0.210 HD
ENDBRANCH  13  22
BRANCH  12  24
ATOM     24  C   UNL     1       8.797   7.075  24.500  0.00  0.00    +0.190 C 
BRANCH  24  25
ATOM     25  O   UNL     1      10.112   6.750  24.947  0.00  0.00    -0.392 OA
ATOM     26  H   UNL     1      10.607   7.593  24.986  0.00  0.00    +0.210 HD
ENDBRANCH  24  25
ENDBRANCH  12  24
ENDBRANCH  11  16
ENDBRANCH   1  11
BRANCH   2  27
ATOM     27  C   UNL     1       9.443   1.111  21.492  0.00  0.00    +0.190 C 
BRANCH  27  28
ATOM     28  O   UNL     1      10.382   2.188  21.485  0.00  0.00    -0.392 OA
ATOM     29  H   UNL     1      10.980   2.029  22.240  0.00  0.00    +0.210 HD
ENDBRANCH  27  28
ENDBRANCH   2  27
BRANCH   4  30
ATOM     30  O   UNL     1       9.637  -0.991  23.744  0.00  0.00    -0.349 OA
BRANCH  30  31
ATOM     31  C   UNL     1       9.623  -2.426  23.735  0.00  0.00    +0.163 C 
BRANCH  31  32
ATOM     32  C   UNL     1       8.881  -3.039  24.917  0.00  0.00    +0.028 C 
BRANCH  32  33
ATOM     33  C   UNL     1       9.482  -4.401  25.226  0.00  0.00    +0.002 C 
BRANCH  33  34
ATOM     34  C   UNL     1       8.513  -5.541  24.956  0.00  0.00    +0.000 C 
BRANCH  34  35
ATOM     35  C   UNL     1       7.098  -4.981  25.050  0.00  0.00    +0.003 C 
BRANCH  35  36
ATOM     36  C   UNL     1       6.105  -5.574  24.040  0.00  0.00    -0.011 C 
ATOM     37  C   UNL     1       6.767  -5.642  22.653  0.00  0.00    +0.003 C 
ATOM     38  C   UNL     1       6.980  -4.259  22.037  0.00  0.00    +0.000 C 
ATOM     39  C   UNL     1       5.693  -3.438  22.008  0.00  0.00    +0.000 C 
ATOM     40  C   UNL     1       4.984  -3.392  23.359  0.00  0.00    +0.000 C 
ATOM     41  C   UNL     1       4.788  -4.791  23.940  0.00  0.00    +0.003 C 
ENDBRANCH  35  36
ENDBRANCH  34  35
ENDBRANCH  33  34
ENDBRANCH  32  33
ENDBRANCH  31  32
ENDBRANCH  30  31
ENDBRANCH   4  30
TORSDOF 18
ENDMDL
MODEL 8
REMARK VINA RESULT:      -6.3      2.241      3.500
REMARK  Name = 
REMARK  18 active torsions:
REMARK  status: ('A' for Active; 'I' for Inactive)
REMARK    1  A    between atoms: O_1  and  C_2
REMARK    2  A    between atoms: C_2  and  C_3
REMARK    3  A    between atoms: C_6  and  O_8
REMARK    4  A    between atoms: O_8  and  C_9
REMARK    5  A    between atoms: C_11  and  O_13
REMARK    6  A    between atoms: C_14  and  O_16
REMARK    7  A    between atoms: C_17  and  O_19
REMARK    8  A    between atoms: O_19  and  C_20
REMARK    9  A    between atoms: C_20  and  C_21
REMARK   10  A    between atoms: C_21  and  C_22
REMARK   11  A    between atoms: C_22  and  C_23
REMARK   12  A    between atoms: C_23  and  C_24
REMARK   13  A    between atoms: C_24  and  C_25
REMARK   14  A    between atoms: C_32  and  C_34
REMARK   15  A    between atoms: C_34  and  O_35
REMARK   16  A    between atoms: C_36  and  O_38
REMARK   17  A    between atoms: C_39  and  O_41
REMARK   18  A    between atoms: C_42  and  O_44
REMARK                            x       y       z     vdW  Elec       q    Type
REMARK                         _______ _______ _______ _____ _____    ______ ____
ROOT
ATOM      1  C   UNL     1       8.031  -3.939  23.204  0.00  0.00    +0.183 C 
ATOM      2  C   UNL     1       7.757  -3.975  24.729  0.00  0.00    +0.178 C 
ATOM      3  O   UNL     1       7.112  -2.775  25.203  0.00  0.00    -0.341 OA
ATOM      4  C   UNL     1       7.658  -1.514  24.786  0.00  0.00    +0.282 C 
ATOM      5  C   UNL     1       7.820  -1.441  23.261  0.00  0.00    +0.201 C 
ATOM      6  C   UNL     1       8.718  -2.618  22.813  0.00  0.00    +0.179 C 
ENDROOT
BRANCH   6   7
ATOM      7  O   UNL     1      10.054  -2.539  23.319  0.00  0.00    -0.386 OA
ATOM      8  H   UNL     1      10.677  -2.885  22.649  0.00  0.00    +0.210 HD
ENDBRANCH   6   7
BRANCH   5   9
ATOM      9  O   UNL     1       6.547  -1.437  22.621  0.00  0.00    -0.384 OA
ATOM     10  H   UNL     1       6.408  -0.527  22.280  0.00  0.00    +0.210 HD
ENDBRANCH   5   9
BRANCH   1  11
ATOM     11  O   UNL     1       6.739  -4.078  22.548  0.00  0.00    -0.340 OA
BRANCH  11  16
ATOM     12  C   UNL     1       3.368  -4.341  23.923  0.00  0.00    +0.178 C 
ATOM     13  C   UNL     1       3.180  -5.875  23.907  0.00  0.00    +0.177 C 
ATOM     14  C   UNL     1       4.489  -6.661  24.115  0.00  0.00    +0.179 C 
ATOM     15  C   UNL     1       5.586  -6.105  23.199  0.00  0.00    +0.201 C 
ATOM     16  C   UNL     1       5.709  -4.586  23.416  0.00  0.00    +0.282 C 
ATOM     17  O   UNL     1       4.491  -3.911  23.136  0.00  0.00    -0.341 OA
BRANCH  15  18
ATOM     18  O   UNL     1       5.261  -6.378  21.824  0.00  0.00    -0.384 OA
ATOM     19  H   UNL     1       6.117  -6.584  21.397  0.00  0.00    +0.210 HD
ENDBRANCH  15  18
BRANCH  14  20
ATOM     20  O   UNL     1       4.901  -6.683  25.484  0.00  0.00    -0.386 OA
ATOM     21  H   UNL     1       4.941  -5.762  25.826  0.00  0.00    +0.210 HD
ENDBRANCH  14  20
BRANCH  13  22
ATOM     22  O   UNL     1       2.608  -6.245  22.637  0.00  0.00    -0.386 OA
ATOM     23  H   UNL     1       2.821  -7.192  22.483  0.00  0.00    +0.210 HD
ENDBRANCH  13  22
BRANCH  12  24
ATOM     24  C   UNL     1       3.392  -3.719  25.335  0.00  0.00    +0.190 C 
BRANCH  24  25
ATOM     25  O   UNL     1       4.072  -2.466  25.381  0.00  0.00    -0.392 OA
ATOM     26  H   UNL     1       3.626  -1.934  26.069  0.00  0.00    +0.210 HD
ENDBRANCH  24  25
ENDBRANCH  12  24
ENDBRANCH  11  16
ENDBRANCH   1  11
BRANCH   2  27
ATOM     27  C   UNL     1       8.983  -4.333  25.589  0.00  0.00    +0.190 C 
BRANCH  27  28
ATOM     28  O   UNL     1       9.861  -5.199  24.868  0.00  0.00    -0.392 OA
ATOM     29  H   UNL     1      10.734  -4.762  24.873  0.00  0.00    +0.210 HD
ENDBRANCH  27  28
ENDBRANCH   2  27
BRANCH   4  30
ATOM     30  O   UNL     1       8.891  -1.251  25.460  0.00  0.00    -0.349 OA
BRANCH  30  31
ATOM     31  C   UNL     1       9.286   0.130  25.482  0.00  0.00    +0.163 C 
BRANCH  31  32
ATOM     32  C   UNL     1      10.677   0.379  24.911  0.00  0.00    +0.028 C 
BRANCH  32  33
ATOM     33  C   UNL     1      10.543   1.055  23.557  0.00  0.00    +0.002 C 
BRANCH  33  34
ATOM     34  C   UNL     1      10.564   2.572  23.656  0.00  0.00    +0.000 C 
BRANCH  34  35
ATOM     35  C   UNL     1       9.243   3.093  23.102  0.00  0.00    +0.003 C 
BRANCH  35  36
ATOM     36  C   UNL     1       8.418   3.930  24.090  0.00  0.00    -0.011 C 
ATOM     37  C   UNL     1       7.079   4.316  23.438  0.00  0.00    +0.003 C 
ATOM     38  C   UNL     1       7.250   5.331  22.307  0.00  0.00    +0.000 C 
ATOM     39  C   UNL     1       8.037   6.561  22.752  0.00  0.00    +0.000 C 
ATOM     40  C   UNL     1       9.349   6.210  23.448  0.00  0.00    +0.000 C 
ATOM     41  C   UNL     1       9.137   5.198  24.572  0.00  0.00    +0.003 C 
ENDBRANCH  35  36
ENDBRANCH  34  35
ENDBRANCH  33  34
ENDBRANCH  32  33
ENDBRANCH  31  32
ENDBRANCH  30  31
ENDBRANCH   4  30
TORSDOF 18
ENDMDL
MODEL 9
REMARK VINA RESULT:      -6.3      2.059      3.262
REMARK  Name = 
REMARK  18 active torsions:
REMARK  status: ('A' for Active; 'I' for Inactive)
REMARK    1  A    between atoms: O_1  and  C_2
REMARK    2  A    between atoms: C_2  and  C_3
REMARK    3  A    between atoms: C_6  and  O_8
REMARK    4  A    between atoms: O_8  and  C_9
REMARK    5  A    between atoms: C_11  and  O_13
REMARK    6  A    between atoms: C_14  and  O_16
REMARK    7  A    between atoms: C_17  and  O_19
REMARK    8  A    between atoms: O_19  and  C_20
REMARK    9  A    between atoms: C_20  and  C_21
REMARK   10  A    between atoms: C_21  and  C_22
REMARK   11  A    between atoms: C_22  and  C_23
REMARK   12  A    between atoms: C_23  and  C_24
REMARK   13  A    between atoms: C_24  and  C_25
REMARK   14  A    between atoms: C_32  and  C_34
REMARK   15  A    between atoms: C_34  and  O_35
REMARK   16  A    between atoms: C_36  and  O_38
REMARK   17  A    between atoms: C_39  and  O_41
REMARK   18  A    between atoms: C_42  and  O_44
REMARK                            x       y       z     vdW  Elec       q    Type
REMARK                         _______ _______ _______ _____ _____    ______ ____
ROOT
ATOM      1  C   UNL     1       6.684  -4.954  24.988  0.00  0.00    +0.183 C 
ATOM      2  C   UNL     1       8.037  -5.093  25.730  0.00  0.00    +0.178 C 
ATOM      3  O   UNL     1       8.466  -3.855  26.335  0.00  0.00    -0.341 OA
ATOM      4  C   UNL     1       8.413  -2.665  25.532  0.00  0.00    +0.282 C 
ATOM      5  C   UNL     1       7.031  -2.472  24.891  0.00  0.00    +0.201 C 
ATOM      6  C   UNL     1       6.706  -3.730  24.053  0.00  0.00    +0.179 C 
ENDROOT
BRANCH   6   7
ATOM      7  O   UNL     1       7.591  -3.920  22.945  0.00  0.00    -0.386 OA
ATOM      8  H   UNL     1       8.478  -3.576  23.174  0.00  0.00    +0.210 HD
ENDBRANCH   6   7
BRANCH   5   9
ATOM      9  O   UNL     1       6.050  -2.198  25.888  0.00  0.00    -0.384 OA
ATOM     10  H   UNL     1       6.027  -1.223  25.997  0.00  0.00    +0.210 HD
ENDBRANCH   5   9
BRANCH   1  11
ATOM     11  O   UNL     1       5.661  -4.816  26.016  0.00  0.00    -0.340 OA
BRANCH  11  16
ATOM     12  C   UNL     1       3.297  -6.658  23.932  0.00  0.00    +0.178 C 
ATOM     13  C   UNL     1       2.480  -7.390  25.020  0.00  0.00    +0.177 C 
ATOM     14  C   UNL     1       2.362  -6.603  26.339  0.00  0.00    +0.179 C 
ATOM     15  C   UNL     1       3.740  -6.083  26.766  0.00  0.00    +0.201 C 
ATOM     16  C   UNL     1       4.368  -5.294  25.603  0.00  0.00    +0.282 C 
ATOM     17  O   UNL     1       4.519  -6.095  24.440  0.00  0.00    -0.341 OA
BRANCH  15  18
ATOM     18  O   UNL     1       4.591  -7.187  27.124  0.00  0.00    -0.384 OA
ATOM     19  H   UNL     1       4.043  -7.751  27.707  0.00  0.00    +0.210 HD
ENDBRANCH  15  18
BRANCH  14  20
ATOM     20  O   UNL     1       1.397  -5.550  26.264  0.00  0.00    -0.386 OA
ATOM     21  H   UNL     1       1.106  -5.444  25.330  0.00  0.00    +0.210 HD
ENDBRANCH  14  20
BRANCH  13  22
ATOM     22  O   UNL     1       3.115  -8.656  25.285  0.00  0.00    -0.386 OA
ATOM     23  H   UNL     1       3.573  -8.933  24.461  0.00  0.00    +0.210 HD
ENDBRANCH  13  22
BRANCH  12  24
ATOM     24  C   UNL     1       2.490  -5.624  23.119  0.00  0.00    +0.190 C 
BRANCH  24  25
ATOM     25  O   UNL     1       1.081  -5.823  23.205  0.00  0.00    -0.392 OA
ATOM     26  H   UNL     1       0.880  -5.978  24.149  0.00  0.00    +0.210 HD
ENDBRANCH  24  25
ENDBRANCH  12  24
ENDBRANCH  11  16
ENDBRANCH   1  11
BRANCH   2  27
ATOM     27  C   UNL     1       9.162  -5.727  24.891  0.00  0.00    +0.190 C 
BRANCH  27  28
ATOM     28  O   UNL     1      10.436  -5.456  25.480  0.00  0.00    -0.392 OA
ATOM     29  H   UNL     1      11.026  -5.211  24.742  0.00  0.00    +0.210 HD
ENDBRANCH  27  28
ENDBRANCH   2  27
BRANCH   4  30
ATOM     30  O   UNL     1       9.452  -2.674  24.550  0.00  0.00    -0.349 OA
BRANCH  30  31
ATOM     31  C   UNL     1       9.706  -1.405  23.927  0.00  0.00    +0.163 C 
BRANCH  31  32
ATOM     32  C   UNL     1      10.275  -1.517  22.518  0.00  0.00    +0.028 C 
BRANCH  32  33
ATOM     33  C   UNL     1       9.566  -0.518  21.617  0.00  0.00    +0.002 C 
BRANCH  33  34
ATOM     34  C   UNL     1       9.905   0.922  21.963  0.00  0.00    +0.000 C 
BRANCH  34  35
ATOM     35  C   UNL     1       8.682   1.776  21.645  0.00  0.00    +0.003 C 
BRANCH  35  36
ATOM     36  C   UNL     1       8.377   2.871  22.677  0.00  0.00    -0.011 C 
ATOM     37  C   UNL     1       8.273   2.239  24.076  0.00  0.00    +0.003 C 
ATOM     38  C   UNL     1       7.025   1.369  24.234  0.00  0.00    +0.000 C 
ATOM     39  C   UNL     1       5.750   2.119  23.857  0.00  0.00    +0.000 C 
ATOM     40  C   UNL     1       5.839   2.801  22.494  0.00  0.00    +0.000 C 
ATOM     41  C   UNL     1       7.096   3.662  22.376  0.00  0.00    +0.003 C 
ENDBRANCH  35  36
ENDBRANCH  34  35
ENDBRANCH  33  34
ENDBRANCH  32  33
ENDBRANCH  31  32
ENDBRANCH  30  31
ENDBRANCH   4  30
TORSDOF 18
ENDMDL
