MODEL 1
REMARK VINA RESULT:      -5.3      0.000      0.000
REMARK  Name = 
REMARK  37 active torsions:
REMARK  status: ('A' for Active; 'I' for Inactive)
REMARK    1  A    between atoms: C_1  and  C_2
REMARK    2  A    between atoms: C_2  and  C_3
REMARK    3  A    between atoms: C_2  and  C_4
REMARK    4  A    between atoms: C_4  and  C_5
REMARK    5  A    between atoms: C_5  and  N_7
REMARK    6  A    between atoms: C_5  and  C_78
REMARK    7  A    between atoms: C_8  and  C_10
REMARK    8  A    between atoms: C_10  and  C_12
REMARK    9  A    between atoms: C_10  and  N_22
REMARK   10  A    between atoms: C_12  and  C_13
REMARK   11  A    between atoms: C_23  and  C_25
REMARK   12  A    between atoms: C_25  and  C_27
REMARK   13  A    between atoms: C_25  and  N_35
REMARK   14  A    between atoms: C_27  and  C_28
REMARK   15  A    between atoms: C_31  and  O_32
REMARK   16  A    between atoms: C_36  and  CA_38
REMARK   17  A    between atoms: CA_38  and  C_40
REMARK   18  A    between atoms: CA_38  and  N_42
REMARK   19  A    between atoms: C_40  and  O_41
REMARK   20  A    between atoms: C_43  and  CA_45
REMARK   21  A    between atoms: CA_45  and  CB_47
REMARK   22  A    between atoms: CA_45  and  N_57
REMARK   23  A    between atoms: CB_47  and  CG_48
REMARK   24  A    between atoms: C_58  and  CA_60
REMARK   25  A    between atoms: CA_60  and  CB_62
REMARK   26  A    between atoms: CA_60  and  N_68
REMARK   27  A    between atoms: CB_62  and  CG_63
REMARK   28  A    between atoms: C_69  and  CA_71
REMARK   29  A    between atoms: N_80  and  C_81
REMARK   30  A    between atoms: C_81  and  C_83
REMARK   31  A    between atoms: C_81  and  C_90
REMARK   32  A    between atoms: C_83  and  C_84
REMARK   33  A    between atoms: C_84  and  C_85
REMARK   34  A    between atoms: C_85  and  N_86
REMARK   35  A    between atoms: C_96  and  C_98
REMARK   36  A    between atoms: N_100  and  C_101
REMARK   37  A    between atoms: C_101  and  C_102
REMARK                            x       y       z     vdW  Elec       q    Type
REMARK                         _______ _______ _______ _____ _____    ______ ____
ROOT
ATOM      1  N   UNL     1       1.653  -0.815  27.892  0.00  0.00    -0.302 N 
ATOM      2  H   UNL     1       1.157  -0.071  28.397  0.00  0.00    +0.150 HD
ATOM      3  C   UNL     1       2.983  -0.884  28.259  0.00  0.00    +0.234 C 
ATOM      4  O   UNL     1       3.576  -1.968  28.246  0.00  0.00    -0.274 OA
ENDROOT
BRANCH   3   5
ATOM      5  C   UNL     1       3.783   0.459  28.547  0.00  0.00    +0.163 C 
BRANCH   5   6
ATOM      6  N   UNL     1       3.347   1.853  28.222  0.00  0.00    -0.302 N 
ATOM      7  H   UNL     1       2.448   2.131  28.612  0.00  0.00    +0.150 HD
ATOM      8  C   UNL     1       3.919   2.746  27.348  0.00  0.00    +0.236 C 
ATOM      9  O   UNL     1       4.851   2.412  26.616  0.00  0.00    -0.274 OA
BRANCH   8  10
ATOM     10  CA  UNL     1       3.351   4.223  27.312  0.00  0.00    +0.184 C 
BRANCH  10  11
ATOM     11  N   UNL     1       3.151   4.748  25.945  0.00  0.00    -0.301 N 
ATOM     12  H   UNL     1       3.726   5.532  25.661  0.00  0.00    +0.150 HD
ATOM     13  C   UNL     1       2.199   4.202  25.087  0.00  0.00    +0.234 C 
ATOM     14  O   UNL     1       1.438   3.310  25.465  0.00  0.00    -0.274 OA
BRANCH  13  15
ATOM     15  CA  UNL     1       2.280   4.642  23.592  0.00  0.00    +0.163 C 
BRANCH  15  16
ATOM     16  N   UNL     1       3.596   4.282  22.989  0.00  0.00    -0.302 N 
ATOM     17  H   UNL     1       4.179   5.071  22.750  0.00  0.00    +0.150 HD
ATOM     18  C   UNL     1       4.272   3.104  23.254  0.00  0.00    +0.234 C 
ATOM     19  O   UNL     1       3.784   2.243  23.991  0.00  0.00    -0.274 OA
BRANCH  18  20
ATOM     20  CA  UNL     1       5.763   2.997  22.789  0.00  0.00    +0.165 C 
BRANCH  20  21
ATOM     21  N   UNL     1       6.598   3.873  23.623  0.00  0.00    -0.302 N 
ATOM     22  H   UNL     1       6.849   3.548  24.552  0.00  0.00    +0.150 HD
ATOM     23  C   UNL     1       6.899   5.145  23.215  0.00  0.00    +0.234 C 
ATOM     24  O   UNL     1       6.762   5.492  22.041  0.00  0.00    -0.274 OA
BRANCH  23  25
ATOM     25  CA  UNL     1       7.209   6.184  24.304  0.00  0.00    +0.159 C 
ATOM     26  N   UNL     1       6.982   5.873  25.694  0.00  0.00    -0.304 N 
ATOM     27  H   UNL     1       6.094   6.008  26.163  0.00  0.00    +0.149 HD
ATOM     28  C   UNL     1       8.143   5.957  26.436  0.00  0.00    +0.214 C 
ATOM     29  O   UNL     1       8.205   6.002  27.650  0.00  0.00    -0.276 OA
ATOM     30  C   UNL     1       9.299   5.969  25.478  0.00  0.00    +0.098 C 
ATOM     31  C   UNL     1       8.674   6.614  24.248  0.00  0.00    +0.041 C 
ENDBRANCH  23  25
ENDBRANCH  20  21
BRANCH  20  32
ATOM     32  CB  UNL     1       6.415   1.657  22.409  0.00  0.00    +0.088 C 
BRANCH  32  33
ATOM     33  CG  UNL     1       7.878   1.561  22.115  0.00  0.00    +0.061 A 
ATOM     34  ND1 UNL     1       8.695   2.654  21.992  0.00  0.00    -0.241 NA
ATOM     35  CE1 UNL     1       9.914   2.173  21.871  0.00  0.00    +0.196 A 
ATOM     36  NE2 UNL     1       9.923   0.811  21.861  0.00  0.00    -0.351 N 
ATOM     37  HE2 UNL     1      10.744   0.218  21.789  0.00  0.00    +0.166 HD
ATOM     38  CD2 UNL     1       8.628   0.400  22.006  0.00  0.00    +0.107 A 
ENDBRANCH  32  33
ENDBRANCH  20  32
ENDBRANCH  18  20
ENDBRANCH  15  16
BRANCH  15  39
ATOM     39  CB  UNL     1       1.017   4.256  22.804  0.00  0.00    +0.069 C 
BRANCH  39  40
ATOM     40  CG  UNL     1       1.293   3.834  21.390  0.00  0.00    -0.020 A 
ATOM     41  CD2 UNL     1       1.342   4.701  20.253  0.00  0.00    +0.003 A 
ATOM     42  CE3 UNL     1       1.142   6.079  20.075  0.00  0.00    +0.010 A 
ATOM     43  CZ3 UNL     1       1.319   6.657  18.820  0.00  0.00    +0.001 A 
ATOM     44  CH2 UNL     1       1.710   5.874  17.741  0.00  0.00    +0.002 A 
ATOM     45  CZ2 UNL     1       1.903   4.493  17.881  0.00  0.00    +0.026 A 
ATOM     46  CE2 UNL     1       1.706   3.932  19.150  0.00  0.00    +0.047 A 
ATOM     47  NE1 UNL     1       1.833   2.635  19.586  0.00  0.00    -0.360 N 
ATOM     48  HE1 UNL     1       2.094   1.858  18.996  0.00  0.00    +0.165 HD
ATOM     49  CD1 UNL     1       1.608   2.567  20.938  0.00  0.00    +0.087 A 
ENDBRANCH  39  40
ENDBRANCH  15  39
ENDBRANCH  13  15
ENDBRANCH  10  11
BRANCH  10  50
ATOM     50  C   UNL     1       2.082   4.430  28.162  0.00  0.00    +0.187 C 
BRANCH  50  51
ATOM     51  O   UNL     1       2.014   5.779  28.641  0.00  0.00    -0.393 OA
ATOM     52  H   UNL     1       2.221   5.730  29.593  0.00  0.00    +0.209 HD
ENDBRANCH  50  51
ENDBRANCH  10  50
ENDBRANCH   8  10
ENDBRANCH   5   6
BRANCH   5  53
ATOM     53  C   UNL     1       4.705   0.334  29.819  0.00  0.00    +0.067 C 
BRANCH  53  54
ATOM     54  C   UNL     1       5.609   1.501  30.133  0.00  0.00    -0.045 A 
ATOM     55  C   UNL     1       7.006   1.342  30.195  0.00  0.00    +0.007 A 
ATOM     56  C   UNL     1       7.839   2.457  30.308  0.00  0.00    +0.045 A 
ATOM     57  C   UNL     1       7.275   3.722  30.378  0.00  0.00    +0.117 A 
ATOM     58  C   UNL     1       5.898   3.882  30.485  0.00  0.00    +0.045 A 
ATOM     59  C   UNL     1       5.067   2.766  30.385  0.00  0.00    +0.007 A 
BRANCH  57  60
ATOM     60  O   UNL     1       8.101   4.804  30.300  0.00  0.00    -0.507 OA
ATOM     61  H   UNL     1       8.918   4.577  30.778  0.00  0.00    +0.292 HD
ENDBRANCH  57  60
ENDBRANCH  53  54
ENDBRANCH   5  53
ENDBRANCH   3   5
BRANCH   1  62
ATOM     62  C   UNL     1       0.845  -2.058  27.690  0.00  0.00    +0.163 C 
BRANCH  62  65
ATOM     63  N   UNL     1       2.086  -4.019  26.739  0.00  0.00    -0.302 N 
ATOM     64  H   UNL     1       2.365  -4.276  27.682  0.00  0.00    +0.150 HD
ATOM     65  C   UNL     1       1.405  -2.850  26.493  0.00  0.00    +0.234 C 
ATOM     66  O   UNL     1       1.219  -2.450  25.345  0.00  0.00    -0.274 OA
BRANCH  63  67
ATOM     67  C   UNL     1       2.618  -4.836  25.668  0.00  0.00    +0.159 C 
BRANCH  67  68
ATOM     68  C   UNL     1       3.468  -3.965  24.656  0.00  0.00    +0.234 C 
ATOM     69  N   UNL     1       4.388  -3.142  25.269  0.00  0.00    -0.302 N 
ATOM     70  H   UNL     1       4.035  -2.825  26.155  0.00  0.00    +0.150 HD
ATOM     71  O   UNL     1       3.269  -3.940  23.445  0.00  0.00    -0.274 OA
BRANCH  69  72
ATOM     72  C   UNL     1       5.397  -2.244  24.670  0.00  0.00    +0.159 C 
BRANCH  72  73
ATOM     73  C   UNL     1       6.330  -2.892  23.556  0.00  0.00    +0.237 C 
ATOM     74  N   UNL     1       6.745  -4.218  23.667  0.00  0.00    -0.288 N 
ATOM     75  C   UNL     1       6.010  -5.300  24.323  0.00  0.00    +0.162 C 
ATOM     76  C   UNL     1       6.166  -6.519  23.432  0.00  0.00    +0.033 C 
ATOM     77  C   UNL     1       7.051  -6.073  22.275  0.00  0.00    +0.021 C 
ATOM     78  C   UNL     1       7.719  -4.799  22.750  0.00  0.00    +0.109 C 
ATOM     79  O   UNL     1       6.794  -2.161  22.664  0.00  0.00    -0.274 OA
BRANCH  75  80
ATOM     80  C   UNL     1       6.571  -5.628  25.725  0.00  0.00    +0.234 C 
ATOM     81  N   UNL     1       5.738  -6.309  26.571  0.00  0.00    -0.305 N 
ATOM     82  H   UNL     1       4.970  -6.810  26.155  0.00  0.00    +0.149 HD
ATOM     83  O   UNL     1       7.677  -5.255  26.095  0.00  0.00    -0.274 OA
BRANCH  81  84
ATOM     84  C   UNL     1       6.183  -6.630  27.912  0.00  0.00    +0.199 C 
BRANCH  84  85
ATOM     85  C   UNL     1       6.026  -5.507  28.918  0.00  0.00    +0.228 C 
ATOM     86  O   UNL     1       6.291  -5.675  30.107  0.00  0.00    -0.274 OA
ATOM     87  N   UNL     1       5.641  -4.278  28.457  0.00  0.00    -0.328 N 
ATOM     88  H   UNL     1       5.352  -3.658  29.218  0.00  0.00    +0.145 HD
ATOM     89  H   UNL     1       5.114  -4.144  27.612  0.00  0.00    +0.145 HD
ENDBRANCH  84  85
ENDBRANCH  81  84
ENDBRANCH  75  80
ENDBRANCH  72  73
BRANCH  72  90
ATOM     90  C   UNL     1       6.337  -1.671  25.762  0.00  0.00    +0.035 C 
BRANCH  90  91
ATOM     91  C   UNL     1       7.811  -1.889  25.390  0.00  0.00    +0.039 C 
BRANCH  91  92
ATOM     92  C   UNL     1       8.758  -0.839  25.950  0.00  0.00    +0.196 C 
BRANCH  92  93
ATOM     93  N   UNL     1       7.998   0.350  26.300  0.00  0.00    -0.276 N 
ATOM     94  H   UNL     1       7.328   0.225  27.052  0.00  0.00    +0.258 HD
ATOM     95  C   UNL     1       8.240   1.622  25.929  0.00  0.00    +0.376 C 
ATOM     96  N   UNL     1       7.638   2.663  26.380  0.00  0.00    -0.130 NA
ATOM     97  H   UNL     1       6.938   2.398  27.091  0.00  0.00    +0.306 HD
ATOM     98  N   UNL     1       9.231   1.842  25.054  0.00  0.00    -0.289 N 
ATOM     99  H   UNL     1       9.217   2.832  24.817  0.00  0.00    +0.255 HD
ATOM    100  H   UNL     1       9.127   1.299  24.211  0.00  0.00    +0.255 HD
ENDBRANCH  92  93
ENDBRANCH  91  92
ENDBRANCH  90  91
ENDBRANCH  72  90
ENDBRANCH  69  72
ENDBRANCH  67  68
BRANCH  67 101
ATOM    101  C   UNL     1       1.552  -5.821  25.122  0.00  0.00    +0.034 C 
BRANCH 101 103
ATOM    102  C   UNL     1       2.305  -7.248  23.223  0.00  0.00    +0.007 C 
ATOM    103  C   UNL     1       1.854  -7.274  24.698  0.00  0.00    -0.015 C 
ATOM    104  C   UNL     1       2.934  -8.001  25.485  0.00  0.00    +0.007 C 
ENDBRANCH 101 103
ENDBRANCH  67 101
ENDBRANCH  63  67
ENDBRANCH  62  65
BRANCH  62 105
ATOM    105  C   UNL     1       0.443  -2.912  28.941  0.00  0.00    +0.069 C 
BRANCH 105 106
ATOM    106  C   UNL     1       1.392  -4.005  29.398  0.00  0.00    -0.020 A 
ATOM    107  C   UNL     1       1.355  -5.457  29.246  0.00  0.00    +0.003 A 
ATOM    108  C   UNL     1       2.568  -5.946  29.749  0.00  0.00    +0.047 A 
ATOM    109  C   UNL     1       2.974  -7.286  29.664  0.00  0.00    +0.026 A 
ATOM    110  C   UNL     1       2.076  -8.209  29.140  0.00  0.00    +0.002 A 
ATOM    111  C   UNL     1       0.823  -7.794  28.705  0.00  0.00    +0.001 A 
ATOM    112  N   UNL     1       3.220  -4.886  30.325  0.00  0.00    -0.360 N 
ATOM    113  H   UNL     1       4.097  -4.964  30.819  0.00  0.00    +0.165 HD
ATOM    114  C   UNL     1       0.459  -6.427  28.725  0.00  0.00    +0.010 A 
ATOM    115  C   UNL     1       2.488  -3.746  30.195  0.00  0.00    +0.087 A 
ENDBRANCH 105 106
ENDBRANCH  62 105
ENDBRANCH   1  62
TORSDOF 35
ENDMDL
MODEL 2
REMARK VINA RESULT:      -4.1      1.473      2.303
REMARK  Name = 
REMARK  37 active torsions:
REMARK  status: ('A' for Active; 'I' for Inactive)
REMARK    1  A    between atoms: C_1  and  C_2
REMARK    2  A    between atoms: C_2  and  C_3
REMARK    3  A    between atoms: C_2  and  C_4
REMARK    4  A    between atoms: C_4  and  C_5
REMARK    5  A    between atoms: C_5  and  N_7
REMARK    6  A    between atoms: C_5  and  C_78
REMARK    7  A    between atoms: C_8  and  C_10
REMARK    8  A    between atoms: C_10  and  C_12
REMARK    9  A    between atoms: C_10  and  N_22
REMARK   10  A    between atoms: C_12  and  C_13
REMARK   11  A    between atoms: C_23  and  C_25
REMARK   12  A    between atoms: C_25  and  C_27
REMARK   13  A    between atoms: C_25  and  N_35
REMARK   14  A    between atoms: C_27  and  C_28
REMARK   15  A    between atoms: C_31  and  O_32
REMARK   16  A    between atoms: C_36  and  CA_38
REMARK   17  A    between atoms: CA_38  and  C_40
REMARK   18  A    between atoms: CA_38  and  N_42
REMARK   19  A    between atoms: C_40  and  O_41
REMARK   20  A    between atoms: C_43  and  CA_45
REMARK   21  A    between atoms: CA_45  and  CB_47
REMARK   22  A    between atoms: CA_45  and  N_57
REMARK   23  A    between atoms: CB_47  and  CG_48
REMARK   24  A    between atoms: C_58  and  CA_60
REMARK   25  A    between atoms: CA_60  and  CB_62
REMARK   26  A    between atoms: CA_60  and  N_68
REMARK   27  A    between atoms: CB_62  and  CG_63
REMARK   28  A    between atoms: C_69  and  CA_71
REMARK   29  A    between atoms: N_80  and  C_81
REMARK   30  A    between atoms: C_81  and  C_83
REMARK   31  A    between atoms: C_81  and  C_90
REMARK   32  A    between atoms: C_83  and  C_84
REMARK   33  A    between atoms: C_84  and  C_85
REMARK   34  A    between atoms: C_85  and  N_86
REMARK   35  A    between atoms: C_96  and  C_98
REMARK   36  A    between atoms: N_100  and  C_101
REMARK   37  A    between atoms: C_101  and  C_102
REMARK                            x       y       z     vdW  Elec       q    Type
REMARK                         _______ _______ _______ _____ _____    ______ ____
ROOT
ATOM      1  N   UNL     1       1.684  -0.713  27.471  0.00  0.00    -0.302 N 
ATOM      2  H   UNL     1       1.254   0.127  27.874  0.00  0.00    +0.150 HD
ATOM      3  C   UNL     1       3.026  -0.805  27.790  0.00  0.00    +0.234 C 
ATOM      4  O   UNL     1       3.559  -1.911  27.922  0.00  0.00    -0.274 OA
ENDROOT
BRANCH   3   5
ATOM      5  C   UNL     1       3.908   0.517  27.833  0.00  0.00    +0.163 C 
BRANCH   5   6
ATOM      6  N   UNL     1       3.417   1.928  27.791  0.00  0.00    -0.302 N 
ATOM      7  H   UNL     1       2.488   2.079  28.183  0.00  0.00    +0.150 HD
ATOM      8  C   UNL     1       3.980   3.012  27.161  0.00  0.00    +0.236 C 
ATOM      9  O   UNL     1       4.958   2.883  26.425  0.00  0.00    -0.274 OA
BRANCH   8  10
ATOM     10  CA  UNL     1       3.339   4.438  27.412  0.00  0.00    +0.184 C 
BRANCH  10  11
ATOM     11  N   UNL     1       2.829   5.082  26.183  0.00  0.00    -0.301 N 
ATOM     12  H   UNL     1       2.987   6.078  26.083  0.00  0.00    +0.150 HD
ATOM     13  C   UNL     1       2.141   4.358  25.213  0.00  0.00    +0.234 C 
ATOM     14  O   UNL     1       1.869   3.168  25.378  0.00  0.00    -0.274 OA
BRANCH  13  15
ATOM     15  CA  UNL     1       1.910   5.076  23.847  0.00  0.00    +0.163 C 
BRANCH  15  16
ATOM     16  N   UNL     1       3.177   5.184  23.067  0.00  0.00    -0.302 N 
ATOM     17  H   UNL     1       3.517   6.126  22.945  0.00  0.00    +0.150 HD
ATOM     18  C   UNL     1       4.143   4.194  23.020  0.00  0.00    +0.234 C 
ATOM     19  O   UNL     1       3.980   3.119  23.604  0.00  0.00    -0.274 OA
BRANCH  18  20
ATOM     20  CA  UNL     1       5.538   4.563  22.412  0.00  0.00    +0.165 C 
BRANCH  20  21
ATOM     21  N   UNL     1       5.983   5.852  22.959  0.00  0.00    -0.302 N 
ATOM     22  H   UNL     1       6.306   6.560  22.307  0.00  0.00    +0.150 HD
ATOM     23  C   UNL     1       6.096   6.034  24.312  0.00  0.00    +0.234 C 
ATOM     24  O   UNL     1       5.551   5.271  25.111  0.00  0.00    -0.274 OA
BRANCH  23  25
ATOM     25  CA  UNL     1       7.097   7.092  24.803  0.00  0.00    +0.159 C 
ATOM     26  N   UNL     1       7.605   7.043  26.152  0.00  0.00    -0.304 N 
ATOM     27  H   UNL     1       7.140   7.471  26.944  0.00  0.00    +0.149 HD
ATOM     28  C   UNL     1       8.980   6.916  26.179  0.00  0.00    +0.214 C 
ATOM     29  O   UNL     1       9.689   7.107  27.149  0.00  0.00    -0.276 OA
ATOM     30  C   UNL     1       9.428   6.493  24.811  0.00  0.00    +0.098 C 
ATOM     31  C   UNL     1       8.349   7.107  23.928  0.00  0.00    +0.041 C 
ENDBRANCH  23  25
ENDBRANCH  20  21
BRANCH  20  32
ATOM     32  CB  UNL     1       6.655   3.523  22.221  0.00  0.00    +0.088 C 
BRANCH  32  33
ATOM     33  CG  UNL     1       7.701   3.308  23.267  0.00  0.00    +0.061 A 
ATOM     34  ND1 UNL     1       9.030   3.579  23.073  0.00  0.00    -0.241 NA
ATOM     35  CE1 UNL     1       9.605   3.395  24.241  0.00  0.00    +0.196 A 
ATOM     36  NE2 UNL     1       8.716   2.968  25.182  0.00  0.00    -0.351 N 
ATOM     37  HE2 UNL     1       8.923   2.770  26.156  0.00  0.00    +0.166 HD
ATOM     38  CD2 UNL     1       7.494   2.896  24.576  0.00  0.00    +0.107 A 
ENDBRANCH  32  33
ENDBRANCH  20  32
ENDBRANCH  18  20
ENDBRANCH  15  16
BRANCH  15  39
ATOM     39  CB  UNL     1       0.674   4.536  23.108  0.00  0.00    +0.069 C 
BRANCH  39  40
ATOM     40  CG  UNL     1       0.997   3.854  21.809  0.00  0.00    -0.020 A 
ATOM     41  CD2 UNL     1       1.155   4.501  20.543  0.00  0.00    +0.003 A 
ATOM     42  CE3 UNL     1       1.046   5.833  20.114  0.00  0.00    +0.010 A 
ATOM     43  CZ3 UNL     1       1.320   6.167  18.790  0.00  0.00    +0.001 A 
ATOM     44  CH2 UNL     1       1.719   5.185  17.891  0.00  0.00    +0.002 A 
ATOM     45  CZ2 UNL     1       1.823   3.845  18.283  0.00  0.00    +0.026 A 
ATOM     46  CE2 UNL     1       1.529   3.530  19.617  0.00  0.00    +0.047 A 
ATOM     47  NE1 UNL     1       1.557   2.327  20.281  0.00  0.00    -0.360 N 
ATOM     48  HE1 UNL     1       1.801   1.446  19.853  0.00  0.00    +0.165 HD
ATOM     49  CD1 UNL     1       1.260   2.514  21.607  0.00  0.00    +0.087 A 
ENDBRANCH  39  40
ENDBRANCH  15  39
ENDBRANCH  13  15
ENDBRANCH  10  11
BRANCH  10  50
ATOM     50  C   UNL     1       2.267   4.460  28.519  0.00  0.00    +0.187 C 
BRANCH  50  51
ATOM     51  O   UNL     1       2.643   5.368  29.561  0.00  0.00    -0.393 OA
ATOM     52  H   UNL     1       2.591   6.259  29.165  0.00  0.00    +0.209 HD
ENDBRANCH  50  51
ENDBRANCH  10  50
ENDBRANCH   8  10
ENDBRANCH   5   6
BRANCH   5  53
ATOM     53  C   UNL     1       5.245   0.305  28.639  0.00  0.00    +0.067 C 
BRANCH  53  54
ATOM     54  C   UNL     1       6.393  -0.354  27.912  0.00  0.00    -0.045 A 
ATOM     55  C   UNL     1       6.449  -1.752  27.759  0.00  0.00    +0.007 A 
ATOM     56  C   UNL     1       7.414  -2.334  26.934  0.00  0.00    +0.045 A 
ATOM     57  C   UNL     1       8.330  -1.521  26.283  0.00  0.00    +0.117 A 
ATOM     58  C   UNL     1       8.391  -0.159  26.555  0.00  0.00    +0.045 A 
ATOM     59  C   UNL     1       7.434   0.419  27.389  0.00  0.00    +0.007 A 
BRANCH  57  60
ATOM     60  O   UNL     1       9.141  -2.085  25.344  0.00  0.00    -0.507 OA
ATOM     61  H   UNL     1       8.790  -1.835  24.472  0.00  0.00    +0.292 HD
ENDBRANCH  57  60
ENDBRANCH  53  54
ENDBRANCH   5  53
ENDBRANCH   3   5
BRANCH   1  62
ATOM     62  C   UNL     1       0.803  -1.922  27.498  0.00  0.00    +0.163 C 
BRANCH  62  65
ATOM     63  N   UNL     1       2.055  -3.957  26.733  0.00  0.00    -0.302 N 
ATOM     64  H   UNL     1       2.502  -4.001  27.645  0.00  0.00    +0.150 HD
ATOM     65  C   UNL     1       1.238  -2.905  26.393  0.00  0.00    +0.234 C 
ATOM     66  O   UNL     1       0.837  -2.755  25.240  0.00  0.00    -0.274 OA
BRANCH  63  67
ATOM     67  C   UNL     1       2.485  -4.940  25.759  0.00  0.00    +0.159 C 
BRANCH  67  68
ATOM     68  C   UNL     1       2.858  -4.252  24.384  0.00  0.00    +0.234 C 
ATOM     69  N   UNL     1       4.025  -3.519  24.429  0.00  0.00    -0.302 N 
ATOM     70  H   UNL     1       4.140  -3.104  25.336  0.00  0.00    +0.150 HD
ATOM     71  O   UNL     1       2.136  -4.277  23.392  0.00  0.00    -0.274 OA
BRANCH  69  72
ATOM     72  C   UNL     1       4.728  -2.799  23.346  0.00  0.00    +0.159 C 
BRANCH  72  73
ATOM     73  C   UNL     1       5.526  -3.708  22.312  0.00  0.00    +0.237 C 
ATOM     74  N   UNL     1       6.205  -4.843  22.748  0.00  0.00    -0.288 N 
ATOM     75  C   UNL     1       5.842  -5.680  23.892  0.00  0.00    +0.162 C 
ATOM     76  C   UNL     1       6.050  -7.117  23.451  0.00  0.00    +0.033 C 
ATOM     77  C   UNL     1       6.580  -7.038  22.025  0.00  0.00    +0.021 C 
ATOM     78  C   UNL     1       7.069  -5.613  21.859  0.00  0.00    +0.109 C 
ATOM     79  O   UNL     1       5.650  -3.312  21.140  0.00  0.00    -0.274 OA
BRANCH  75  80
ATOM     80  C   UNL     1       6.726  -5.402  25.129  0.00  0.00    +0.234 C 
ATOM     81  N   UNL     1       6.291  -5.921  26.319  0.00  0.00    -0.305 N 
ATOM     82  H   UNL     1       5.628  -6.678  26.276  0.00  0.00    +0.149 HD
ATOM     83  O   UNL     1       7.734  -4.709  25.075  0.00  0.00    -0.274 OA
BRANCH  81  84
ATOM     84  C   UNL     1       7.053  -5.680  27.528  0.00  0.00    +0.199 C 
BRANCH  84  85
ATOM     85  C   UNL     1       6.374  -6.133  28.805  0.00  0.00    +0.228 C 
ATOM     86  O   UNL     1       6.037  -5.324  29.668  0.00  0.00    -0.274 OA
ATOM     87  N   UNL     1       6.089  -7.462  28.948  0.00  0.00    -0.328 N 
ATOM     88  H   UNL     1       5.841  -7.699  29.911  0.00  0.00    +0.145 HD
ATOM     89  H   UNL     1       6.595  -8.191  28.475  0.00  0.00    +0.145 HD
ENDBRANCH  84  85
ENDBRANCH  81  84
ENDBRANCH  75  80
ENDBRANCH  72  73
BRANCH  72  90
ATOM     90  C   UNL     1       5.748  -1.790  23.934  0.00  0.00    +0.035 C 
BRANCH  90  91
ATOM     91  C   UNL     1       6.273  -0.840  22.846  0.00  0.00    +0.039 C 
BRANCH  91  92
ATOM     92  C   UNL     1       7.647  -0.257  23.136  0.00  0.00    +0.196 C 
BRANCH  92  93
ATOM     93  N   UNL     1       8.663  -1.132  22.573  0.00  0.00    -0.276 N 
ATOM     94  H   UNL     1       8.305  -1.955  22.097  0.00  0.00    +0.258 HD
ATOM     95  C   UNL     1       9.972  -0.868  22.393  0.00  0.00    +0.376 C 
ATOM     96  N   UNL     1      10.806  -1.606  21.754  0.00  0.00    -0.130 NA
ATOM     97  H   UNL     1      10.333  -2.442  21.373  0.00  0.00    +0.306 HD
ATOM     98  N   UNL     1      10.448   0.291  22.868  0.00  0.00    -0.289 N 
ATOM     99  H   UNL     1      11.457   0.288  22.730  0.00  0.00    +0.255 HD
ATOM    100  H   UNL     1      10.250   0.414  23.850  0.00  0.00    +0.255 HD
ENDBRANCH  92  93
ENDBRANCH  91  92
ENDBRANCH  90  91
ENDBRANCH  72  90
ENDBRANCH  69  72
ENDBRANCH  67  68
BRANCH  67 101
ATOM    101  C   UNL     1       1.563  -6.187  25.766  0.00  0.00    +0.034 C 
BRANCH 101 103
ATOM    102  C   UNL     1       1.035  -8.548  26.359  0.00  0.00    +0.007 C 
ATOM    103  C   UNL     1       2.073  -7.640  25.668  0.00  0.00    -0.015 C 
ATOM    104  C   UNL     1       2.287  -8.192  24.266  0.00  0.00    +0.007 C 
ENDBRANCH 101 103
ENDBRANCH  67 101
ENDBRANCH  63  67
ENDBRANCH  62  65
BRANCH  62 105
ATOM    105  C   UNL     1       0.447  -2.571  28.879  0.00  0.00    +0.069 C 
BRANCH 105 106
ATOM    106  C   UNL     1       1.425  -3.564  29.479  0.00  0.00    -0.020 A 
ATOM    107  C   UNL     1       1.379  -5.018  29.618  0.00  0.00    +0.003 A 
ATOM    108  C   UNL     1       2.623  -5.413  30.127  0.00  0.00    +0.047 A 
ATOM    109  C   UNL     1       3.025  -6.748  30.279  0.00  0.00    +0.026 A 
ATOM    110  C   UNL     1       2.095  -7.746  30.006  0.00  0.00    +0.002 A 
ATOM    111  C   UNL     1       0.815  -7.408  29.580  0.00  0.00    +0.001 A 
ATOM    112  N   UNL     1       3.311  -4.269  30.440  0.00  0.00    -0.360 N 
ATOM    113  H   UNL     1       4.219  -4.259  30.882  0.00  0.00    +0.165 HD
ATOM    114  C   UNL     1       0.452  -6.059  29.356  0.00  0.00    +0.010 A 
ATOM    115  C   UNL     1       2.571  -3.168  30.137  0.00  0.00    +0.087 A 
ENDBRANCH 105 106
ENDBRANCH  62 105
ENDBRANCH   1  62
TORSDOF 35
ENDMDL
MODEL 3
REMARK VINA RESULT:      -3.3      2.268      7.780
REMARK  Name = 
REMARK  37 active torsions:
REMARK  status: ('A' for Active; 'I' for Inactive)
REMARK    1  A    between atoms: C_1  and  C_2
REMARK    2  A    between atoms: C_2  and  C_3
REMARK    3  A    between atoms: C_2  and  C_4
REMARK    4  A    between atoms: C_4  and  C_5
REMARK    5  A    between atoms: C_5  and  N_7
REMARK    6  A    between atoms: C_5  and  C_78
REMARK    7  A    between atoms: C_8  and  C_10
REMARK    8  A    between atoms: C_10  and  C_12
REMARK    9  A    between atoms: C_10  and  N_22
REMARK   10  A    between atoms: C_12  and  C_13
REMARK   11  A    between atoms: C_23  and  C_25
REMARK   12  A    between atoms: C_25  and  C_27
REMARK   13  A    between atoms: C_25  and  N_35
REMARK   14  A    between atoms: C_27  and  C_28
REMARK   15  A    between atoms: C_31  and  O_32
REMARK   16  A    between atoms: C_36  and  CA_38
REMARK   17  A    between atoms: CA_38  and  C_40
REMARK   18  A    between atoms: CA_38  and  N_42
REMARK   19  A    between atoms: C_40  and  O_41
REMARK   20  A    between atoms: C_43  and  CA_45
REMARK   21  A    between atoms: CA_45  and  CB_47
REMARK   22  A    between atoms: CA_45  and  N_57
REMARK   23  A    between atoms: CB_47  and  CG_48
REMARK   24  A    between atoms: C_58  and  CA_60
REMARK   25  A    between atoms: CA_60  and  CB_62
REMARK   26  A    between atoms: CA_60  and  N_68
REMARK   27  A    between atoms: CB_62  and  CG_63
REMARK   28  A    between atoms: C_69  and  CA_71
REMARK   29  A    between atoms: N_80  and  C_81
REMARK   30  A    between atoms: C_81  and  C_83
REMARK   31  A    between atoms: C_81  and  C_90
REMARK   32  A    between atoms: C_83  and  C_84
REMARK   33  A    between atoms: C_84  and  C_85
REMARK   34  A    between atoms: C_85  and  N_86
REMARK   35  A    between atoms: C_96  and  C_98
REMARK   36  A    between atoms: N_100  and  C_101
REMARK   37  A    between atoms: C_101  and  C_102
REMARK                            x       y       z     vdW  Elec       q    Type
REMARK                         _______ _______ _______ _____ _____    ______ ____
ROOT
ATOM      1  N   UNL     1       6.577  -3.659  23.589  0.00  0.00    -0.302 N 
ATOM      2  H   UNL     1       5.891  -2.997  23.969  0.00  0.00    +0.150 HD
ATOM      3  C   UNL     1       7.851  -3.122  23.571  0.00  0.00    +0.234 C 
ATOM      4  O   UNL     1       8.836  -3.854  23.715  0.00  0.00    -0.274 OA
ENDROOT
BRANCH   3   5
ATOM      5  C   UNL     1       8.043  -1.586  23.210  0.00  0.00    +0.163 C 
BRANCH   5   6
ATOM      6  N   UNL     1       7.381  -0.418  23.866  0.00  0.00    -0.302 N 
ATOM      7  H   UNL     1       7.191  -0.525  24.862  0.00  0.00    +0.150 HD
ATOM      8  C   UNL     1       6.855   0.709  23.279  0.00  0.00    +0.236 C 
ATOM      9  O   UNL     1       6.782   0.813  22.055  0.00  0.00    -0.274 OA
BRANCH   8  10
ATOM     10  CA  UNL     1       6.353   1.877  24.222  0.00  0.00    +0.184 C 
BRANCH  10  11
ATOM     11  N   UNL     1       5.862   3.062  23.487  0.00  0.00    -0.301 N 
ATOM     12  H   UNL     1       4.994   2.963  22.977  0.00  0.00    +0.150 HD
ATOM     13  C   UNL     1       6.573   4.260  23.478  0.00  0.00    +0.234 C 
ATOM     14  O   UNL     1       7.674   4.352  24.023  0.00  0.00    -0.274 OA
BRANCH  13  15
ATOM     15  CA  UNL     1       5.822   5.508  22.919  0.00  0.00    +0.163 C 
BRANCH  15  16
ATOM     16  N   UNL     1       4.414   5.177  22.551  0.00  0.00    -0.302 N 
ATOM     17  H   UNL     1       3.932   4.590  23.217  0.00  0.00    +0.150 HD
ATOM     18  C   UNL     1       3.603   5.995  21.785  0.00  0.00    +0.234 C 
ATOM     19  O   UNL     1       4.030   7.052  21.314  0.00  0.00    -0.274 OA
BRANCH  18  20
ATOM     20  CA  UNL     1       2.073   5.664  21.733  0.00  0.00    +0.165 C 
BRANCH  20  21
ATOM     21  N   UNL     1       1.491   5.834  23.071  0.00  0.00    -0.302 N 
ATOM     22  H   UNL     1       1.312   6.780  23.395  0.00  0.00    +0.150 HD
ATOM     23  C   UNL     1       1.336   4.761  23.906  0.00  0.00    +0.234 C 
ATOM     24  O   UNL     1       1.377   3.605  23.482  0.00  0.00    -0.274 OA
BRANCH  23  25
ATOM     25  CA  UNL     1       1.325   5.035  25.419  0.00  0.00    +0.159 C 
ATOM     26  N   UNL     1       0.958   3.993  26.345  0.00  0.00    -0.304 N 
ATOM     27  H   UNL     1       0.003   3.797  26.623  0.00  0.00    +0.149 HD
ATOM     28  C   UNL     1       1.977   3.713  27.234  0.00  0.00    +0.214 C 
ATOM     29  O   UNL     1       1.861   3.080  28.267  0.00  0.00    -0.276 OA
ATOM     30  C   UNL     1       3.238   4.318  26.690  0.00  0.00    +0.098 C 
ATOM     31  C   UNL     1       2.697   5.502  25.900  0.00  0.00    +0.041 C 
ENDBRANCH  23  25
ENDBRANCH  20  21
BRANCH  20  32
ATOM     32  CB  UNL     1       1.170   6.119  20.573  0.00  0.00    +0.088 C 
BRANCH  32  33
ATOM     33  CG  UNL     1       1.485   5.756  19.157  0.00  0.00    +0.061 A 
ATOM     34  ND1 UNL     1       1.883   6.668  18.215  0.00  0.00    -0.241 NA
ATOM     35  CE1 UNL     1       2.193   5.964  17.148  0.00  0.00    +0.196 A 
ATOM     36  NE2 UNL     1       1.968   4.633  17.336  0.00  0.00    -0.351 N 
ATOM     37  HE2 UNL     1       2.142   3.896  16.661  0.00  0.00    +0.166 HD
ATOM     38  CD2 UNL     1       1.505   4.481  18.612  0.00  0.00    +0.107 A 
ENDBRANCH  32  33
ENDBRANCH  20  32
ENDBRANCH  18  20
ENDBRANCH  15  16
BRANCH  15  39
ATOM     39  CB  UNL     1       6.047   6.758  23.785  0.00  0.00    +0.069 C 
BRANCH  39  40
ATOM     40  CG  UNL     1       7.462   6.915  24.264  0.00  0.00    -0.020 A 
ATOM     41  CD2 UNL     1       7.875   7.015  25.629  0.00  0.00    +0.003 A 
ATOM     42  CE3 UNL     1       7.188   7.032  26.853  0.00  0.00    +0.010 A 
ATOM     43  CZ3 UNL     1       7.893   7.085  28.053  0.00  0.00    +0.001 A 
ATOM     44  CH2 UNL     1       9.282   7.105  28.044  0.00  0.00    +0.002 A 
ATOM     45  CZ2 UNL     1       9.999   7.105  26.841  0.00  0.00    +0.026 A 
ATOM     46  CE2 UNL     1       9.268   7.065  25.646  0.00  0.00    +0.047 A 
ATOM     47  NE1 UNL     1       9.689   7.040  24.338  0.00  0.00    -0.360 N 
ATOM     48  HE1 UNL     1      10.657   7.062  24.050  0.00  0.00    +0.165 HD
ATOM     49  CD1 UNL     1       8.610   6.927  23.497  0.00  0.00    +0.087 A 
ENDBRANCH  39  40
ENDBRANCH  15  39
ENDBRANCH  13  15
ENDBRANCH  10  11
BRANCH  10  50
ATOM     50  C   UNL     1       5.324   1.433  25.280  0.00  0.00    +0.187 C 
BRANCH  50  51
ATOM     51  O   UNL     1       4.866   0.104  25.006  0.00  0.00    -0.393 OA
ATOM     52  H   UNL     1       5.275  -0.146  24.155  0.00  0.00    +0.209 HD
ENDBRANCH  50  51
ENDBRANCH  10  50
ENDBRANCH   8  10
ENDBRANCH   5   6
BRANCH   5  53
ATOM     53  C   UNL     1       9.481  -1.293  22.633  0.00  0.00    +0.067 C 
BRANCH  53  54
ATOM     54  C   UNL     1      10.019   0.107  22.801  0.00  0.00    -0.045 A 
ATOM     55  C   UNL     1       9.898   1.060  21.773  0.00  0.00    +0.007 A 
ATOM     56  C   UNL     1      10.236   2.395  22.005  0.00  0.00    +0.045 A 
ATOM     57  C   UNL     1      10.711   2.769  23.253  0.00  0.00    +0.117 A 
ATOM     58  C   UNL     1      10.991   1.813  24.223  0.00  0.00    +0.045 A 
ATOM     59  C   UNL     1      10.665   0.477  23.985  0.00  0.00    +0.007 A 
BRANCH  57  60
ATOM     60  O   UNL     1      10.859   4.098  23.517  0.00  0.00    -0.507 OA
ATOM     61  H   UNL     1      11.808   4.301  23.453  0.00  0.00    +0.292 HD
ENDBRANCH  57  60
ENDBRANCH  53  54
ENDBRANCH   5  53
ENDBRANCH   3   5
BRANCH   1  62
ATOM     62  C   UNL     1       6.347  -5.078  24.002  0.00  0.00    +0.163 C 
BRANCH  62  65
ATOM     63  N   UNL     1       5.630  -6.341  26.047  0.00  0.00    -0.302 N 
ATOM     64  H   UNL     1       5.481  -7.161  25.466  0.00  0.00    +0.150 HD
ATOM     65  C   UNL     1       5.958  -5.127  25.493  0.00  0.00    +0.234 C 
ATOM     66  O   UNL     1       5.968  -4.099  26.168  0.00  0.00    -0.274 OA
BRANCH  63  67
ATOM     67  C   UNL     1       5.281  -6.476  27.447  0.00  0.00    +0.159 C 
BRANCH  67  68
ATOM     68  C   UNL     1       3.730  -6.257  27.669  0.00  0.00    +0.234 C 
ATOM     69  N   UNL     1       3.260  -5.062  27.169  0.00  0.00    -0.302 N 
ATOM     70  H   UNL     1       3.964  -4.351  27.250  0.00  0.00    +0.150 HD
ATOM     71  O   UNL     1       3.019  -7.025  28.313  0.00  0.00    -0.274 OA
BRANCH  69  72
ATOM     72  C   UNL     1       1.879  -4.537  27.122  0.00  0.00    +0.159 C 
BRANCH  72  73
ATOM     73  C   UNL     1       1.240  -4.140  28.525  0.00  0.00    +0.237 C 
ATOM     74  N   UNL     1       1.573  -2.932  29.135  0.00  0.00    -0.288 N 
ATOM     75  C   UNL     1       1.957  -1.697  28.451  0.00  0.00    +0.162 C 
ATOM     76  C   UNL     1       1.260  -0.569  29.189  0.00  0.00    +0.033 C 
ATOM     77  C   UNL     1       0.504  -1.231  30.334  0.00  0.00    +0.021 C 
ATOM     78  C   UNL     1       1.128  -2.603  30.484  0.00  0.00    +0.109 C 
ATOM     79  O   UNL     1       0.555  -4.982  29.130  0.00  0.00    -0.274 OA
BRANCH  75  80
ATOM     80  C   UNL     1       3.482  -1.453  28.488  0.00  0.00    +0.234 C 
ATOM     81  N   UNL     1       3.890  -0.148  28.560  0.00  0.00    -0.305 N 
ATOM     82  H   UNL     1       3.217   0.527  28.887  0.00  0.00    +0.149 HD
ATOM     83  O   UNL     1       4.296  -2.363  28.399  0.00  0.00    -0.274 OA
BRANCH  81  84
ATOM     84  C   UNL     1       5.305   0.163  28.571  0.00  0.00    +0.199 C 
BRANCH  84  85
ATOM     85  C   UNL     1       5.637   1.595  28.939  0.00  0.00    +0.228 C 
ATOM     86  O   UNL     1       6.785   2.027  28.845  0.00  0.00    -0.274 OA
ATOM     87  N   UNL     1       4.614   2.416  29.322  0.00  0.00    -0.328 N 
ATOM     88  H   UNL     1       4.955   3.277  29.755  0.00  0.00    +0.145 HD
ATOM     89  H   UNL     1       3.755   2.080  29.725  0.00  0.00    +0.145 HD
ENDBRANCH  84  85
ENDBRANCH  81  84
ENDBRANCH  75  80
ENDBRANCH  72  73
BRANCH  72  90
ATOM     90  C   UNL     1       0.923  -5.569  26.471  0.00  0.00    +0.035 C 
BRANCH  90  91
ATOM     91  C   UNL     1       1.504  -6.989  26.556  0.00  0.00    +0.039 C 
BRANCH  91  92
ATOM     92  C   UNL     1       0.660  -7.963  27.362  0.00  0.00    +0.196 C 
BRANCH  92  93
ATOM     93  N   UNL     1       0.853  -9.306  26.838  0.00  0.00    -0.276 N 
ATOM     94  H   UNL     1       0.700 -10.053  27.508  0.00  0.00    +0.258 HD
ATOM     95  C   UNL     1       0.964  -9.681  25.549  0.00  0.00    +0.376 C 
ATOM     96  N   UNL     1       0.981 -10.890  25.118  0.00  0.00    -0.130 NA
ATOM     97  H   UNL     1       0.880 -11.556  25.900  0.00  0.00    +0.306 HD
ATOM     98  N   UNL     1       1.006  -8.717  24.618  0.00  0.00    -0.289 N 
ATOM     99  H   UNL     1       1.182  -9.165  23.721  0.00  0.00    +0.255 HD
ATOM    100  H   UNL     1       1.733  -8.041  24.798  0.00  0.00    +0.255 HD
ENDBRANCH  92  93
ENDBRANCH  91  92
ENDBRANCH  90  91
ENDBRANCH  72  90
ENDBRANCH  69  72
ENDBRANCH  67  68
BRANCH  67 101
ATOM    101  C   UNL     1       6.296  -5.740  28.359  0.00  0.00    +0.034 C 
BRANCH 101 103
ATOM    102  C   UNL     1       5.072  -5.116  30.437  0.00  0.00    +0.007 C 
ATOM    103  C   UNL     1       6.316  -5.852  29.898  0.00  0.00    -0.015 C 
ATOM    104  C   UNL     1       6.290  -7.259  30.477  0.00  0.00    +0.007 C 
ENDBRANCH 101 103
ENDBRANCH  67 101
ENDBRANCH  63  67
ENDBRANCH  62  65
BRANCH  62 105
ATOM    105  C   UNL     1       5.526  -6.020  23.057  0.00  0.00    +0.069 C 
BRANCH 105 106
ATOM    106  C   UNL     1       4.025  -5.823  22.975  0.00  0.00    -0.020 A 
ATOM    107  C   UNL     1       2.975  -6.579  22.296  0.00  0.00    +0.003 A 
ATOM    108  C   UNL     1       1.754  -6.011  22.685  0.00  0.00    +0.047 A 
ATOM    109  C   UNL     1       0.498  -6.538  22.350  0.00  0.00    +0.026 A 
ATOM    110  C   UNL     1       0.455  -7.633  21.495  0.00  0.00    +0.002 A 
ATOM    111  C   UNL     1       1.635  -8.185  21.008  0.00  0.00    +0.001 A 
ATOM    112  N   UNL     1       2.047  -4.882  23.406  0.00  0.00    -0.360 N 
ATOM    113  H   UNL     1       1.351  -4.243  23.762  0.00  0.00    +0.165 HD
ATOM    114  C   UNL     1       2.895  -7.691  21.418  0.00  0.00    +0.010 A 
ATOM    115  C   UNL     1       3.394  -4.718  23.510  0.00  0.00    +0.087 A 
ENDBRANCH 105 106
ENDBRANCH  62 105
ENDBRANCH   1  62
TORSDOF 35
ENDMDL
MODEL 4
REMARK VINA RESULT:      -2.7      2.250      7.866
REMARK  Name = 
REMARK  37 active torsions:
REMARK  status: ('A' for Active; 'I' for Inactive)
REMARK    1  A    between atoms: C_1  and  C_2
REMARK    2  A    between atoms: C_2  and  C_3
REMARK    3  A    between atoms: C_2  and  C_4
REMARK    4  A    between atoms: C_4  and  C_5
REMARK    5  A    between atoms: C_5  and  N_7
REMARK    6  A    between atoms: C_5  and  C_78
REMARK    7  A    between atoms: C_8  and  C_10
REMARK    8  A    between atoms: C_10  and  C_12
REMARK    9  A    between atoms: C_10  and  N_22
REMARK   10  A    between atoms: C_12  and  C_13
REMARK   11  A    between atoms: C_23  and  C_25
REMARK   12  A    between atoms: C_25  and  C_27
REMARK   13  A    between atoms: C_25  and  N_35
REMARK   14  A    between atoms: C_27  and  C_28
REMARK   15  A    between atoms: C_31  and  O_32
REMARK   16  A    between atoms: C_36  and  CA_38
REMARK   17  A    between atoms: CA_38  and  C_40
REMARK   18  A    between atoms: CA_38  and  N_42
REMARK   19  A    between atoms: C_40  and  O_41
REMARK   20  A    between atoms: C_43  and  CA_45
REMARK   21  A    between atoms: CA_45  and  CB_47
REMARK   22  A    between atoms: CA_45  and  N_57
REMARK   23  A    between atoms: CB_47  and  CG_48
REMARK   24  A    between atoms: C_58  and  CA_60
REMARK   25  A    between atoms: CA_60  and  CB_62
REMARK   26  A    between atoms: CA_60  and  N_68
REMARK   27  A    between atoms: CB_62  and  CG_63
REMARK   28  A    between atoms: C_69  and  CA_71
REMARK   29  A    between atoms: N_80  and  C_81
REMARK   30  A    between atoms: C_81  and  C_83
REMARK   31  A    between atoms: C_81  and  C_90
REMARK   32  A    between atoms: C_83  and  C_84
REMARK   33  A    between atoms: C_84  and  C_85
REMARK   34  A    between atoms: C_85  and  N_86
REMARK   35  A    between atoms: C_96  and  C_98
REMARK   36  A    between atoms: N_100  and  C_101
REMARK   37  A    between atoms: C_101  and  C_102
REMARK                            x       y       z     vdW  Elec       q    Type
REMARK                         _______ _______ _______ _____ _____    ______ ____
ROOT
ATOM      1  N   UNL     1       7.994  -3.226  25.428  0.00  0.00    -0.302 N 
ATOM      2  H   UNL     1       7.376  -2.736  26.084  0.00  0.00    +0.150 HD
ATOM      3  C   UNL     1       8.906  -2.367  24.845  0.00  0.00    +0.234 C 
ATOM      4  O   UNL     1      10.025  -2.777  24.520  0.00  0.00    -0.274 OA
ENDROOT
BRANCH   3   5
ATOM      5  C   UNL     1       8.450  -0.895  24.455  0.00  0.00    +0.163 C 
BRANCH   5   6
ATOM      6  N   UNL     1       7.261  -0.154  24.976  0.00  0.00    -0.302 N 
ATOM      7  H   UNL     1       6.482  -0.065  24.325  0.00  0.00    +0.150 HD
ATOM      8  C   UNL     1       7.140   0.552  26.149  0.00  0.00    +0.236 C 
ATOM      9  O   UNL     1       8.111   0.743  26.880  0.00  0.00    -0.274 OA
BRANCH   8  10
ATOM     10  CA  UNL     1       5.711   1.110  26.540  0.00  0.00    +0.184 C 
BRANCH  10  11
ATOM     11  N   UNL     1       5.580   2.573  26.373  0.00  0.00    -0.301 N 
ATOM     12  H   UNL     1       5.405   3.120  27.207  0.00  0.00    +0.150 HD
ATOM     13  C   UNL     1       5.672   3.175  25.120  0.00  0.00    +0.234 C 
ATOM     14  O   UNL     1       5.793   2.500  24.096  0.00  0.00    -0.274 OA
BRANCH  13  15
ATOM     15  CA  UNL     1       5.808   4.729  25.106  0.00  0.00    +0.163 C 
BRANCH  15  16
ATOM     16  N   UNL     1       4.581   5.388  25.641  0.00  0.00    -0.302 N 
ATOM     17  H   UNL     1       4.636   6.394  25.701  0.00  0.00    +0.150 HD
ATOM     18  C   UNL     1       3.305   4.870  25.508  0.00  0.00    +0.234 C 
ATOM     19  O   UNL     1       3.115   3.780  24.961  0.00  0.00    -0.274 OA
BRANCH  18  20
ATOM     20  CA  UNL     1       2.097   5.807  25.851  0.00  0.00    +0.165 C 
BRANCH  20  21
ATOM     21  N   UNL     1       1.318   6.063  24.633  0.00  0.00    -0.302 N 
ATOM     22  H   UNL     1       0.317   5.893  24.663  0.00  0.00    +0.150 HD
ATOM     23  C   UNL     1       1.944   6.380  23.457  0.00  0.00    +0.234 C 
ATOM     24  O   UNL     1       3.115   6.762  23.436  0.00  0.00    -0.274 OA
BRANCH  23  25
ATOM     25  CA  UNL     1       1.211   6.039  22.149  0.00  0.00    +0.159 C 
ATOM     26  N   UNL     1       1.669   6.584  20.895  0.00  0.00    -0.304 N 
ATOM     27  H   UNL     1       1.381   7.487  20.534  0.00  0.00    +0.149 HD
ATOM     28  C   UNL     1       2.015   5.592  19.999  0.00  0.00    +0.214 C 
ATOM     29  O   UNL     1       2.182   5.745  18.804  0.00  0.00    -0.276 OA
ATOM     30  C   UNL     1       2.155   4.310  20.768  0.00  0.00    +0.098 C 
ATOM     31  C   UNL     1       1.181   4.530  21.917  0.00  0.00    +0.041 C 
ENDBRANCH  23  25
ENDBRANCH  20  21
BRANCH  20  32
ATOM     32  CB  UNL     1       1.260   5.637  27.130  0.00  0.00    +0.088 C 
BRANCH  32  33
ATOM     33  CG  UNL     1       0.983   4.283  27.701  0.00  0.00    +0.061 A 
ATOM     34  ND1 UNL     1       0.789   4.052  29.037  0.00  0.00    -0.241 NA
ATOM     35  CE1 UNL     1       0.444   2.787  29.133  0.00  0.00    +0.196 A 
ATOM     36  NE2 UNL     1       0.452   2.166  27.920  0.00  0.00    -0.351 N 
ATOM     37  HE2 UNL     1       0.212   1.196  27.742  0.00  0.00    +0.166 HD
ATOM     38  CD2 UNL     1       0.805   3.104  26.992  0.00  0.00    +0.107 A 
ENDBRANCH  32  33
ENDBRANCH  20  32
ENDBRANCH  18  20
ENDBRANCH  15  16
BRANCH  15  39
ATOM     39  CB  UNL     1       7.160   5.199  25.667  0.00  0.00    +0.069 C 
BRANCH  39  40
ATOM     40  CG  UNL     1       7.061   5.837  27.023  0.00  0.00    -0.020 A 
ATOM     41  CD2 UNL     1       6.171   5.440  28.070  0.00  0.00    +0.003 A 
ATOM     42  CE3 UNL     1       5.175   4.457  28.176  0.00  0.00    +0.010 A 
ATOM     43  CZ3 UNL     1       4.497   4.273  29.378  0.00  0.00    +0.001 A 
ATOM     44  CH2 UNL     1       4.814   5.052  30.484  0.00  0.00    +0.002 A 
ATOM     45  CZ2 UNL     1       5.791   6.052  30.409  0.00  0.00    +0.026 A 
ATOM     46  CE2 UNL     1       6.451   6.228  29.184  0.00  0.00    +0.047 A 
ATOM     47  NE1 UNL     1       7.447   7.104  28.820  0.00  0.00    -0.360 N 
ATOM     48  HE1 UNL     1       7.852   7.793  29.436  0.00  0.00    +0.165 HD
ATOM     49  CD1 UNL     1       7.837   6.862  27.527  0.00  0.00    +0.087 A 
ENDBRANCH  39  40
ENDBRANCH  15  39
ENDBRANCH  13  15
ENDBRANCH  10  11
BRANCH  10  50
ATOM     50  C   UNL     1       4.541   0.381  25.851  0.00  0.00    +0.187 C 
BRANCH  50  51
ATOM     51  O   UNL     1       3.296   1.014  26.174  0.00  0.00    -0.393 OA
ATOM     52  H   UNL     1       2.603   0.376  25.920  0.00  0.00    +0.209 HD
ENDBRANCH  50  51
ENDBRANCH  10  50
ENDBRANCH   8  10
ENDBRANCH   5   6
BRANCH   5  53
ATOM     53  C   UNL     1       9.676   0.014  24.060  0.00  0.00    +0.067 C 
BRANCH  53  54
ATOM     54  C   UNL     1       9.367   1.355  23.439  0.00  0.00    -0.045 A 
ATOM     55  C   UNL     1       8.695   1.448  22.207  0.00  0.00    +0.007 A 
ATOM     56  C   UNL     1       8.258   2.686  21.732  0.00  0.00    +0.045 A 
ATOM     57  C   UNL     1       8.510   3.827  22.480  0.00  0.00    +0.117 A 
ATOM     58  C   UNL     1       9.314   3.773  23.612  0.00  0.00    +0.045 A 
ATOM     59  C   UNL     1       9.762   2.536  24.078  0.00  0.00    +0.007 A 
BRANCH  57  60
ATOM     60  O   UNL     1       7.919   4.995  22.097  0.00  0.00    -0.507 OA
ATOM     61  H   UNL     1       7.003   4.784  21.842  0.00  0.00    +0.292 HD
ENDBRANCH  57  60
ENDBRANCH  53  54
ENDBRANCH   5  53
ENDBRANCH   3   5
BRANCH   1  62
ATOM     62  C   UNL     1       8.405  -4.592  25.882  0.00  0.00    +0.163 C 
BRANCH  62  65
ATOM     63  N   UNL     1       6.182  -4.611  27.044  0.00  0.00    -0.302 N 
ATOM     64  H   UNL     1       5.873  -3.867  26.424  0.00  0.00    +0.150 HD
ATOM     65  C   UNL     1       7.483  -5.055  27.027  0.00  0.00    +0.234 C 
ATOM     66  O   UNL     1       7.905  -5.826  27.888  0.00  0.00    -0.274 OA
BRANCH  63  67
ATOM     67  C   UNL     1       5.245  -5.024  28.069  0.00  0.00    +0.159 C 
BRANCH  67  68
ATOM     68  C   UNL     1       4.714  -6.490  27.797  0.00  0.00    +0.234 C 
ATOM     69  N   UNL     1       3.436  -6.531  27.284  0.00  0.00    -0.302 N 
ATOM     70  H   UNL     1       2.888  -5.775  27.654  0.00  0.00    +0.150 HD
ATOM     71  O   UNL     1       5.333  -7.505  28.102  0.00  0.00    -0.274 OA
BRANCH  69  72
ATOM     72  C   UNL     1       2.634  -7.692  26.843  0.00  0.00    +0.159 C 
BRANCH  72  73
ATOM     73  C   UNL     1       2.620  -7.971  25.276  0.00  0.00    +0.237 C 
ATOM     74  N   UNL     1       2.387  -6.934  24.376  0.00  0.00    -0.288 N 
ATOM     75  C   UNL     1       2.726  -5.524  24.578  0.00  0.00    +0.162 C 
ATOM     76  C   UNL     1       3.274  -5.026  23.253  0.00  0.00    +0.033 C 
ATOM     77  C   UNL     1       3.189  -6.212  22.299  0.00  0.00    +0.021 C 
ATOM     78  C   UNL     1       2.217  -7.176  22.948  0.00  0.00    +0.109 C 
ATOM     79  O   UNL     1       2.679  -9.147  24.878  0.00  0.00    -0.274 OA
BRANCH  75  80
ATOM     80  C   UNL     1       1.496  -4.672  24.963  0.00  0.00    +0.234 C 
ATOM     81  N   UNL     1       1.608  -3.920  26.101  0.00  0.00    -0.305 N 
ATOM     82  H   UNL     1       2.538  -3.725  26.434  0.00  0.00    +0.149 HD
ATOM     83  O   UNL     1       0.450  -4.701  24.328  0.00  0.00    -0.274 OA
BRANCH  81  84
ATOM     84  C   UNL     1       0.486  -3.115  26.543  0.00  0.00    +0.199 C 
BRANCH  84  85
ATOM     85  C   UNL     1       0.867  -1.796  27.186  0.00  0.00    +0.228 C 
ATOM     86  O   UNL     1       1.036  -0.784  26.508  0.00  0.00    -0.274 OA
ATOM     87  N   UNL     1       0.958  -1.745  28.549  0.00  0.00    -0.328 N 
ATOM     88  H   UNL     1       1.427  -0.895  28.870  0.00  0.00    +0.145 HD
ATOM     89  H   UNL     1       1.154  -2.549  29.121  0.00  0.00    +0.145 HD
ENDBRANCH  84  85
ENDBRANCH  81  84
ENDBRANCH  75  80
ENDBRANCH  72  73
BRANCH  72  90
ATOM     90  C   UNL     1       1.155  -7.533  27.281  0.00  0.00    +0.035 C 
BRANCH  90  91
ATOM     91  C   UNL     1       0.802  -8.527  28.398  0.00  0.00    +0.039 C 
BRANCH  91  92
ATOM     92  C   UNL     1       0.885  -7.945  29.801  0.00  0.00    +0.196 C 
BRANCH  92  93
ATOM     93  N   UNL     1       0.446  -6.560  29.769  0.00  0.00    -0.276 N 
ATOM     94  H   UNL     1      -0.555  -6.430  29.652  0.00  0.00    +0.258 HD
ATOM     95  C   UNL     1       1.148  -5.463  30.113  0.00  0.00    +0.376 C 
ATOM     96  N   UNL     1       0.679  -4.273  30.217  0.00  0.00    -0.130 NA
ATOM     97  H   UNL     1      -0.333  -4.263  30.012  0.00  0.00    +0.306 HD
ATOM     98  N   UNL     1       2.440  -5.622  30.433  0.00  0.00    -0.289 N 
ATOM     99  H   UNL     1       2.837  -4.695  30.576  0.00  0.00    +0.255 HD
ATOM    100  H   UNL     1       2.960  -6.096  29.710  0.00  0.00    +0.255 HD
ENDBRANCH  92  93
ENDBRANCH  91  92
ENDBRANCH  90  91
ENDBRANCH  72  90
ENDBRANCH  69  72
ENDBRANCH  67  68
BRANCH  67 101
ATOM    101  C   UNL     1       4.236  -3.895  28.404  0.00  0.00    +0.034 C 
BRANCH 101 103
ATOM    102  C   UNL     1       4.201  -1.675  29.535  0.00  0.00    +0.007 C 
ATOM    103  C   UNL     1       4.523  -2.392  28.207  0.00  0.00    -0.015 C 
ATOM    104  C   UNL     1       5.948  -2.015  27.829  0.00  0.00    +0.007 C 
ENDBRANCH 101 103
ENDBRANCH  67 101
ENDBRANCH  63  67
ENDBRANCH  62  65
BRANCH  62 105
ATOM    105  C   UNL     1       8.748  -5.678  24.806  0.00  0.00    +0.069 C 
BRANCH 105 106
ATOM    106  C   UNL     1       7.862  -5.777  23.579  0.00  0.00    -0.020 A 
ATOM    107  C   UNL     1       7.107  -4.772  22.835  0.00  0.00    +0.003 A 
ATOM    108  C   UNL     1       6.581  -5.416  21.708  0.00  0.00    +0.047 A 
ATOM    109  C   UNL     1       5.901  -4.761  20.670  0.00  0.00    +0.026 A 
ATOM    110  C   UNL     1       5.642  -3.402  20.814  0.00  0.00    +0.002 A 
ATOM    111  C   UNL     1       6.065  -2.729  21.955  0.00  0.00    +0.001 A 
ATOM    112  N   UNL     1       6.848  -6.754  21.848  0.00  0.00    -0.360 N 
ATOM    113  H   UNL     1       6.530  -7.464  21.204  0.00  0.00    +0.165 HD
ATOM    114  C   UNL     1       6.818  -3.388  22.955  0.00  0.00    +0.010 A 
ATOM    115  C   UNL     1       7.534  -6.986  23.000  0.00  0.00    +0.087 A 
ENDBRANCH 105 106
ENDBRANCH  62 105
ENDBRANCH   1  62
TORSDOF 35
ENDMDL
MODEL 5
REMARK VINA RESULT:      -2.6      2.156      9.608
REMARK  Name = 
REMARK  37 active torsions:
REMARK  status: ('A' for Active; 'I' for Inactive)
REMARK    1  A    between atoms: C_1  and  C_2
REMARK    2  A    between atoms: C_2  and  C_3
REMARK    3  A    between atoms: C_2  and  C_4
REMARK    4  A    between atoms: C_4  and  C_5
REMARK    5  A    between atoms: C_5  and  N_7
REMARK    6  A    between atoms: C_5  and  C_78
REMARK    7  A    between atoms: C_8  and  C_10
REMARK    8  A    between atoms: C_10  and  C_12
REMARK    9  A    between atoms: C_10  and  N_22
REMARK   10  A    between atoms: C_12  and  C_13
REMARK   11  A    between atoms: C_23  and  C_25
REMARK   12  A    between atoms: C_25  and  C_27
REMARK   13  A    between atoms: C_25  and  N_35
REMARK   14  A    between atoms: C_27  and  C_28
REMARK   15  A    between atoms: C_31  and  O_32
REMARK   16  A    between atoms: C_36  and  CA_38
REMARK   17  A    between atoms: CA_38  and  C_40
REMARK   18  A    between atoms: CA_38  and  N_42
REMARK   19  A    between atoms: C_40  and  O_41
REMARK   20  A    between atoms: C_43  and  CA_45
REMARK   21  A    between atoms: CA_45  and  CB_47
REMARK   22  A    between atoms: CA_45  and  N_57
REMARK   23  A    between atoms: CB_47  and  CG_48
REMARK   24  A    between atoms: C_58  and  CA_60
REMARK   25  A    between atoms: CA_60  and  CB_62
REMARK   26  A    between atoms: CA_60  and  N_68
REMARK   27  A    between atoms: CB_62  and  CG_63
REMARK   28  A    between atoms: C_69  and  CA_71
REMARK   29  A    between atoms: N_80  and  C_81
REMARK   30  A    between atoms: C_81  and  C_83
REMARK   31  A    between atoms: C_81  and  C_90
REMARK   32  A    between atoms: C_83  and  C_84
REMARK   33  A    between atoms: C_84  and  C_85
REMARK   34  A    between atoms: C_85  and  N_86
REMARK   35  A    between atoms: C_96  and  C_98
REMARK   36  A    between atoms: N_100  and  C_101
REMARK   37  A    between atoms: C_101  and  C_102
REMARK                            x       y       z     vdW  Elec       q    Type
REMARK                         _______ _______ _______ _____ _____    ______ ____
ROOT
ATOM      1  N   UNL     1       3.733   4.613  26.837  0.00  0.00    -0.302 N 
ATOM      2  H   UNL     1       4.084   3.749  26.409  0.00  0.00    +0.150 HD
ATOM      3  C   UNL     1       2.633   4.376  27.640  0.00  0.00    +0.234 C 
ATOM      4  O   UNL     1       2.427   5.079  28.635  0.00  0.00    -0.274 OA
ENDROOT
BRANCH   3   5
ATOM      5  C   UNL     1       1.557   3.297  27.188  0.00  0.00    +0.163 C 
BRANCH   5   6
ATOM      6  N   UNL     1       1.112   2.094  27.956  0.00  0.00    -0.302 N 
ATOM      7  H   UNL     1       0.345   2.251  28.609  0.00  0.00    +0.150 HD
ATOM      8  C   UNL     1       1.698   0.851  28.015  0.00  0.00    +0.236 C 
ATOM      9  O   UNL     1       2.787   0.636  27.483  0.00  0.00    -0.274 OA
BRANCH   8  10
ATOM     10  CA  UNL     1       0.929  -0.301  28.780  0.00  0.00    +0.184 C 
BRANCH  10  11
ATOM     11  N   UNL     1       1.072  -1.630  28.148  0.00  0.00    -0.301 N 
ATOM     12  H   UNL     1       1.413  -2.385  28.730  0.00  0.00    +0.150 HD
ATOM     13  C   UNL     1       0.770  -1.833  26.803  0.00  0.00    +0.234 C 
ATOM     14  O   UNL     1       0.444  -0.895  26.075  0.00  0.00    -0.274 OA
BRANCH  13  15
ATOM     15  CA  UNL     1       0.682  -3.317  26.329  0.00  0.00    +0.163 C 
BRANCH  15  16
ATOM     16  N   UNL     1       1.770  -3.646  25.363  0.00  0.00    -0.302 N 
ATOM     17  H   UNL     1       2.685  -3.745  25.777  0.00  0.00    +0.150 HD
ATOM     18  C   UNL     1       1.572  -4.346  24.186  0.00  0.00    +0.234 C 
ATOM     19  O   UNL     1       0.443  -4.707  23.843  0.00  0.00    -0.274 OA
BRANCH  18  20
ATOM     20  CA  UNL     1       2.838  -4.873  23.429  0.00  0.00    +0.165 C 
BRANCH  20  21
ATOM     21  N   UNL     1       4.043  -4.277  24.020  0.00  0.00    -0.302 N 
ATOM     22  H   UNL     1       3.958  -3.364  24.456  0.00  0.00    +0.150 HD
ATOM     23  C   UNL     1       5.267  -4.869  23.856  0.00  0.00    +0.234 C 
ATOM     24  O   UNL     1       5.369  -6.043  23.495  0.00  0.00    -0.274 OA
BRANCH  23  25
ATOM     25  CA  UNL     1       6.507  -3.965  23.928  0.00  0.00    +0.159 C 
ATOM     26  N   UNL     1       7.133  -3.491  22.719  0.00  0.00    -0.304 N 
ATOM     27  H   UNL     1       7.843  -4.007  22.212  0.00  0.00    +0.149 HD
ATOM     28  C   UNL     1       7.144  -2.111  22.653  0.00  0.00    +0.214 C 
ATOM     29  O   UNL     1       7.822  -1.444  21.893  0.00  0.00    -0.276 OA
ATOM     30  C   UNL     1       6.169  -1.597  23.671  0.00  0.00    +0.098 C 
ATOM     31  C   UNL     1       6.213  -2.696  24.724  0.00  0.00    +0.041 C 
ENDBRANCH  23  25
ENDBRANCH  20  21
BRANCH  20  32
ATOM     32  CB  UNL     1       2.988  -6.342  22.998  0.00  0.00    +0.088 C 
BRANCH  32  33
ATOM     33  CG  UNL     1       2.277  -7.439  23.723  0.00  0.00    +0.061 A 
ATOM     34  ND1 UNL     1       0.962  -7.757  23.509  0.00  0.00    -0.241 NA
ATOM     35  CE1 UNL     1       0.739  -8.842  24.219  0.00  0.00    +0.196 A 
ATOM     36  NE2 UNL     1       1.840  -9.219  24.928  0.00  0.00    -0.351 N 
ATOM     37  HE2 UNL     1       1.912 -10.029  25.536  0.00  0.00    +0.166 HD
ATOM     38  CD2 UNL     1       2.832  -8.328  24.632  0.00  0.00    +0.107 A 
ENDBRANCH  32  33
ENDBRANCH  20  32
ENDBRANCH  18  20
ENDBRANCH  15  16
BRANCH  15  39
ATOM     39  CB  UNL     1       0.465  -4.289  27.501  0.00  0.00    +0.069 C 
BRANCH  39  40
ATOM     40  CG  UNL     1       1.634  -5.197  27.756  0.00  0.00    -0.020 A 
ATOM     41  CD2 UNL     1       2.746  -4.908  28.608  0.00  0.00    +0.003 A 
ATOM     42  CE3 UNL     1       3.109  -3.798  29.386  0.00  0.00    +0.010 A 
ATOM     43  CZ3 UNL     1       4.258  -3.839  30.173  0.00  0.00    +0.001 A 
ATOM     44  CH2 UNL     1       5.041  -4.986  30.203  0.00  0.00    +0.002 A 
ATOM     45  CZ2 UNL     1       4.716  -6.105  29.427  0.00  0.00    +0.026 A 
ATOM     46  CE2 UNL     1       3.563  -6.036  28.633  0.00  0.00    +0.047 A 
ATOM     47  NE1 UNL     1       2.995  -6.965  27.794  0.00  0.00    -0.360 N 
ATOM     48  HE1 UNL     1       3.375  -7.885  27.622  0.00  0.00    +0.165 HD
ATOM     49  CD1 UNL     1       1.821  -6.479  27.277  0.00  0.00    +0.087 A 
ENDBRANCH  39  40
ENDBRANCH  15  39
ENDBRANCH  13  15
ENDBRANCH  10  11
BRANCH  10  50
ATOM     50  C   UNL     1       1.252  -0.382  30.285  0.00  0.00    +0.187 C 
BRANCH  50  51
ATOM     51  O   UNL     1       2.634  -0.703  30.484  0.00  0.00    -0.393 OA
ATOM     52  H   UNL     1       2.766  -1.572  30.058  0.00  0.00    +0.209 HD
ENDBRANCH  50  51
ENDBRANCH  10  50
ENDBRANCH   8  10
ENDBRANCH   5   6
BRANCH   5  53
ATOM     53  C   UNL     1       0.461   3.920  26.242  0.00  0.00    +0.067 C 
BRANCH  53  54
ATOM     54  C   UNL     1       0.838   4.130  24.795  0.00  0.00    -0.045 A 
ATOM     55  C   UNL     1       0.666   3.108  23.843  0.00  0.00    +0.007 A 
ATOM     56  C   UNL     1       0.848   3.371  22.484  0.00  0.00    +0.045 A 
ATOM     57  C   UNL     1       1.218   4.646  22.083  0.00  0.00    +0.117 A 
ATOM     58  C   UNL     1       1.552   5.617  23.019  0.00  0.00    +0.045 A 
ATOM     59  C   UNL     1       1.383   5.349  24.378  0.00  0.00    +0.007 A 
BRANCH  57  60
ATOM     60  O   UNL     1       1.210   4.932  20.749  0.00  0.00    -0.507 OA
ATOM     61  H   UNL     1       0.333   4.687  20.407  0.00  0.00    +0.292 HD
ENDBRANCH  57  60
ENDBRANCH  53  54
ENDBRANCH   5  53
ENDBRANCH   3   5
BRANCH   1  62
ATOM     62  C   UNL     1       4.808   5.562  27.266  0.00  0.00    +0.163 C 
BRANCH  62  65
ATOM     63  N   UNL     1       6.049   3.400  27.543  0.00  0.00    -0.302 N 
ATOM     64  H   UNL     1       5.172   2.902  27.417  0.00  0.00    +0.150 HD
ATOM     65  C   UNL     1       6.082   4.772  27.623  0.00  0.00    +0.234 C 
ATOM     66  O   UNL     1       7.108   5.368  27.949  0.00  0.00    -0.274 OA
BRANCH  63  67
ATOM     67  C   UNL     1       7.213   2.587  27.834  0.00  0.00    +0.159 C 
BRANCH  67  68
ATOM     68  C   UNL     1       7.547   1.620  26.627  0.00  0.00    +0.234 C 
ATOM     69  N   UNL     1       7.973   2.276  25.492  0.00  0.00    -0.302 N 
ATOM     70  H   UNL     1       7.516   3.167  25.413  0.00  0.00    +0.150 HD
ATOM     71  O   UNL     1       7.355   0.408  26.652  0.00  0.00    -0.274 OA
BRANCH  69  72
ATOM     72  C   UNL     1       8.437   1.724  24.202  0.00  0.00    +0.159 C 
BRANCH  72  73
ATOM     73  C   UNL     1      10.010   1.542  24.050  0.00  0.00    +0.237 C 
ATOM     74  N   UNL     1      10.600   0.298  24.262  0.00  0.00    -0.288 N 
ATOM     75  C   UNL     1       9.974  -1.005  24.032  0.00  0.00    +0.162 C 
ATOM     76  C   UNL     1      11.036  -1.880  23.394  0.00  0.00    +0.033 C 
ATOM     77  C   UNL     1      12.289  -1.017  23.315  0.00  0.00    +0.021 C 
ATOM     78  C   UNL     1      12.048   0.125  24.281  0.00  0.00    +0.109 C 
ATOM     79  O   UNL     1      10.716   2.551  23.880  0.00  0.00    -0.274 OA
BRANCH  75  80
ATOM     80  C   UNL     1       9.498  -1.669  25.344  0.00  0.00    +0.234 C 
ATOM     81  N   UNL     1       9.317  -3.025  25.309  0.00  0.00    -0.305 N 
ATOM     82  H   UNL     1       9.779  -3.533  24.572  0.00  0.00    +0.149 HD
ATOM     83  O   UNL     1       9.237  -1.024  26.351  0.00  0.00    -0.274 OA
BRANCH  81  84
ATOM     84  C   UNL     1       8.847  -3.717  26.493  0.00  0.00    +0.199 C 
BRANCH  84  85
ATOM     85  C   UNL     1       8.340  -5.124  26.246  0.00  0.00    +0.228 C 
ATOM     86  O   UNL     1       8.941  -5.895  25.500  0.00  0.00    -0.274 OA
ATOM     87  N   UNL     1       7.226  -5.536  26.923  0.00  0.00    -0.328 N 
ATOM     88  H   UNL     1       6.839  -6.399  26.533  0.00  0.00    +0.145 HD
ATOM     89  H   UNL     1       6.524  -4.906  27.271  0.00  0.00    +0.145 HD
ENDBRANCH  84  85
ENDBRANCH  81  84
ENDBRANCH  75  80
ENDBRANCH  72  73
BRANCH  72  90
ATOM     90  C   UNL     1       7.975   2.623  23.025  0.00  0.00    +0.035 C 
BRANCH  90  91
ATOM     91  C   UNL     1       7.506   1.773  21.834  0.00  0.00    +0.039 C 
BRANCH  91  92
ATOM     92  C   UNL     1       5.996   1.658  21.706  0.00  0.00    +0.196 C 
BRANCH  92  93
ATOM     93  N   UNL     1       5.383   1.974  22.986  0.00  0.00    -0.276 N 
ATOM     94  H   UNL     1       5.801   1.511  23.787  0.00  0.00    +0.258 HD
ATOM     95  C   UNL     1       4.516   2.968  23.263  0.00  0.00    +0.376 C 
ATOM     96  N   UNL     1       4.116   3.310  24.434  0.00  0.00    -0.130 NA
ATOM     97  H   UNL     1       4.564   2.724  25.156  0.00  0.00    +0.306 HD
ATOM     98  N   UNL     1       4.067   3.709  22.241  0.00  0.00    -0.289 N 
ATOM     99  H   UNL     1       3.362   4.345  22.610  0.00  0.00    +0.255 HD
ATOM    100  H   UNL     1       3.656   3.148  21.511  0.00  0.00    +0.255 HD
ENDBRANCH  92  93
ENDBRANCH  91  92
ENDBRANCH  90  91
ENDBRANCH  72  90
ENDBRANCH  69  72
ENDBRANCH  67  68
BRANCH  67 101
ATOM    101  C   UNL     1       7.163   2.021  29.277  0.00  0.00    +0.034 C 
BRANCH 101 103
ATOM    102  C   UNL     1       5.421   3.443  30.348  0.00  0.00    +0.007 C 
ATOM    103  C   UNL     1       5.891   1.987  30.150  0.00  0.00    -0.015 C 
ATOM    104  C   UNL     1       4.709   1.205  29.598  0.00  0.00    +0.007 C 
ENDBRANCH 101 103
ENDBRANCH  67 101
ENDBRANCH  63  67
ENDBRANCH  62  65
BRANCH  62 105
ATOM    105  C   UNL     1       5.034   6.875  26.442  0.00  0.00    +0.069 C 
BRANCH 105 106
ATOM    106  C   UNL     1       5.699   6.764  25.083  0.00  0.00    -0.020 A 
ATOM    107  C   UNL     1       7.102   6.663  24.687  0.00  0.00    +0.003 A 
ATOM    108  C   UNL     1       7.116   6.447  23.303  0.00  0.00    +0.047 A 
ATOM    109  C   UNL     1       8.272   6.166  22.560  0.00  0.00    +0.026 A 
ATOM    110  C   UNL     1       9.497   6.203  23.218  0.00  0.00    +0.002 A 
ATOM    111  C   UNL     1       9.550   6.498  24.575  0.00  0.00    +0.001 A 
ATOM    112  N   UNL     1       5.824   6.583  22.862  0.00  0.00    -0.360 N 
ATOM    113  H   UNL     1       5.551   6.536  21.891  0.00  0.00    +0.165 HD
ATOM    114  C   UNL     1       8.369   6.702  25.326  0.00  0.00    +0.010 A 
ATOM    115  C   UNL     1       4.991   6.856  23.902  0.00  0.00    +0.087 A 
ENDBRANCH 105 106
ENDBRANCH  62 105
ENDBRANCH   1  62
TORSDOF 35
ENDMDL
MODEL 6
REMARK VINA RESULT:      -2.5      2.053      9.150
REMARK  Name = 
REMARK  37 active torsions:
REMARK  status: ('A' for Active; 'I' for Inactive)
REMARK    1  A    between atoms: C_1  and  C_2
REMARK    2  A    between atoms: C_2  and  C_3
REMARK    3  A    between atoms: C_2  and  C_4
REMARK    4  A    between atoms: C_4  and  C_5
REMARK    5  A    between atoms: C_5  and  N_7
REMARK    6  A    between atoms: C_5  and  C_78
REMARK    7  A    between atoms: C_8  and  C_10
REMARK    8  A    between atoms: C_10  and  C_12
REMARK    9  A    between atoms: C_10  and  N_22
REMARK   10  A    between atoms: C_12  and  C_13
REMARK   11  A    between atoms: C_23  and  C_25
REMARK   12  A    between atoms: C_25  and  C_27
REMARK   13  A    between atoms: C_25  and  N_35
REMARK   14  A    between atoms: C_27  and  C_28
REMARK   15  A    between atoms: C_31  and  O_32
REMARK   16  A    between atoms: C_36  and  CA_38
REMARK   17  A    between atoms: CA_38  and  C_40
REMARK   18  A    between atoms: CA_38  and  N_42
REMARK   19  A    between atoms: C_40  and  O_41
REMARK   20  A    between atoms: C_43  and  CA_45
REMARK   21  A    between atoms: CA_45  and  CB_47
REMARK   22  A    between atoms: CA_45  and  N_57
REMARK   23  A    between atoms: CB_47  and  CG_48
REMARK   24  A    between atoms: C_58  and  CA_60
REMARK   25  A    between atoms: CA_60  and  CB_62
REMARK   26  A    between atoms: CA_60  and  N_68
REMARK   27  A    between atoms: CB_62  and  CG_63
REMARK   28  A    between atoms: C_69  and  CA_71
REMARK   29  A    between atoms: N_80  and  C_81
REMARK   30  A    between atoms: C_81  and  C_83
REMARK   31  A    between atoms: C_81  and  C_90
REMARK   32  A    between atoms: C_83  and  C_84
REMARK   33  A    between atoms: C_84  and  C_85
REMARK   34  A    between atoms: C_85  and  N_86
REMARK   35  A    between atoms: C_96  and  C_98
REMARK   36  A    between atoms: N_100  and  C_101
REMARK   37  A    between atoms: C_101  and  C_102
REMARK                            x       y       z     vdW  Elec       q    Type
REMARK                         _______ _______ _______ _____ _____    ______ ____
ROOT
ATOM      1  N   UNL     1       3.559   0.844  28.213  0.00  0.00    -0.302 N 
ATOM      2  H   UNL     1       4.218   0.875  27.426  0.00  0.00    +0.150 HD
ATOM      3  C   UNL     1       3.985   1.628  29.268  0.00  0.00    +0.234 C 
ATOM      4  O   UNL     1       3.161   2.179  30.005  0.00  0.00    -0.274 OA
ENDROOT
BRANCH   3   5
ATOM      5  C   UNL     1       5.534   1.689  29.618  0.00  0.00    +0.163 C 
BRANCH   5   6
ATOM      6  N   UNL     1       6.663   1.150  28.798  0.00  0.00    -0.302 N 
ATOM      7  H   UNL     1       7.366   1.833  28.520  0.00  0.00    +0.150 HD
ATOM      8  C   UNL     1       6.797  -0.101  28.244  0.00  0.00    +0.236 C 
ATOM      9  O   UNL     1       5.876  -0.917  28.285  0.00  0.00    -0.274 OA
BRANCH   8  10
ATOM     10  CA  UNL     1       8.174  -0.469  27.555  0.00  0.00    +0.184 C 
BRANCH  10  11
ATOM     11  N   UNL     1       8.034  -1.386  26.405  0.00  0.00    -0.301 N 
ATOM     12  H   UNL     1       8.549  -2.258  26.443  0.00  0.00    +0.150 HD
ATOM     13  C   UNL     1       7.245  -1.061  25.304  0.00  0.00    +0.234 C 
ATOM     14  O   UNL     1       6.694   0.038  25.218  0.00  0.00    -0.274 OA
BRANCH  13  15
ATOM     15  CA  UNL     1       6.947  -2.216  24.299  0.00  0.00    +0.163 C 
BRANCH  15  16
ATOM     16  N   UNL     1       6.146  -3.301  24.938  0.00  0.00    -0.302 N 
ATOM     17  H   UNL     1       6.687  -4.094  25.251  0.00  0.00    +0.150 HD
ATOM     18  C   UNL     1       4.957  -3.089  25.612  0.00  0.00    +0.234 C 
ATOM     19  O   UNL     1       4.459  -1.962  25.685  0.00  0.00    -0.274 OA
BRANCH  18  20
ATOM     20  CA  UNL     1       4.390  -4.264  26.478  0.00  0.00    +0.165 C 
BRANCH  20  21
ATOM     21  N   UNL     1       3.052  -4.628  25.991  0.00  0.00    -0.302 N 
ATOM     22  H   UNL     1       2.275  -4.562  26.641  0.00  0.00    +0.150 HD
ATOM     23  C   UNL     1       2.888  -5.177  24.747  0.00  0.00    +0.234 C 
ATOM     24  O   UNL     1       3.770  -5.101  23.890  0.00  0.00    -0.274 OA
BRANCH  23  25
ATOM     25  CA  UNL     1       1.660  -6.074  24.525  0.00  0.00    +0.159 C 
ATOM     26  N   UNL     1       1.077  -6.196  23.212  0.00  0.00    -0.304 N 
ATOM     27  H   UNL     1       0.374  -5.564  22.846  0.00  0.00    +0.149 HD
ATOM     28  C   UNL     1       1.089  -7.503  22.764  0.00  0.00    +0.214 C 
ATOM     29  O   UNL     1       0.444  -7.936  21.828  0.00  0.00    -0.276 OA
ATOM     30  C   UNL     1       2.042  -8.274  23.629  0.00  0.00    +0.098 C 
ATOM     31  C   UNL     1       1.951  -7.513  24.945  0.00  0.00    +0.041 C 
ENDBRANCH  23  25
ENDBRANCH  20  21
BRANCH  20  32
ATOM     32  CB  UNL     1       5.258  -5.452  26.927  0.00  0.00    +0.088 C 
BRANCH  32  33
ATOM     33  CG  UNL     1       5.377  -5.824  28.370  0.00  0.00    +0.061 A 
ATOM     34  ND1 UNL     1       5.743  -4.940  29.350  0.00  0.00    -0.241 NA
ATOM     35  CE1 UNL     1       5.605  -5.590  30.485  0.00  0.00    +0.196 A 
ATOM     36  NE2 UNL     1       5.210  -6.879  30.286  0.00  0.00    -0.351 N 
ATOM     37  HE2 UNL     1       5.028  -7.568  31.008  0.00  0.00    +0.166 HD
ATOM     38  CD2 UNL     1       5.069  -7.051  28.938  0.00  0.00    +0.107 A 
ENDBRANCH  32  33
ENDBRANCH  20  32
ENDBRANCH  18  20
ENDBRANCH  15  16
BRANCH  15  39
ATOM     39  CB  UNL     1       6.459  -1.690  22.938  0.00  0.00    +0.069 C 
BRANCH  39  40
ATOM     40  CG  UNL     1       6.247  -2.769  21.916  0.00  0.00    -0.020 A 
ATOM     41  CD2 UNL     1       6.613  -4.144  22.064  0.00  0.00    +0.003 A 
ATOM     42  CE3 UNL     1       7.250  -4.875  23.079  0.00  0.00    +0.010 A 
ATOM     43  CZ3 UNL     1       7.421  -6.251  22.951  0.00  0.00    +0.001 A 
ATOM     44  CH2 UNL     1       6.946  -6.910  21.824  0.00  0.00    +0.002 A 
ATOM     45  CZ2 UNL     1       6.321  -6.210  20.785  0.00  0.00    +0.026 A 
ATOM     46  CE2 UNL     1       6.172  -4.823  20.931  0.00  0.00    +0.047 A 
ATOM     47  NE1 UNL     1       5.596  -3.892  20.099  0.00  0.00    -0.360 N 
ATOM     48  HE1 UNL     1       5.184  -4.105  19.203  0.00  0.00    +0.165 HD
ATOM     49  CD1 UNL     1       5.616  -2.655  20.693  0.00  0.00    +0.087 A 
ENDBRANCH  39  40
ENDBRANCH  15  39
ENDBRANCH  13  15
ENDBRANCH  10  11
BRANCH  10  50
ATOM     50  C   UNL     1       9.031   0.753  27.171  0.00  0.00    +0.187 C 
BRANCH  50  51
ATOM     51  O   UNL     1       9.637   0.555  25.888  0.00  0.00    -0.393 OA
ATOM     52  H   UNL     1       9.016  -0.007  25.387  0.00  0.00    +0.209 HD
ENDBRANCH  50  51
ENDBRANCH  10  50
ENDBRANCH   8  10
ENDBRANCH   5   6
BRANCH   5  53
ATOM     53  C   UNL     1       5.892   2.956  30.485  0.00  0.00    +0.067 C 
BRANCH  53  54
ATOM     54  C   UNL     1       6.373   4.183  29.748  0.00  0.00    -0.045 A 
ATOM     55  C   UNL     1       7.700   4.633  29.876  0.00  0.00    +0.007 A 
ATOM     56  C   UNL     1       8.181   5.656  29.056  0.00  0.00    +0.045 A 
ATOM     57  C   UNL     1       7.331   6.237  28.127  0.00  0.00    +0.117 A 
ATOM     58  C   UNL     1       5.978   5.919  28.104  0.00  0.00    +0.045 A 
ATOM     59  C   UNL     1       5.496   4.905  28.933  0.00  0.00    +0.007 A 
BRANCH  57  60
ATOM     60  O   UNL     1       7.863   7.099  27.214  0.00  0.00    -0.507 OA
ATOM     61  H   UNL     1       7.878   6.638  26.357  0.00  0.00    +0.292 HD
ENDBRANCH  57  60
ENDBRANCH  53  54
ENDBRANCH   5  53
ENDBRANCH   3   5
BRANCH   1  62
ATOM     62  C   UNL     1       2.121   0.823  27.802  0.00  0.00    +0.163 C 
BRANCH  62  65
ATOM     63  N   UNL     1       1.601   3.198  27.184  0.00  0.00    -0.302 N 
ATOM     64  H   UNL     1       1.409   3.391  28.163  0.00  0.00    +0.150 HD
ATOM     65  C   UNL     1       1.866   1.920  26.750  0.00  0.00    +0.234 C 
ATOM     66  O   UNL     1       1.926   1.654  25.551  0.00  0.00    -0.274 OA
BRANCH  63  67
ATOM     67  C   UNL     1       1.380   4.291  26.259  0.00  0.00    +0.159 C 
BRANCH  67  68
ATOM     68  C   UNL     1       2.733   4.733  25.568  0.00  0.00    +0.234 C 
ATOM     69  N   UNL     1       2.581   5.141  24.260  0.00  0.00    -0.302 N 
ATOM     70  H   UNL     1       1.845   4.621  23.817  0.00  0.00    +0.150 HD
ATOM     71  O   UNL     1       3.835   4.632  26.100  0.00  0.00    -0.274 OA
BRANCH  69  72
ATOM     72  C   UNL     1       3.583   5.683  23.318  0.00  0.00    +0.159 C 
BRANCH  72  73
ATOM     73  C   UNL     1       4.875   6.336  23.979  0.00  0.00    +0.237 C 
ATOM     74  N   UNL     1       6.149   5.975  23.545  0.00  0.00    -0.288 N 
ATOM     75  C   UNL     1       6.508   5.536  22.196  0.00  0.00    +0.162 C 
ATOM     76  C   UNL     1       7.828   6.209  21.868  0.00  0.00    +0.033 C 
ATOM     77  C   UNL     1       8.202   7.010  23.110  0.00  0.00    +0.021 C 
ATOM     78  C   UNL     1       7.354   6.435  24.225  0.00  0.00    +0.109 C 
ATOM     79  O   UNL     1       4.734   7.061  24.979  0.00  0.00    -0.274 OA
BRANCH  75  80
ATOM     80  C   UNL     1       6.690   4.004  22.103  0.00  0.00    +0.234 C 
ATOM     81  N   UNL     1       7.973   3.551  21.956  0.00  0.00    -0.305 N 
ATOM     82  H   UNL     1       8.716   4.177  22.219  0.00  0.00    +0.149 HD
ATOM     83  O   UNL     1       5.743   3.228  22.102  0.00  0.00    -0.274 OA
BRANCH  81  84
ATOM     84  C   UNL     1       8.222   2.128  21.835  0.00  0.00    +0.199 C 
BRANCH  84  85
ATOM     85  C   UNL     1       9.357   1.608  22.693  0.00  0.00    +0.228 C 
ATOM     86  O   UNL     1       9.673   2.170  23.740  0.00  0.00    -0.274 OA
ATOM     87  N   UNL     1       9.986   0.457  22.303  0.00  0.00    -0.328 N 
ATOM     88  H   UNL     1      10.862   0.310  22.809  0.00  0.00    +0.145 HD
ATOM     89  H   UNL     1      10.016   0.139  21.350  0.00  0.00    +0.145 HD
ENDBRANCH  84  85
ENDBRANCH  81  84
ENDBRANCH  75  80
ENDBRANCH  72  73
BRANCH  72  90
ATOM     90  C   UNL     1       2.949   6.768  22.410  0.00  0.00    +0.035 C 
BRANCH  90  91
ATOM     91  C   UNL     1       1.621   6.278  21.812  0.00  0.00    +0.039 C 
BRANCH  91  92
ATOM     92  C   UNL     1       1.777   5.263  20.691  0.00  0.00    +0.196 C 
BRANCH  92  93
ATOM     93  N   UNL     1       1.028   4.063  21.029  0.00  0.00    -0.276 N 
ATOM     94  H   UNL     1       0.020   4.147  20.939  0.00  0.00    +0.258 HD
ATOM     95  C   UNL     1       1.504   2.814  21.201  0.00  0.00    +0.376 C 
ATOM     96  N   UNL     1       0.794   1.754  21.348  0.00  0.00    -0.130 NA
ATOM     97  H   UNL     1      -0.212   1.981  21.301  0.00  0.00    +0.306 HD
ATOM     98  N   UNL     1       2.832   2.639  21.163  0.00  0.00    -0.289 N 
ATOM     99  H   UNL     1       3.020   1.667  21.400  0.00  0.00    +0.255 HD
ATOM    100  H   UNL     1       3.317   3.238  21.814  0.00  0.00    +0.255 HD
ENDBRANCH  92  93
ENDBRANCH  91  92
ENDBRANCH  90  91
ENDBRANCH  72  90
ENDBRANCH  69  72
ENDBRANCH  67  68
BRANCH  67 101
ATOM    101  C   UNL     1       0.443   5.368  26.866  0.00  0.00    +0.034 C 
BRANCH 101 103
ATOM    102  C   UNL     1       0.791   5.250  29.330  0.00  0.00    +0.007 C 
ATOM    103  C   UNL     1       0.783   6.204  28.117  0.00  0.00    -0.015 C 
ATOM    104  C   UNL     1       2.122   6.928  28.108  0.00  0.00    +0.007 C 
ENDBRANCH 101 103
ENDBRANCH  67 101
ENDBRANCH  63  67
ENDBRANCH  62  65
BRANCH  62 105
ATOM    105  C   UNL     1       1.432  -0.556  27.522  0.00  0.00    +0.069 C 
BRANCH 105 106
ATOM    106  C   UNL     1       1.766  -1.723  28.432  0.00  0.00    -0.020 A 
ATOM    107  C   UNL     1       1.374  -3.130  28.402  0.00  0.00    +0.003 A 
ATOM    108  C   UNL     1       2.096  -3.771  29.417  0.00  0.00    +0.047 A 
ATOM    109  C   UNL     1       2.098  -5.158  29.628  0.00  0.00    +0.026 A 
ATOM    110  C   UNL     1       1.253  -5.939  28.847  0.00  0.00    +0.002 A 
ATOM    111  C   UNL     1       0.448  -5.345  27.882  0.00  0.00    +0.001 A 
ATOM    112  N   UNL     1       2.746  -2.794  30.128  0.00  0.00    -0.360 N 
ATOM    113  H   UNL     1       3.296  -2.969  30.956  0.00  0.00    +0.165 HD
ATOM    114  C   UNL     1       0.516  -3.955  27.629  0.00  0.00    +0.010 A 
ATOM    115  C   UNL     1       2.486  -1.567  29.600  0.00  0.00    +0.087 A 
ENDBRANCH 105 106
ENDBRANCH  62 105
ENDBRANCH   1  62
TORSDOF 35
ENDMDL
