MODEL 1
REMARK VINA RESULT:      -5.9      0.000      0.000
REMARK  Name = 
REMARK  8 active torsions:
REMARK  status: ('A' for Active; 'I' for Inactive)
REMARK    1  A    between atoms: C_1  and  C_2
REMARK    2  A    between atoms: C_2  and  C_3
REMARK    3  A    between atoms: C_3  and  C_4
REMARK    4  A    between atoms: C_4  and  C_5
REMARK    5  A    between atoms: C_5  and  C_6
REMARK    6  A    between atoms: C_6  and  N_7
REMARK    7  A    between atoms: C_8  and  O_9
REMARK    8  A    between atoms: C_14  and  O_15
REMARK                            x       y       z     vdW  Elec       q    Type
REMARK                         _______ _______ _______ _____ _____    ______ ____
ROOT
ATOM      1  N   UNL     1       9.285  -1.943  22.624  0.00  0.00    -0.234 NA
ATOM      2  C   UNL     1       8.253  -2.668  22.857  0.00  0.00    +0.299 C 
ATOM      3  N   UNL     1       8.173  -3.480  23.982  0.00  0.00    -0.219 N 
ATOM      4  C   UNL     1       6.920  -3.824  24.552  0.00  0.00    +0.360 A 
ATOM      5  O   UNL     1       5.853  -3.384  24.130  0.00  0.00    -0.244 OA
ATOM      6  N   UNL     1       6.900  -4.629  25.680  0.00  0.00    -0.155 NA
ATOM      7  C   UNL     1       8.020  -4.987  26.187  0.00  0.00    +0.255 A 
ATOM      8  C   UNL     1       9.340  -4.662  25.676  0.00  0.00    +0.201 A 
ATOM      9  F   UNL     1      10.426  -5.149  26.295  0.00  0.00    -0.198 F 
ATOM     10  C   UNL     1       9.356  -3.907  24.585  0.00  0.00    +0.144 A 
ENDROOT
BRANCH   7  11
ATOM     11  O   UNL     1       8.040  -5.739  27.303  0.00  0.00    -0.490 OA
ATOM     12  H   UNL     1       8.897  -6.168  27.457  0.00  0.00    +0.294 HD
ENDBRANCH   7  11
BRANCH   2  13
ATOM     13  O   UNL     1       7.205  -2.735  22.017  0.00  0.00    -0.479 OA
ATOM     14  H   UNL     1       6.472  -2.171  22.289  0.00  0.00    +0.295 HD
ENDBRANCH   2  13
BRANCH   1  15
ATOM     15  C   UNL     1       9.324  -1.034  21.488  0.00  0.00    +0.147 C 
BRANCH  15  16
ATOM     16  C   UNL     1       8.848   0.348  21.939  0.00  0.00    +0.023 C 
BRANCH  16  17
ATOM     17  C   UNL     1      10.015   1.326  22.075  0.00  0.00    +0.002 C 
BRANCH  17  18
ATOM     18  C   UNL     1      10.165   1.839  23.506  0.00  0.00    -0.000 C 
BRANCH  18  20
ATOM     19  C   UNL     1      10.010   0.116  25.339  0.00  0.00    +0.004 C 
ATOM     20  C   UNL     1      10.929   0.827  24.359  0.00  0.00    -0.003 C 
ENDBRANCH  18  20
ENDBRANCH  17  18
ENDBRANCH  16  17
ENDBRANCH  15  16
ENDBRANCH   1  15
TORSDOF 7
ENDMDL
MODEL 2
REMARK VINA RESULT:      -5.7      2.069      2.310
REMARK  Name = 
REMARK  8 active torsions:
REMARK  status: ('A' for Active; 'I' for Inactive)
REMARK    1  A    between atoms: C_1  and  C_2
REMARK    2  A    between atoms: C_2  and  C_3
REMARK    3  A    between atoms: C_3  and  C_4
REMARK    4  A    between atoms: C_4  and  C_5
REMARK    5  A    between atoms: C_5  and  C_6
REMARK    6  A    between atoms: C_6  and  N_7
REMARK    7  A    between atoms: C_8  and  O_9
REMARK    8  A    between atoms: C_14  and  O_15
REMARK                            x       y       z     vdW  Elec       q    Type
REMARK                         _______ _______ _______ _____ _____    ______ ____
ROOT
ATOM      1  N   UNL     1       8.323  -1.802  23.174  0.00  0.00    -0.234 NA
ATOM      2  C   UNL     1       9.062  -2.581  23.877  0.00  0.00    +0.299 C 
ATOM      3  N   UNL     1       8.553  -3.283  24.963  0.00  0.00    -0.219 N 
ATOM      4  C   UNL     1       9.131  -4.509  25.381  0.00  0.00    +0.360 A 
ATOM      5  O   UNL     1      10.060  -5.046  24.783  0.00  0.00    -0.244 OA
ATOM      6  N   UNL     1       8.577  -5.171  26.465  0.00  0.00    -0.155 NA
ATOM      7  C   UNL     1       7.534  -4.669  27.012  0.00  0.00    +0.255 A 
ATOM      8  C   UNL     1       6.873  -3.432  26.631  0.00  0.00    +0.201 A 
ATOM      9  F   UNL     1       5.809  -3.010  27.332  0.00  0.00    -0.198 F 
ATOM     10  C   UNL     1       7.417  -2.791  25.606  0.00  0.00    +0.144 A 
ENDROOT
BRANCH   7  11
ATOM     11  O   UNL     1       6.947  -5.304  28.043  0.00  0.00    -0.490 OA
ATOM     12  H   UNL     1       5.978  -5.311  27.982  0.00  0.00    +0.294 HD
ENDBRANCH   7  11
BRANCH   2  13
ATOM     13  O   UNL     1      10.378  -2.736  23.649  0.00  0.00    -0.479 OA
ATOM     14  H   UNL     1      10.881  -1.928  23.798  0.00  0.00    +0.295 HD
ENDBRANCH   2  13
BRANCH   1  15
ATOM     15  C   UNL     1       8.845  -1.137  21.989  0.00  0.00    +0.147 C 
BRANCH  15  16
ATOM     16  C   UNL     1       8.605   0.368  22.117  0.00  0.00    +0.023 C 
BRANCH  16  17
ATOM     17  C   UNL     1       9.877   1.165  21.828  0.00  0.00    +0.002 C 
BRANCH  17  18
ATOM     18  C   UNL     1      10.205   2.142  22.956  0.00  0.00    -0.000 C 
BRANCH  18  20
ATOM     19  C   UNL     1      10.955   0.595  24.799  0.00  0.00    +0.004 C 
ATOM     20  C   UNL     1       9.859   1.529  24.311  0.00  0.00    -0.003 C 
ENDBRANCH  18  20
ENDBRANCH  17  18
ENDBRANCH  16  17
ENDBRANCH  15  16
ENDBRANCH   1  15
TORSDOF 7
ENDMDL
MODEL 3
REMARK VINA RESULT:      -5.7      2.561      3.797
REMARK  Name = 
REMARK  8 active torsions:
REMARK  status: ('A' for Active; 'I' for Inactive)
REMARK    1  A    between atoms: C_1  and  C_2
REMARK    2  A    between atoms: C_2  and  C_3
REMARK    3  A    between atoms: C_3  and  C_4
REMARK    4  A    between atoms: C_4  and  C_5
REMARK    5  A    between atoms: C_5  and  C_6
REMARK    6  A    between atoms: C_6  and  N_7
REMARK    7  A    between atoms: C_8  and  O_9
REMARK    8  A    between atoms: C_14  and  O_15
REMARK                            x       y       z     vdW  Elec       q    Type
REMARK                         _______ _______ _______ _____ _____    ______ ____
ROOT
ATOM      1  N   UNL     1       8.692  -1.266  24.592  0.00  0.00    -0.234 NA
ATOM      2  C   UNL     1       8.539  -2.519  24.821  0.00  0.00    +0.299 C 
ATOM      3  N   UNL     1       7.939  -3.362  23.891  0.00  0.00    -0.219 N 
ATOM      4  C   UNL     1       8.250  -4.745  23.847  0.00  0.00    +0.360 A 
ATOM      5  O   UNL     1       9.095  -5.262  24.572  0.00  0.00    -0.244 OA
ATOM      6  N   UNL     1       7.629  -5.535  22.892  0.00  0.00    -0.155 NA
ATOM      7  C   UNL     1       6.838  -4.970  22.059  0.00  0.00    +0.255 A 
ATOM      8  C   UNL     1       6.485  -3.561  22.028  0.00  0.00    +0.201 A 
ATOM      9  F   UNL     1       5.602  -3.122  21.117  0.00  0.00    -0.198 F 
ATOM     10  C   UNL     1       7.066  -2.810  22.955  0.00  0.00    +0.144 A 
ENDROOT
BRANCH   7  11
ATOM     11  O   UNL     1       6.246  -5.700  21.096  0.00  0.00    -0.490 OA
ATOM     12  H   UNL     1       6.731  -5.684  20.255  0.00  0.00    +0.294 HD
ENDBRANCH   7  11
BRANCH   2  13
ATOM     13  O   UNL     1       8.895  -3.096  25.982  0.00  0.00    -0.479 OA
ATOM     14  H   UNL     1       8.420  -2.737  26.740  0.00  0.00    +0.295 HD
ENDBRANCH   2  13
BRANCH   1  15
ATOM     15  C   UNL     1       9.395  -0.411  25.536  0.00  0.00    +0.147 C 
BRANCH  15  16
ATOM     16  C   UNL     1      10.475   0.374  24.789  0.00  0.00    +0.023 C 
BRANCH  16  17
ATOM     17  C   UNL     1       9.916   1.665  24.190  0.00  0.00    +0.002 C 
BRANCH  17  18
ATOM     18  C   UNL     1      10.213   1.777  22.696  0.00  0.00    -0.000 C 
BRANCH  18  20
ATOM     19  C   UNL     1       9.400  -0.155  21.295  0.00  0.00    +0.004 C 
ATOM     20  C   UNL     1       9.056   1.207  21.878  0.00  0.00    -0.003 C 
ENDBRANCH  18  20
ENDBRANCH  17  18
ENDBRANCH  16  17
ENDBRANCH  15  16
ENDBRANCH   1  15
TORSDOF 7
ENDMDL
MODEL 4
REMARK VINA RESULT:      -5.6      2.367      2.901
REMARK  Name = 
REMARK  8 active torsions:
REMARK  status: ('A' for Active; 'I' for Inactive)
REMARK    1  A    between atoms: C_1  and  C_2
REMARK    2  A    between atoms: C_2  and  C_3
REMARK    3  A    between atoms: C_3  and  C_4
REMARK    4  A    between atoms: C_4  and  C_5
REMARK    5  A    between atoms: C_5  and  C_6
REMARK    6  A    between atoms: C_6  and  N_7
REMARK    7  A    between atoms: C_8  and  O_9
REMARK    8  A    between atoms: C_14  and  O_15
REMARK                            x       y       z     vdW  Elec       q    Type
REMARK                         _______ _______ _______ _____ _____    ______ ____
ROOT
ATOM      1  N   UNL     1       8.733  -1.450  21.948  0.00  0.00    -0.234 NA
ATOM      2  C   UNL     1       8.899  -2.138  23.018  0.00  0.00    +0.299 C 
ATOM      3  N   UNL     1       8.001  -3.131  23.392  0.00  0.00    -0.219 N 
ATOM      4  C   UNL     1       8.413  -4.232  24.187  0.00  0.00    +0.360 A 
ATOM      5  O   UNL     1       9.578  -4.403  24.535  0.00  0.00    -0.244 OA
ATOM      6  N   UNL     1       7.478  -5.198  24.521  0.00  0.00    -0.155 NA
ATOM      7  C   UNL     1       6.291  -5.078  24.056  0.00  0.00    +0.255 A 
ATOM      8  C   UNL     1       5.798  -3.994  23.223  0.00  0.00    +0.201 A 
ATOM      9  F   UNL     1       4.510  -3.984  22.847  0.00  0.00    -0.198 F 
ATOM     10  C   UNL     1       6.691  -3.061  22.919  0.00  0.00    +0.144 A 
ENDROOT
BRANCH   7  11
ATOM     11  O   UNL     1       5.366  -6.016  24.330  0.00  0.00    -0.490 OA
ATOM     12  H   UNL     1       5.682  -6.690  24.954  0.00  0.00    +0.294 HD
ENDBRANCH   7  11
BRANCH   2  13
ATOM     13  O   UNL     1       9.913  -1.919  23.874  0.00  0.00    -0.479 OA
ATOM     14  H   UNL     1       9.862  -2.472  24.662  0.00  0.00    +0.295 HD
ENDBRANCH   2  13
BRANCH   1  15
ATOM     15  C   UNL     1       9.723  -0.471  21.523  0.00  0.00    +0.147 C 
BRANCH  15  16
ATOM     16  C   UNL     1       9.113   0.928  21.624  0.00  0.00    +0.023 C 
BRANCH  16  17
ATOM     17  C   UNL     1      10.091   1.921  22.252  0.00  0.00    +0.002 C 
BRANCH  17  18
ATOM     18  C   UNL     1      10.440   1.545  23.691  0.00  0.00    -0.000 C 
BRANCH  18  20
ATOM     19  C   UNL     1       8.793   3.190  24.658  0.00  0.00    +0.004 C 
ATOM     20  C   UNL     1       9.228   1.734  24.602  0.00  0.00    -0.003 C 
ENDBRANCH  18  20
ENDBRANCH  17  18
ENDBRANCH  16  17
ENDBRANCH  15  16
ENDBRANCH   1  15
TORSDOF 7
ENDMDL
MODEL 5
REMARK VINA RESULT:      -5.5      2.573      3.829
REMARK  Name = 
REMARK  8 active torsions:
REMARK  status: ('A' for Active; 'I' for Inactive)
REMARK    1  A    between atoms: C_1  and  C_2
REMARK    2  A    between atoms: C_2  and  C_3
REMARK    3  A    between atoms: C_3  and  C_4
REMARK    4  A    between atoms: C_4  and  C_5
REMARK    5  A    between atoms: C_5  and  C_6
REMARK    6  A    between atoms: C_6  and  N_7
REMARK    7  A    between atoms: C_8  and  O_9
REMARK    8  A    between atoms: C_14  and  O_15
REMARK                            x       y       z     vdW  Elec       q    Type
REMARK                         _______ _______ _______ _____ _____    ______ ____
ROOT
ATOM      1  N   UNL     1       8.519  -3.906  24.254  0.00  0.00    -0.234 NA
ATOM      2  C   UNL     1       7.986  -4.156  25.394  0.00  0.00    +0.299 C 
ATOM      3  N   UNL     1       6.912  -5.030  25.520  0.00  0.00    -0.219 N 
ATOM      4  C   UNL     1       6.680  -5.739  26.726  0.00  0.00    +0.360 A 
ATOM      5  O   UNL     1       7.434  -5.672  27.693  0.00  0.00    -0.244 OA
ATOM      6  N   UNL     1       5.600  -6.604  26.792  0.00  0.00    -0.155 NA
ATOM      7  C   UNL     1       4.885  -6.762  25.741  0.00  0.00    +0.255 A 
ATOM      8  C   UNL     1       5.069  -6.089  24.467  0.00  0.00    +0.201 A 
ATOM      9  F   UNL     1       4.208  -6.326  23.465  0.00  0.00    -0.198 F 
ATOM     10  C   UNL     1       6.093  -5.247  24.412  0.00  0.00    +0.144 A 
ENDROOT
BRANCH   7  11
ATOM     11  O   UNL     1       3.850  -7.621  25.757  0.00  0.00    -0.490 OA
ATOM     12  H   UNL     1       3.005  -7.194  25.974  0.00  0.00    +0.294 HD
ENDBRANCH   7  11
BRANCH   2  13
ATOM     13  O   UNL     1       8.387  -3.561  26.531  0.00  0.00    -0.479 OA
ATOM     14  H   UNL     1       9.078  -4.055  26.988  0.00  0.00    +0.295 HD
ENDBRANCH   2  13
BRANCH   1  15
ATOM     15  C   UNL     1       9.695  -3.056  24.145  0.00  0.00    +0.147 C 
BRANCH  15  16
ATOM     16  C   UNL     1       9.259  -1.659  23.699  0.00  0.00    +0.023 C 
BRANCH  16  17
ATOM     17  C   UNL     1       8.837  -1.645  22.230  0.00  0.00    +0.002 C 
BRANCH  17  18
ATOM     18  C   UNL     1       9.578  -0.572  21.434  0.00  0.00    -0.000 C 
BRANCH  18  20
ATOM     19  C   UNL     1      10.002   1.848  21.998  0.00  0.00    +0.004 C 
ATOM     20  C   UNL     1       8.949   0.800  21.675  0.00  0.00    -0.003 C 
ENDBRANCH  18  20
ENDBRANCH  17  18
ENDBRANCH  16  17
ENDBRANCH  15  16
ENDBRANCH   1  15
TORSDOF 7
ENDMDL
MODEL 6
REMARK VINA RESULT:      -5.5      2.520      3.181
REMARK  Name = 
REMARK  8 active torsions:
REMARK  status: ('A' for Active; 'I' for Inactive)
REMARK    1  A    between atoms: C_1  and  C_2
REMARK    2  A    between atoms: C_2  and  C_3
REMARK    3  A    between atoms: C_3  and  C_4
REMARK    4  A    between atoms: C_4  and  C_5
REMARK    5  A    between atoms: C_5  and  C_6
REMARK    6  A    between atoms: C_6  and  N_7
REMARK    7  A    between atoms: C_8  and  O_9
REMARK    8  A    between atoms: C_14  and  O_15
REMARK                            x       y       z     vdW  Elec       q    Type
REMARK                         _______ _______ _______ _____ _____    ______ ____
ROOT
ATOM      1  N   UNL     1       7.260  -2.081  24.455  0.00  0.00    -0.234 NA
ATOM      2  C   UNL     1       7.062  -2.824  23.428  0.00  0.00    +0.299 C 
ATOM      3  N   UNL     1       6.377  -4.030  23.522  0.00  0.00    -0.219 N 
ATOM      4  C   UNL     1       5.673  -4.563  22.412  0.00  0.00    +0.360 A 
ATOM      5  O   UNL     1       5.578  -3.974  21.338  0.00  0.00    -0.244 OA
ATOM      6  N   UNL     1       4.999  -5.764  22.566  0.00  0.00    -0.155 NA
ATOM      7  C   UNL     1       5.001  -6.316  23.721  0.00  0.00    +0.255 A 
ATOM      8  C   UNL     1       5.680  -5.824  24.908  0.00  0.00    +0.201 A 
ATOM      9  F   UNL     1       5.626  -6.540  26.043  0.00  0.00    -0.198 F 
ATOM     10  C   UNL     1       6.340  -4.684  24.753  0.00  0.00    +0.144 A 
ENDROOT
BRANCH   7  11
ATOM     11  O   UNL     1       4.327  -7.464  23.917  0.00  0.00    -0.490 OA
ATOM     12  H   UNL     1       3.546  -7.354  24.485  0.00  0.00    +0.294 HD
ENDBRANCH   7  11
BRANCH   2  13
ATOM     13  O   UNL     1       7.540  -2.522  22.208  0.00  0.00    -0.479 OA
ATOM     14  H   UNL     1       6.893  -2.663  21.507  0.00  0.00    +0.295 HD
ENDBRANCH   2  13
BRANCH   1  15
ATOM     15  C   UNL     1       7.905  -0.783  24.330  0.00  0.00    +0.147 C 
BRANCH  15  16
ATOM     16  C   UNL     1       9.344  -0.891  24.838  0.00  0.00    +0.023 C 
BRANCH  16  17
ATOM     17  C   UNL     1      10.336  -0.285  23.846  0.00  0.00    +0.002 C 
BRANCH  17  18
ATOM     18  C   UNL     1      10.886   1.054  24.335  0.00  0.00    -0.000 C 
BRANCH  18  20
ATOM     19  C   UNL     1       9.971   1.678  22.071  0.00  0.00    +0.004 C 
ATOM     20  C   UNL     1      10.402   2.190  23.436  0.00  0.00    -0.003 C 
ENDBRANCH  18  20
ENDBRANCH  17  18
ENDBRANCH  16  17
ENDBRANCH  15  16
ENDBRANCH   1  15
TORSDOF 7
ENDMDL
MODEL 7
REMARK VINA RESULT:      -5.4      3.278      4.736
REMARK  Name = 
REMARK  8 active torsions:
REMARK  status: ('A' for Active; 'I' for Inactive)
REMARK    1  A    between atoms: C_1  and  C_2
REMARK    2  A    between atoms: C_2  and  C_3
REMARK    3  A    between atoms: C_3  and  C_4
REMARK    4  A    between atoms: C_4  and  C_5
REMARK    5  A    between atoms: C_5  and  C_6
REMARK    6  A    between atoms: C_6  and  N_7
REMARK    7  A    between atoms: C_8  and  O_9
REMARK    8  A    between atoms: C_14  and  O_15
REMARK                            x       y       z     vdW  Elec       q    Type
REMARK                         _______ _______ _______ _____ _____    ______ ____
ROOT
ATOM      1  N   UNL     1       8.174   2.552  23.282  0.00  0.00    -0.234 NA
ATOM      2  C   UNL     1       8.891   1.768  22.562  0.00  0.00    +0.299 C 
ATOM      3  N   UNL     1       9.165   0.463  22.956  0.00  0.00    -0.219 N 
ATOM      4  C   UNL     1       9.435  -0.551  22.002  0.00  0.00    +0.360 A 
ATOM      5  O   UNL     1       9.384  -0.355  20.790  0.00  0.00    -0.244 OA
ATOM      6  N   UNL     1       9.692  -1.836  22.451  0.00  0.00    -0.155 NA
ATOM      7  C   UNL     1       9.625  -2.062  23.710  0.00  0.00    +0.255 A 
ATOM      8  C   UNL     1       9.337  -1.084  24.745  0.00  0.00    +0.201 A 
ATOM      9  F   UNL     1       9.346  -1.465  26.032  0.00  0.00    -0.198 F 
ATOM     10  C   UNL     1       9.110   0.149  24.314  0.00  0.00    +0.144 A 
ENDROOT
BRANCH   7  11
ATOM     11  O   UNL     1       9.833  -3.305  24.179  0.00  0.00    -0.490 OA
ATOM     12  H   UNL     1      10.050  -3.944  23.480  0.00  0.00    +0.294 HD
ENDBRANCH   7  11
BRANCH   2  13
ATOM     13  O   UNL     1       9.464   2.160  21.411  0.00  0.00    -0.479 OA
ATOM     14  H   UNL     1      10.363   2.488  21.533  0.00  0.00    +0.295 HD
ENDBRANCH   2  13
BRANCH   1  15
ATOM     15  C   UNL     1       7.825   3.887  22.821  0.00  0.00    +0.147 C 
BRANCH  15  16
ATOM     16  C   UNL     1       8.216   4.903  23.895  0.00  0.00    +0.023 C 
BRANCH  16  17
ATOM     17  C   UNL     1       9.713   4.848  24.200  0.00  0.00    +0.002 C 
BRANCH  17  18
ATOM     18  C   UNL     1      10.420   6.149  23.823  0.00  0.00    -0.000 C 
BRANCH  18  20
ATOM     19  C   UNL     1      12.535   4.926  23.201  0.00  0.00    +0.004 C 
ATOM     20  C   UNL     1      11.925   6.025  24.056  0.00  0.00    -0.003 C 
ENDBRANCH  18  20
ENDBRANCH  17  18
ENDBRANCH  16  17
ENDBRANCH  15  16
ENDBRANCH   1  15
TORSDOF 7
ENDMDL
MODEL 8
REMARK VINA RESULT:      -5.3      3.496      6.504
REMARK  Name = 
REMARK  8 active torsions:
REMARK  status: ('A' for Active; 'I' for Inactive)
REMARK    1  A    between atoms: C_1  and  C_2
REMARK    2  A    between atoms: C_2  and  C_3
REMARK    3  A    between atoms: C_3  and  C_4
REMARK    4  A    between atoms: C_4  and  C_5
REMARK    5  A    between atoms: C_5  and  C_6
REMARK    6  A    between atoms: C_6  and  N_7
REMARK    7  A    between atoms: C_8  and  O_9
REMARK    8  A    between atoms: C_14  and  O_15
REMARK                            x       y       z     vdW  Elec       q    Type
REMARK                         _______ _______ _______ _____ _____    ______ ____
ROOT
ATOM      1  N   UNL     1       6.980  -2.008  23.985  0.00  0.00    -0.234 NA
ATOM      2  C   UNL     1       8.179  -1.656  24.274  0.00  0.00    +0.299 C 
ATOM      3  N   UNL     1       8.806  -0.600  23.622  0.00  0.00    -0.219 N 
ATOM      4  C   UNL     1       9.831   0.149  24.254  0.00  0.00    +0.360 A 
ATOM      5  O   UNL     1      10.179  -0.046  25.416  0.00  0.00    -0.244 OA
ATOM      6  N   UNL     1      10.414   1.197  23.559  0.00  0.00    -0.155 NA
ATOM      7  C   UNL     1       9.965   1.474  22.392  0.00  0.00    +0.255 A 
ATOM      8  C   UNL     1       8.909   0.768  21.687  0.00  0.00    +0.201 A 
ATOM      9  F   UNL     1       8.577   1.150  20.444  0.00  0.00    -0.198 F 
ATOM     10  C   UNL     1       8.366  -0.247  22.346  0.00  0.00    +0.144 A 
ENDROOT
BRANCH   7  11
ATOM     11  O   UNL     1      10.482   2.507  21.704  0.00  0.00    -0.490 OA
ATOM     12  H   UNL     1       9.824   3.189  21.491  0.00  0.00    +0.294 HD
ENDBRANCH   7  11
BRANCH   2  13
ATOM     13  O   UNL     1       8.929  -2.305  25.182  0.00  0.00    -0.479 OA
ATOM     14  H   UNL     1       9.571  -2.901  24.779  0.00  0.00    +0.295 HD
ENDBRANCH   2  13
BRANCH   1  15
ATOM     15  C   UNL     1       6.304  -3.059  24.732  0.00  0.00    +0.147 C 
BRANCH  15  16
ATOM     16  C   UNL     1       5.003  -3.420  24.015  0.00  0.00    +0.023 C 
BRANCH  16  17
ATOM     17  C   UNL     1       5.153  -4.698  23.190  0.00  0.00    +0.002 C 
BRANCH  17  18
ATOM     18  C   UNL     1       6.463  -5.423  23.494  0.00  0.00    -0.000 C 
BRANCH  18  20
ATOM     19  C   UNL     1       6.232  -5.674  20.997  0.00  0.00    +0.004 C 
ATOM     20  C   UNL     1       7.146  -5.857  22.198  0.00  0.00    -0.003 C 
ENDBRANCH  18  20
ENDBRANCH  17  18
ENDBRANCH  16  17
ENDBRANCH  15  16
ENDBRANCH   1  15
TORSDOF 7
ENDMDL
MODEL 9
REMARK VINA RESULT:      -5.1      1.724      2.370
REMARK  Name = 
REMARK  8 active torsions:
REMARK  status: ('A' for Active; 'I' for Inactive)
REMARK    1  A    between atoms: C_1  and  C_2
REMARK    2  A    between atoms: C_2  and  C_3
REMARK    3  A    between atoms: C_3  and  C_4
REMARK    4  A    between atoms: C_4  and  C_5
REMARK    5  A    between atoms: C_5  and  C_6
REMARK    6  A    between atoms: C_6  and  N_7
REMARK    7  A    between atoms: C_8  and  O_9
REMARK    8  A    between atoms: C_14  and  O_15
REMARK                            x       y       z     vdW  Elec       q    Type
REMARK                         _______ _______ _______ _____ _____    ______ ____
ROOT
ATOM      1  N   UNL     1       9.828  -1.273  24.125  0.00  0.00    -0.234 NA
ATOM      2  C   UNL     1       9.141  -2.113  23.440  0.00  0.00    +0.299 C 
ATOM      3  N   UNL     1       8.448  -3.154  24.046  0.00  0.00    -0.219 N 
ATOM      4  C   UNL     1       7.291  -3.714  23.446  0.00  0.00    +0.360 A 
ATOM      5  O   UNL     1       6.806  -3.281  22.404  0.00  0.00    -0.244 OA
ATOM      6  N   UNL     1       6.634  -4.744  24.100  0.00  0.00    -0.155 NA
ATOM      7  C   UNL     1       7.074  -5.112  25.245  0.00  0.00    +0.255 A 
ATOM      8  C   UNL     1       8.237  -4.577  25.933  0.00  0.00    +0.201 A 
ATOM      9  F   UNL     1       8.602  -5.098  27.114  0.00  0.00    -0.198 F 
ATOM     10  C   UNL     1       8.875  -3.604  25.295  0.00  0.00    +0.144 A 
ENDROOT
BRANCH   7  11
ATOM     11  O   UNL     1       6.440  -6.084  25.926  0.00  0.00    -0.490 OA
ATOM     12  H   UNL     1       5.584  -5.799  26.285  0.00  0.00    +0.294 HD
ENDBRANCH   7  11
BRANCH   2  13
ATOM     13  O   UNL     1       9.082  -2.080  22.097  0.00  0.00    -0.479 OA
ATOM     14  H   UNL     1       9.138  -2.957  21.699  0.00  0.00    +0.295 HD
ENDBRANCH   2  13
BRANCH   1  15
ATOM     15  C   UNL     1      10.481  -0.139  23.488  0.00  0.00    +0.147 C 
BRANCH  15  16
ATOM     16  C   UNL     1      10.620   0.992  24.509  0.00  0.00    +0.023 C 
BRANCH  16  17
ATOM     17  C   UNL     1      10.024   2.298  23.983  0.00  0.00    +0.002 C 
BRANCH  17  18
ATOM     18  C   UNL     1      11.003   3.050  23.082  0.00  0.00    -0.000 C 
BRANCH  18  20
ATOM     19  C   UNL     1      12.612   4.988  23.160  0.00  0.00    +0.004 C 
ATOM     20  C   UNL     1      11.274   4.447  23.638  0.00  0.00    -0.003 C 
ENDBRANCH  18  20
ENDBRANCH  17  18
ENDBRANCH  16  17
ENDBRANCH  15  16
ENDBRANCH   1  15
TORSDOF 7
ENDMDL
