MODEL 1
REMARK VINA RESULT:      -5.8      0.000      0.000
REMARK  Name = 
REMARK  6 active torsions:
REMARK  status: ('A' for Active; 'I' for Inactive)
REMARK    1  A    between atoms: C_1  and  C_2
REMARK    2  A    between atoms: C_2  and  C_20
REMARK    3  A    between atoms: C_8  and  O_10
REMARK    4  A    between atoms: C_11  and  O_13
REMARK    5  A    between atoms: C_14  and  O_16
REMARK    6  A    between atoms: C_20  and  O_21
REMARK                            x       y       z     vdW  Elec       q    Type
REMARK                         _______ _______ _______ _____ _____    ______ ____
ROOT
ATOM      1  C   UNL     1      10.820   3.045  23.361  0.00  0.00    +0.087 C 
ATOM      2  C   UNL     1       9.709   2.003  23.516  0.00  0.00    +0.268 C 
ATOM      3  O   UNL     1      10.327   0.735  23.248  0.00  0.00    -0.331 OA
ATOM      4  C   UNL     1       9.443  -0.355  23.537  0.00  0.00    +0.184 C 
ATOM      5  C   UNL     1       8.997  -0.308  24.996  0.00  0.00    +0.178 C 
ATOM      6  O   UNL     1       8.088  -1.367  25.294  0.00  0.00    -0.341 OA
ATOM      7  C   UNL     1       8.691  -2.645  25.104  0.00  0.00    +0.279 C 
ATOM      8  C   UNL     1       9.209  -2.848  23.664  0.00  0.00    +0.201 C 
ATOM      9  C   UNL     1       8.360   1.059  25.227  0.00  0.00    +0.198 C 
ATOM     10  C   UNL     1      10.143  -1.692  23.274  0.00  0.00    +0.179 C 
ATOM     11  O   UNL     1       9.280   2.090  24.871  0.00  0.00    -0.337 OA
ENDROOT
BRANCH   2  12
ATOM     12  C   UNL     1       8.643   2.362  22.419  0.00  0.00    +0.365 C 
ATOM     13  O   UNL     1       7.560   2.893  22.628  0.00  0.00    -0.245 OA
BRANCH  12  14
ATOM     14  O   UNL     1       9.047   2.001  21.170  0.00  0.00    -0.477 OA
ATOM     15  H   UNL     1       9.679   1.245  21.205  0.00  0.00    +0.295 HD
ENDBRANCH  12  14
ENDBRANCH   2  12
BRANCH   7  16
ATOM     16  O   UNL     1       7.691  -3.614  25.369  0.00  0.00    -0.365 OA
ATOM     17  H   UNL     1       7.231  -3.696  24.514  0.00  0.00    +0.213 HD
ENDBRANCH   7  16
BRANCH   8  18
ATOM     18  O   UNL     1       8.103  -2.897  22.743  0.00  0.00    -0.384 OA
ATOM     19  H   UNL     1       7.609  -3.712  22.954  0.00  0.00    +0.210 HD
ENDBRANCH   8  18
BRANCH  10  20
ATOM     20  O   UNL     1      10.535  -1.755  21.895  0.00  0.00    -0.386 OA
ATOM     21  H   UNL     1       9.907  -1.220  21.378  0.00  0.00    +0.210 HD
ENDBRANCH  10  20
TORSDOF 5
ENDMDL
MODEL 2
REMARK VINA RESULT:      -5.7      1.914      3.733
REMARK  Name = 
REMARK  6 active torsions:
REMARK  status: ('A' for Active; 'I' for Inactive)
REMARK    1  A    between atoms: C_1  and  C_2
REMARK    2  A    between atoms: C_2  and  C_20
REMARK    3  A    between atoms: C_8  and  O_10
REMARK    4  A    between atoms: C_11  and  O_13
REMARK    5  A    between atoms: C_14  and  O_16
REMARK    6  A    between atoms: C_20  and  O_21
REMARK                            x       y       z     vdW  Elec       q    Type
REMARK                         _______ _______ _______ _____ _____    ______ ____
ROOT
ATOM      1  C   UNL     1       7.862   0.882  23.042  0.00  0.00    +0.087 C 
ATOM      2  C   UNL     1       8.726  -0.171  23.742  0.00  0.00    +0.268 C 
ATOM      3  O   UNL     1       7.802  -1.071  24.375  0.00  0.00    -0.331 OA
ATOM      4  C   UNL     1       8.470  -2.216  24.919  0.00  0.00    +0.184 C 
ATOM      5  C   UNL     1       9.231  -2.960  23.823  0.00  0.00    +0.178 C 
ATOM      6  O   UNL     1       9.931  -4.086  24.352  0.00  0.00    -0.341 OA
ATOM      7  C   UNL     1       9.038  -5.035  24.929  0.00  0.00    +0.279 C 
ATOM      8  C   UNL     1       8.179  -4.429  26.061  0.00  0.00    +0.201 C 
ATOM      9  C   UNL     1      10.184  -1.958  23.179  0.00  0.00    +0.198 C 
ATOM     10  C   UNL     1       7.455  -3.171  25.555  0.00  0.00    +0.179 C 
ATOM     11  O   UNL     1       9.455  -0.826  22.710  0.00  0.00    -0.337 OA
ENDROOT
BRANCH   2  12
ATOM     12  C   UNL     1       9.571   0.621  24.803  0.00  0.00    +0.365 C 
ATOM     13  O   UNL     1      10.794   0.654  24.856  0.00  0.00    -0.245 OA
BRANCH  12  14
ATOM     14  O   UNL     1       8.786   1.279  25.701  0.00  0.00    -0.477 OA
ATOM     15  H   UNL     1       8.134   1.860  25.244  0.00  0.00    +0.295 HD
ENDBRANCH  12  14
ENDBRANCH   2  12
BRANCH   7  16
ATOM     16  O   UNL     1       9.836  -6.073  25.470  0.00  0.00    -0.365 OA
ATOM     17  H   UNL     1       9.327  -6.876  25.257  0.00  0.00    +0.213 HD
ENDBRANCH   7  16
BRANCH   8  18
ATOM     18  O   UNL     1       9.014  -4.079  27.181  0.00  0.00    -0.384 OA
ATOM     19  H   UNL     1       8.437  -4.105  27.968  0.00  0.00    +0.210 HD
ENDBRANCH   8  18
BRANCH  10  20
ATOM     20  O   UNL     1       6.762  -2.487  26.608  0.00  0.00    -0.386 OA
ATOM     21  H   UNL     1       5.970  -3.005  26.837  0.00  0.00    +0.210 HD
ENDBRANCH  10  20
TORSDOF 5
ENDMDL
MODEL 3
REMARK VINA RESULT:      -5.7      2.371      3.540
REMARK  Name = 
REMARK  6 active torsions:
REMARK  status: ('A' for Active; 'I' for Inactive)
REMARK    1  A    between atoms: C_1  and  C_2
REMARK    2  A    between atoms: C_2  and  C_20
REMARK    3  A    between atoms: C_8  and  O_10
REMARK    4  A    between atoms: C_11  and  O_13
REMARK    5  A    between atoms: C_14  and  O_16
REMARK    6  A    between atoms: C_20  and  O_21
REMARK                            x       y       z     vdW  Elec       q    Type
REMARK                         _______ _______ _______ _____ _____    ______ ____
ROOT
ATOM      1  C   UNL     1      10.087  -0.104  24.811  0.00  0.00    +0.087 C 
ATOM      2  C   UNL     1       9.147  -0.786  23.812  0.00  0.00    +0.268 C 
ATOM      3  O   UNL     1       8.937  -2.112  24.323  0.00  0.00    -0.331 OA
ATOM      4  C   UNL     1       7.927  -2.809  23.582  0.00  0.00    +0.184 C 
ATOM      5  C   UNL     1       6.610  -2.037  23.620  0.00  0.00    +0.178 C 
ATOM      6  O   UNL     1       5.600  -2.699  22.859  0.00  0.00    -0.341 OA
ATOM      7  C   UNL     1       5.316  -3.995  23.379  0.00  0.00    +0.279 C 
ATOM      8  C   UNL     1       6.563  -4.906  23.417  0.00  0.00    +0.201 C 
ATOM      9  C   UNL     1       6.894  -0.639  23.080  0.00  0.00    +0.198 C 
ATOM     10  C   UNL     1       7.702  -4.205  24.173  0.00  0.00    +0.179 C 
ATOM     11  O   UNL     1       7.941  -0.031  23.833  0.00  0.00    -0.337 OA
ENDROOT
BRANCH   2  12
ATOM     12  C   UNL     1       9.933  -0.816  22.452  0.00  0.00    +0.365 C 
ATOM     13  O   UNL     1       9.792  -0.021  21.533  0.00  0.00    -0.245 OA
BRANCH  12  14
ATOM     14  O   UNL     1      10.809  -1.857  22.385  0.00  0.00    -0.477 OA
ATOM     15  H   UNL     1      10.957  -2.255  23.275  0.00  0.00    +0.295 HD
ENDBRANCH  12  14
ENDBRANCH   2  12
BRANCH   7  16
ATOM     16  O   UNL     1       4.352  -4.579  22.521  0.00  0.00    -0.365 OA
ATOM     17  H   UNL     1       3.543  -4.074  22.721  0.00  0.00    +0.213 HD
ENDBRANCH   7  16
BRANCH   8  18
ATOM     18  O   UNL     1       6.995  -5.207  22.077  0.00  0.00    -0.384 OA
ATOM     19  H   UNL     1       7.966  -5.290  22.117  0.00  0.00    +0.210 HD
ENDBRANCH   8  18
BRANCH  10  20
ATOM     20  O   UNL     1       8.929  -4.946  24.109  0.00  0.00    -0.386 OA
ATOM     21  H   UNL     1       9.555  -4.447  23.554  0.00  0.00    +0.210 HD
ENDBRANCH  10  20
TORSDOF 5
ENDMDL
MODEL 4
REMARK VINA RESULT:      -5.6      1.551      5.147
REMARK  Name = 
REMARK  6 active torsions:
REMARK  status: ('A' for Active; 'I' for Inactive)
REMARK    1  A    between atoms: C_1  and  C_2
REMARK    2  A    between atoms: C_2  and  C_20
REMARK    3  A    between atoms: C_8  and  O_10
REMARK    4  A    between atoms: C_11  and  O_13
REMARK    5  A    between atoms: C_14  and  O_16
REMARK    6  A    between atoms: C_20  and  O_21
REMARK                            x       y       z     vdW  Elec       q    Type
REMARK                         _______ _______ _______ _____ _____    ______ ____
ROOT
ATOM      1  C   UNL     1       9.150  -4.431  24.997  0.00  0.00    +0.087 C 
ATOM      2  C   UNL     1       8.593  -3.129  24.416  0.00  0.00    +0.268 C 
ATOM      3  O   UNL     1       9.608  -2.138  24.641  0.00  0.00    -0.331 OA
ATOM      4  C   UNL     1       9.297  -0.905  23.982  0.00  0.00    +0.184 C 
ATOM      5  C   UNL     1       9.133  -1.129  22.480  0.00  0.00    +0.178 C 
ATOM      6  O   UNL     1       8.790   0.084  21.810  0.00  0.00    -0.341 OA
ATOM      7  C   UNL     1       9.808   1.070  21.955  0.00  0.00    +0.279 C 
ATOM      8  C   UNL     1      10.102   1.406  23.434  0.00  0.00    +0.201 C 
ATOM      9  C   UNL     1       8.056  -2.194  22.300  0.00  0.00    +0.198 C 
ATOM     10  C   UNL     1      10.414   0.118  24.212  0.00  0.00    +0.179 C 
ATOM     11  O   UNL     1       8.410  -3.371  23.025  0.00  0.00    -0.337 OA
ENDROOT
BRANCH   2  12
ATOM     12  C   UNL     1       7.298  -2.820  25.249  0.00  0.00    +0.365 C 
ATOM     13  O   UNL     1       6.149  -2.928  24.843  0.00  0.00    -0.245 OA
BRANCH  12  14
ATOM     14  O   UNL     1       7.586  -2.391  26.510  0.00  0.00    -0.477 OA
ATOM     15  H   UNL     1       6.998  -2.820  27.175  0.00  0.00    +0.295 HD
ENDBRANCH  12  14
ENDBRANCH   2  12
BRANCH   7  16
ATOM     16  O   UNL     1       9.341   2.241  21.308  0.00  0.00    -0.365 OA
ATOM     17  H   UNL     1       8.990   1.901  20.464  0.00  0.00    +0.213 HD
ENDBRANCH   7  16
BRANCH   8  18
ATOM     18  O   UNL     1       8.964   2.057  24.029  0.00  0.00    -0.384 OA
ATOM     19  H   UNL     1       8.616   1.439  24.698  0.00  0.00    +0.210 HD
ENDBRANCH   8  18
BRANCH  10  20
ATOM     20  O   UNL     1      10.549   0.358  25.621  0.00  0.00    -0.386 OA
ATOM     21  H   UNL     1      11.435   0.060  25.895  0.00  0.00    +0.210 HD
ENDBRANCH  10  20
TORSDOF 5
ENDMDL
MODEL 5
REMARK VINA RESULT:      -5.6      1.780      5.289
REMARK  Name = 
REMARK  6 active torsions:
REMARK  status: ('A' for Active; 'I' for Inactive)
REMARK    1  A    between atoms: C_1  and  C_2
REMARK    2  A    between atoms: C_2  and  C_20
REMARK    3  A    between atoms: C_8  and  O_10
REMARK    4  A    between atoms: C_11  and  O_13
REMARK    5  A    between atoms: C_14  and  O_16
REMARK    6  A    between atoms: C_20  and  O_21
REMARK                            x       y       z     vdW  Elec       q    Type
REMARK                         _______ _______ _______ _____ _____    ______ ____
ROOT
ATOM      1  C   UNL     1       7.536  -5.266  23.765  0.00  0.00    +0.087 C 
ATOM      2  C   UNL     1       8.097  -4.060  24.523  0.00  0.00    +0.268 C 
ATOM      3  O   UNL     1       8.668  -3.204  23.520  0.00  0.00    -0.331 OA
ATOM      4  C   UNL     1       9.071  -1.944  24.070  0.00  0.00    +0.184 C 
ATOM      5  C   UNL     1       7.881  -1.240  24.719  0.00  0.00    +0.178 C 
ATOM      6  O   UNL     1       8.270   0.004  25.302  0.00  0.00    -0.341 OA
ATOM      7  C   UNL     1       8.779   0.906  24.323  0.00  0.00    +0.279 C 
ATOM      8  C   UNL     1       9.994   0.331  23.563  0.00  0.00    +0.201 C 
ATOM      9  C   UNL     1       7.309  -2.195  25.762  0.00  0.00    +0.198 C 
ATOM     10  C   UNL     1       9.642  -1.042  22.971  0.00  0.00    +0.179 C 
ATOM     11  O   UNL     1       6.980  -3.441  25.152  0.00  0.00    -0.337 OA
ENDROOT
BRANCH   2  12
ATOM     12  C   UNL     1       9.203  -4.642  25.474  0.00  0.00    +0.365 C 
ATOM     13  O   UNL     1       9.183  -4.599  26.697  0.00  0.00    -0.245 OA
BRANCH  12  14
ATOM     14  O   UNL     1      10.232  -5.208  24.783  0.00  0.00    -0.477 OA
ATOM     15  H   UNL     1       9.961  -6.066  24.380  0.00  0.00    +0.295 HD
ENDBRANCH  12  14
ENDBRANCH   2  12
BRANCH   7  16
ATOM     16  O   UNL     1       9.186   2.074  25.015  0.00  0.00    -0.365 OA
ATOM     17  H   UNL     1       8.449   2.692  24.856  0.00  0.00    +0.213 HD
ENDBRANCH   7  16
BRANCH   8  18
ATOM     18  O   UNL     1      11.115   0.191  24.456  0.00  0.00    -0.384 OA
ATOM     19  H   UNL     1      11.002  -0.670  24.900  0.00  0.00    +0.210 HD
ENDBRANCH   8  18
BRANCH  10  20
ATOM     20  O   UNL     1      10.781  -1.684  22.381  0.00  0.00    -0.386 OA
ATOM     21  H   UNL     1      11.516  -1.045  22.367  0.00  0.00    +0.210 HD
ENDBRANCH  10  20
TORSDOF 5
ENDMDL
MODEL 6
REMARK VINA RESULT:      -5.5      1.577      4.982
REMARK  Name = 
REMARK  6 active torsions:
REMARK  status: ('A' for Active; 'I' for Inactive)
REMARK    1  A    between atoms: C_1  and  C_2
REMARK    2  A    between atoms: C_2  and  C_20
REMARK    3  A    between atoms: C_8  and  O_10
REMARK    4  A    between atoms: C_11  and  O_13
REMARK    5  A    between atoms: C_14  and  O_16
REMARK    6  A    between atoms: C_20  and  O_21
REMARK                            x       y       z     vdW  Elec       q    Type
REMARK                         _______ _______ _______ _____ _____    ______ ____
ROOT
ATOM      1  C   UNL     1       8.563  -2.415  25.024  0.00  0.00    +0.087 C 
ATOM      2  C   UNL     1       9.137  -1.225  24.249  0.00  0.00    +0.268 C 
ATOM      3  O   UNL     1       8.047  -0.302  24.095  0.00  0.00    -0.331 OA
ATOM      4  C   UNL     1       8.487   0.945  23.544  0.00  0.00    +0.184 C 
ATOM      5  C   UNL     1       9.560   1.572  24.432  0.00  0.00    +0.178 C 
ATOM      6  O   UNL     1      10.035   2.800  23.882  0.00  0.00    -0.341 OA
ATOM      7  C   UNL     1       8.992   3.767  23.776  0.00  0.00    +0.279 C 
ATOM      8  C   UNL     1       7.814   3.275  22.908  0.00  0.00    +0.201 C 
ATOM      9  C   UNL     1      10.682   0.548  24.571  0.00  0.00    +0.198 C 
ATOM     10  C   UNL     1       7.310   1.919  23.425  0.00  0.00    +0.179 C 
ATOM     11  O   UNL     1      10.159  -0.680  25.075  0.00  0.00    -0.337 OA
ENDROOT
BRANCH   2  12
ATOM     12  C   UNL     1       9.591  -1.810  22.864  0.00  0.00    +0.365 C 
ATOM     13  O   UNL     1      10.746  -1.875  22.465  0.00  0.00    -0.245 OA
BRANCH  12  14
ATOM     14  O   UNL     1       8.538  -2.240  22.115  0.00  0.00    -0.477 OA
ATOM     15  H   UNL     1       8.828  -2.499  21.209  0.00  0.00    +0.295 HD
ENDBRANCH  12  14
ENDBRANCH   2  12
BRANCH   7  16
ATOM     16  O   UNL     1       9.557   4.915  23.169  0.00  0.00    -0.365 OA
ATOM     17  H   UNL     1       8.839   5.572  23.228  0.00  0.00    +0.213 HD
ENDBRANCH   7  16
BRANCH   8  18
ATOM     18  O   UNL     1       8.235   3.136  21.537  0.00  0.00    -0.384 OA
ATOM     19  H   UNL     1       9.185   2.917  21.566  0.00  0.00    +0.210 HD
ENDBRANCH   8  18
BRANCH  10  20
ATOM     20  O   UNL     1       6.314   1.349  22.563  0.00  0.00    -0.386 OA
ATOM     21  H   UNL     1       5.935   2.065  22.023  0.00  0.00    +0.210 HD
ENDBRANCH  10  20
TORSDOF 5
ENDMDL
MODEL 7
REMARK VINA RESULT:      -5.5      2.091      2.969
REMARK  Name = 
REMARK  6 active torsions:
REMARK  status: ('A' for Active; 'I' for Inactive)
REMARK    1  A    between atoms: C_1  and  C_2
REMARK    2  A    between atoms: C_2  and  C_20
REMARK    3  A    between atoms: C_8  and  O_10
REMARK    4  A    between atoms: C_11  and  O_13
REMARK    5  A    between atoms: C_14  and  O_16
REMARK    6  A    between atoms: C_20  and  O_21
REMARK                            x       y       z     vdW  Elec       q    Type
REMARK                         _______ _______ _______ _____ _____    ______ ____
ROOT
ATOM      1  C   UNL     1       9.105   0.476  21.384  0.00  0.00    +0.087 C 
ATOM      2  C   UNL     1       8.762  -0.316  22.649  0.00  0.00    +0.268 C 
ATOM      3  O   UNL     1       8.312  -1.601  22.190  0.00  0.00    -0.331 OA
ATOM      4  C   UNL     1       8.128  -2.515  23.278  0.00  0.00    +0.184 C 
ATOM      5  C   UNL     1       9.430  -2.683  24.058  0.00  0.00    +0.178 C 
ATOM      6  O   UNL     1       9.259  -3.565  25.167  0.00  0.00    -0.341 OA
ATOM      7  C   UNL     1       8.877  -4.872  24.745  0.00  0.00    +0.279 C 
ATOM      8  C   UNL     1       7.569  -4.872  23.925  0.00  0.00    +0.201 C 
ATOM      9  C   UNL     1       9.867  -1.293  24.509  0.00  0.00    +0.198 C 
ATOM     10  C   UNL     1       7.683  -3.884  22.753  0.00  0.00    +0.179 C 
ATOM     11  O   UNL     1       9.977  -0.429  23.380  0.00  0.00    -0.337 OA
ENDROOT
BRANCH   2  12
ATOM     12  C   UNL     1       7.599   0.483  23.340  0.00  0.00    +0.365 C 
ATOM     13  O   UNL     1       7.701   1.138  24.369  0.00  0.00    -0.245 OA
BRANCH  12  14
ATOM     14  O   UNL     1       6.420   0.362  22.669  0.00  0.00    -0.477 OA
ATOM     15  H   UNL     1       6.311  -0.546  22.302  0.00  0.00    +0.295 HD
ENDBRANCH  12  14
ENDBRANCH   2  12
BRANCH   7  16
ATOM     16  O   UNL     1       8.679  -5.641  25.918  0.00  0.00    -0.365 OA
ATOM     17  H   UNL     1       8.158  -6.400  25.599  0.00  0.00    +0.213 HD
ENDBRANCH   7  16
BRANCH   8  18
ATOM     18  O   UNL     1       6.461  -4.490  24.763  0.00  0.00    -0.384 OA
ATOM     19  H   UNL     1       5.673  -4.491  24.188  0.00  0.00    +0.210 HD
ENDBRANCH   8  18
BRANCH  10  20
ATOM     20  O   UNL     1       6.442  -3.736  22.049  0.00  0.00    -0.386 OA
ATOM     21  H   UNL     1       6.434  -4.374  21.313  0.00  0.00    +0.210 HD
ENDBRANCH  10  20
TORSDOF 5
ENDMDL
MODEL 8
REMARK VINA RESULT:      -5.5      1.524      4.836
REMARK  Name = 
REMARK  6 active torsions:
REMARK  status: ('A' for Active; 'I' for Inactive)
REMARK    1  A    between atoms: C_1  and  C_2
REMARK    2  A    between atoms: C_2  and  C_20
REMARK    3  A    between atoms: C_8  and  O_10
REMARK    4  A    between atoms: C_11  and  O_13
REMARK    5  A    between atoms: C_14  and  O_16
REMARK    6  A    between atoms: C_20  and  O_21
REMARK                            x       y       z     vdW  Elec       q    Type
REMARK                         _______ _______ _______ _____ _____    ______ ____
ROOT
ATOM      1  C   UNL     1       7.591  -2.977  22.520  0.00  0.00    +0.087 C 
ATOM      2  C   UNL     1       8.343  -1.835  23.210  0.00  0.00    +0.268 C 
ATOM      3  O   UNL     1       8.055  -0.659  22.437  0.00  0.00    -0.331 OA
ATOM      4  C   UNL     1       8.547   0.525  23.076  0.00  0.00    +0.184 C 
ATOM      5  C   UNL     1       7.939   0.673  24.469  0.00  0.00    +0.178 C 
ATOM      6  O   UNL     1       8.443   1.830  25.134  0.00  0.00    -0.341 OA
ATOM      7  C   UNL     1       8.117   3.025  24.429  0.00  0.00    +0.279 C 
ATOM      8  C   UNL     1       8.659   3.028  22.983  0.00  0.00    +0.201 C 
ATOM      9  C   UNL     1       8.264  -0.604  25.238  0.00  0.00    +0.198 C 
ATOM     10  C   UNL     1       8.194   1.763  22.245  0.00  0.00    +0.179 C 
ATOM     11  O   UNL     1       7.789  -1.739  24.518  0.00  0.00    -0.337 OA
ENDROOT
BRANCH   2  12
ATOM     12  C   UNL     1       9.863  -2.220  23.119  0.00  0.00    +0.365 C 
ATOM     13  O   UNL     1      10.656  -1.791  22.291  0.00  0.00    -0.245 OA
BRANCH  12  14
ATOM     14  O   UNL     1      10.226  -3.121  24.074  0.00  0.00    -0.477 OA
ATOM     15  H   UNL     1       9.771  -3.985  23.939  0.00  0.00    +0.295 HD
ENDBRANCH  12  14
ENDBRANCH   2  12
BRANCH   7  16
ATOM     16  O   UNL     1       8.711   4.097  25.140  0.00  0.00    -0.365 OA
ATOM     17  H   UNL     1       8.394   4.884  24.661  0.00  0.00    +0.213 HD
ENDBRANCH   7  16
BRANCH   8  18
ATOM     18  O   UNL     1      10.099   3.070  22.995  0.00  0.00    -0.384 OA
ATOM     19  H   UNL     1      10.343   3.873  23.492  0.00  0.00    +0.210 HD
ENDBRANCH   8  18
BRANCH  10  20
ATOM     20  O   UNL     1       8.792   1.645  20.946  0.00  0.00    -0.386 OA
ATOM     21  H   UNL     1       9.693   1.293  21.059  0.00  0.00    +0.210 HD
ENDBRANCH  10  20
TORSDOF 5
ENDMDL
MODEL 9
REMARK VINA RESULT:      -5.4      1.858      3.312
REMARK  Name = 
REMARK  6 active torsions:
REMARK  status: ('A' for Active; 'I' for Inactive)
REMARK    1  A    between atoms: C_1  and  C_2
REMARK    2  A    between atoms: C_2  and  C_20
REMARK    3  A    between atoms: C_8  and  O_10
REMARK    4  A    between atoms: C_11  and  O_13
REMARK    5  A    between atoms: C_14  and  O_16
REMARK    6  A    between atoms: C_20  and  O_21
REMARK                            x       y       z     vdW  Elec       q    Type
REMARK                         _______ _______ _______ _____ _____    ______ ____
ROOT
ATOM      1  C   UNL     1       9.835   1.620  22.087  0.00  0.00    +0.087 C 
ATOM      2  C   UNL     1       9.627   0.406  22.997  0.00  0.00    +0.268 C 
ATOM      3  O   UNL     1       8.215   0.142  22.972  0.00  0.00    -0.331 OA
ATOM      4  C   UNL     1       7.896  -1.086  23.638  0.00  0.00    +0.184 C 
ATOM      5  C   UNL     1       8.641  -2.253  22.992  0.00  0.00    +0.178 C 
ATOM      6  O   UNL     1       8.362  -3.481  23.663  0.00  0.00    -0.341 OA
ATOM      7  C   UNL     1       6.977  -3.811  23.600  0.00  0.00    +0.279 C 
ATOM      8  C   UNL     1       6.078  -2.714  24.211  0.00  0.00    +0.201 C 
ATOM      9  C   UNL     1      10.128  -1.914  23.035  0.00  0.00    +0.198 C 
ATOM     10  C   UNL     1       6.390  -1.357  23.563  0.00  0.00    +0.179 C 
ATOM     11  O   UNL     1      10.359  -0.658  22.400  0.00  0.00    -0.337 OA
ENDROOT
BRANCH   2  12
ATOM     12  C   UNL     1      10.096   0.867  24.423  0.00  0.00    +0.365 C 
ATOM     13  O   UNL     1      11.125   0.511  24.981  0.00  0.00    -0.245 OA
BRANCH  12  14
ATOM     14  O   UNL     1       9.210   1.720  25.008  0.00  0.00    -0.477 OA
ATOM     15  H   UNL     1       8.368   1.764  24.496  0.00  0.00    +0.295 HD
ENDBRANCH  12  14
ENDBRANCH   2  12
BRANCH   7  16
ATOM     16  O   UNL     1       6.806  -5.006  24.341  0.00  0.00    -0.365 OA
ATOM     17  H   UNL     1       7.206  -5.682  23.765  0.00  0.00    +0.213 HD
ENDBRANCH   7  16
BRANCH   8  18
ATOM     18  O   UNL     1       6.302  -2.626  25.631  0.00  0.00    -0.384 OA
ATOM     19  H   UNL     1       7.049  -2.010  25.750  0.00  0.00    +0.210 HD
ENDBRANCH   8  18
BRANCH  10  20
ATOM     20  O   UNL     1       5.687  -0.280  24.199  0.00  0.00    -0.386 OA
ATOM     21  H   UNL     1       6.345   0.337  24.565  0.00  0.00    +0.210 HD
ENDBRANCH  10  20
TORSDOF 5
ENDMDL
