MODEL 1
REMARK VINA RESULT:      -7.7      0.000      0.000
REMARK  Name = 
REMARK  7 active torsions:
REMARK  status: ('A' for Active; 'I' for Inactive)
REMARK    1  A    between atoms: C_1  and  O_2
REMARK    2  A    between atoms: O_2  and  C_3
REMARK    3  A    between atoms: C_4  and  C_5
REMARK    4  A    between atoms: C_5  and  C_7
REMARK    5  A    between atoms: N_11  and  C_12
REMARK    6  A    between atoms: N_15  and  S_18
REMARK    7  A    between atoms: S_18  and  C_19
REMARK                            x       y       z     vdW  Elec       q    Type
REMARK                         _______ _______ _______ _____ _____    ______ ____
ROOT
ATOM      1  C   UNL     1       9.093  -2.333  24.550  0.00  0.00    +0.080 A 
ATOM      2  C   UNL     1       9.758  -1.500  23.663  0.00  0.00    +0.132 A 
ATOM      3  N   UNL     1      10.588  -1.881  22.628  0.00  0.00    -0.342 N 
ATOM      4  H   UNL     1      11.421  -2.353  22.950  0.00  0.00    +0.144 HD
ATOM      5  H   UNL     1      10.853  -1.025  22.142  0.00  0.00    +0.144 HD
ATOM      6  N   UNL     1       9.709  -0.148  23.695  0.00  0.00    -0.199 NA
ATOM      7  C   UNL     1       9.039   0.449  24.672  0.00  0.00    +0.217 A 
ATOM      8  N   UNL     1       9.253   1.795  24.926  0.00  0.00    -0.310 N 
ATOM      9  H   UNL     1       8.619   2.077  25.662  0.00  0.00    +0.149 HD
ATOM     10  N   UNL     1       8.285  -0.237  25.533  0.00  0.00    -0.222 NA
ATOM     11  C   UNL     1       8.302  -1.602  25.426  0.00  0.00    +0.129 A 
ENDROOT
BRANCH   8  12
ATOM     12  C   UNL     1       9.469   2.734  23.816  0.00  0.00    +0.076 C 
ATOM     13  C   UNL     1       9.841   4.144  24.298  0.00  0.00    +0.039 C 
ATOM     14  C   UNL     1       8.690   4.807  25.038  0.00  0.00    +0.111 C 
ATOM     15  N   UNL     1       7.488   4.901  24.172  0.00  0.00    -0.181 NA
ATOM     16  C   UNL     1       7.056   3.588  23.647  0.00  0.00    +0.111 C 
ATOM     17  C   UNL     1       8.191   2.831  22.959  0.00  0.00    +0.039 C 
BRANCH  15  18
ATOM     18  S   UNL     1       7.337   6.272  23.179  0.00  0.00    +0.029 S 
ATOM     19  O   UNL     1       6.969   5.819  21.856  0.00  0.00    -0.158 OA
ATOM     20  O   UNL     1       8.503   7.108  23.400  0.00  0.00    -0.158 OA
ATOM     21  C   UNL     1       5.948   7.106  23.912  0.00  0.00    +0.215 C 
ENDBRANCH  15  18
ENDBRANCH   8  12
BRANCH   1  22
ATOM     22  C   UNL     1       9.054  -3.847  24.687  0.00  0.00    +0.204 C 
ATOM     23  O   UNL     1      10.118  -4.450  24.539  0.00  0.00    -0.286 OA
BRANCH  22  31
ATOM     24  C   UNL     1       6.980  -5.027  23.708  0.00  0.00    +0.134 A 
ATOM     25  C   UNL     1       5.687  -5.557  23.924  0.00  0.00    +0.049 A 
ATOM     26  C   UNL     1       5.256  -5.867  25.205  0.00  0.00    +0.045 A 
ATOM     27  C   UNL     1       6.152  -5.735  26.247  0.00  0.00    +0.159 A 
ATOM     28  F   UNL     1       5.790  -6.127  27.475  0.00  0.00    -0.202 F 
ATOM     29  C   UNL     1       7.422  -5.201  26.035  0.00  0.00    +0.173 A 
ATOM     30  F   UNL     1       8.307  -5.316  27.029  0.00  0.00    -0.202 F 
ATOM     31  C   UNL     1       7.800  -4.672  24.808  0.00  0.00    +0.102 A 
BRANCH  24  33
ATOM     32  C   UNL     1       6.883  -5.904  21.529  0.00  0.00    +0.277 C 
ATOM     33  O   UNL     1       7.442  -4.913  22.417  0.00  0.00    -0.494 OA
ENDBRANCH  24  33
ENDBRANCH  22  31
ENDBRANCH   1  22
TORSDOF 5
ENDMDL
MODEL 2
REMARK VINA RESULT:      -7.6      2.226      2.984
REMARK  Name = 
REMARK  7 active torsions:
REMARK  status: ('A' for Active; 'I' for Inactive)
REMARK    1  A    between atoms: C_1  and  O_2
REMARK    2  A    between atoms: O_2  and  C_3
REMARK    3  A    between atoms: C_4  and  C_5
REMARK    4  A    between atoms: C_5  and  C_7
REMARK    5  A    between atoms: N_11  and  C_12
REMARK    6  A    between atoms: N_15  and  S_18
REMARK    7  A    between atoms: S_18  and  C_19
REMARK                            x       y       z     vdW  Elec       q    Type
REMARK                         _______ _______ _______ _____ _____    ______ ____
ROOT
ATOM      1  C   UNL     1       7.424  -3.544  23.365  0.00  0.00    +0.080 A 
ATOM      2  C   UNL     1       8.560  -2.827  23.711  0.00  0.00    +0.132 A 
ATOM      3  N   UNL     1       9.722  -3.326  24.262  0.00  0.00    -0.342 N 
ATOM      4  H   UNL     1       9.580  -3.720  25.181  0.00  0.00    +0.144 HD
ATOM      5  H   UNL     1      10.369  -2.542  24.328  0.00  0.00    +0.144 HD
ATOM      6  N   UNL     1       8.691  -1.486  23.579  0.00  0.00    -0.199 NA
ATOM      7  C   UNL     1       7.655  -0.777  23.151  0.00  0.00    +0.217 A 
ATOM      8  N   UNL     1       7.647   0.597  23.331  0.00  0.00    -0.310 N 
ATOM      9  H   UNL     1       6.809   0.963  22.896  0.00  0.00    +0.149 HD
ATOM     10  N   UNL     1       6.539  -1.355  22.702  0.00  0.00    -0.222 NA
ATOM     11  C   UNL     1       6.468  -2.720  22.785  0.00  0.00    +0.129 A 
ENDROOT
BRANCH   8  12
ATOM     12  C   UNL     1       8.886   1.374  23.178  0.00  0.00    +0.076 C 
ATOM     13  C   UNL     1       9.325   2.051  24.485  0.00  0.00    +0.039 C 
ATOM     14  C   UNL     1       8.343   3.128  24.917  0.00  0.00    +0.111 C 
ATOM     15  N   UNL     1       8.201   4.168  23.865  0.00  0.00    -0.181 NA
ATOM     16  C   UNL     1       7.790   3.608  22.559  0.00  0.00    +0.111 C 
ATOM     17  C   UNL     1       8.692   2.462  22.104  0.00  0.00    +0.039 C 
BRANCH  15  18
ATOM     18  S   UNL     1       9.291   5.471  23.894  0.00  0.00    +0.029 S 
ATOM     19  O   UNL     1       8.799   6.476  22.978  0.00  0.00    -0.158 OA
ATOM     20  O   UNL     1      10.632   4.928  23.779  0.00  0.00    -0.158 OA
ATOM     21  C   UNL     1       9.107   6.067  25.560  0.00  0.00    +0.215 C 
ENDBRANCH  15  18
ENDBRANCH   8  12
BRANCH   1  22
ATOM     22  C   UNL     1       7.085  -5.023  23.469  0.00  0.00    +0.204 C 
ATOM     23  O   UNL     1       7.654  -5.784  22.685  0.00  0.00    -0.286 OA
BRANCH  22  31
ATOM     24  C   UNL     1       5.964  -5.517  25.738  0.00  0.00    +0.134 A 
ATOM     25  C   UNL     1       5.063  -6.311  26.484  0.00  0.00    +0.049 A 
ATOM     26  C   UNL     1       4.100  -7.076  25.845  0.00  0.00    +0.045 A 
ATOM     27  C   UNL     1       3.983  -6.968  24.473  0.00  0.00    +0.159 A 
ATOM     28  F   UNL     1       2.993  -7.617  23.848  0.00  0.00    -0.202 F 
ATOM     29  C   UNL     1       4.879  -6.194  23.737  0.00  0.00    +0.173 A 
ATOM     30  F   UNL     1       4.571  -5.950  22.460  0.00  0.00    -0.202 F 
ATOM     31  C   UNL     1       5.988  -5.600  24.324  0.00  0.00    +0.102 A 
BRANCH  24  33
ATOM     32  C   UNL     1       7.976  -5.238  26.923  0.00  0.00    +0.277 C 
ATOM     33  O   UNL     1       6.774  -4.628  26.407  0.00  0.00    -0.494 OA
ENDBRANCH  24  33
ENDBRANCH  22  31
ENDBRANCH   1  22
TORSDOF 5
ENDMDL
MODEL 3
REMARK VINA RESULT:      -7.5      1.859      2.333
REMARK  Name = 
REMARK  7 active torsions:
REMARK  status: ('A' for Active; 'I' for Inactive)
REMARK    1  A    between atoms: C_1  and  O_2
REMARK    2  A    between atoms: O_2  and  C_3
REMARK    3  A    between atoms: C_4  and  C_5
REMARK    4  A    between atoms: C_5  and  C_7
REMARK    5  A    between atoms: N_11  and  C_12
REMARK    6  A    between atoms: N_15  and  S_18
REMARK    7  A    between atoms: S_18  and  C_19
REMARK                            x       y       z     vdW  Elec       q    Type
REMARK                         _______ _______ _______ _____ _____    ______ ____
ROOT
ATOM      1  C   UNL     1       8.915  -2.216  24.232  0.00  0.00    +0.080 A 
ATOM      2  C   UNL     1       9.355  -1.389  23.208  0.00  0.00    +0.132 A 
ATOM      3  N   UNL     1       9.784  -1.774  21.955  0.00  0.00    -0.342 N 
ATOM      4  H   UNL     1      10.625  -2.334  21.986  0.00  0.00    +0.144 HD
ATOM      5  H   UNL     1       9.970  -0.916  21.438  0.00  0.00    +0.144 HD
ATOM      6  N   UNL     1       9.453  -0.043  23.299  0.00  0.00    -0.199 NA
ATOM      7  C   UNL     1       9.177   0.547  24.454  0.00  0.00    +0.217 A 
ATOM      8  N   UNL     1       9.592   1.852  24.672  0.00  0.00    -0.310 N 
ATOM      9  H   UNL     1       9.246   2.141  25.578  0.00  0.00    +0.149 HD
ATOM     10  N   UNL     1       8.661  -0.124  25.485  0.00  0.00    -0.222 NA
ATOM     11  C   UNL     1       8.509  -1.476  25.334  0.00  0.00    +0.129 A 
ENDROOT
BRANCH   8  12
ATOM     12  C   UNL     1       9.547   2.837  23.580  0.00  0.00    +0.076 C 
ATOM     13  C   UNL     1       9.696   4.281  24.081  0.00  0.00    +0.039 C 
ATOM     14  C   UNL     1       8.506   4.709  24.925  0.00  0.00    +0.111 C 
ATOM     15  N   UNL     1       7.242   4.600  24.153  0.00  0.00    -0.181 NA
ATOM     16  C   UNL     1       7.015   3.240  23.618  0.00  0.00    +0.111 C 
ATOM     17  C   UNL     1       8.210   2.716  22.823  0.00  0.00    +0.039 C 
BRANCH  15  18
ATOM     18  S   UNL     1       6.771   5.940  23.220  0.00  0.00    +0.029 S 
ATOM     19  O   UNL     1       7.516   5.896  21.981  0.00  0.00    -0.158 OA
ATOM     20  O   UNL     1       6.793   7.108  24.081  0.00  0.00    -0.158 OA
ATOM     21  C   UNL     1       5.064   5.569  22.882  0.00  0.00    +0.215 C 
ENDBRANCH  15  18
ENDBRANCH   8  12
BRANCH   1  22
ATOM     22  C   UNL     1       8.771  -3.727  24.325  0.00  0.00    +0.204 C 
ATOM     23  O   UNL     1       9.803  -4.380  24.483  0.00  0.00    -0.286 OA
BRANCH  22  31
ATOM     24  C   UNL     1       6.607  -4.910  25.080  0.00  0.00    +0.134 A 
ATOM     25  C   UNL     1       5.592  -5.852  24.795  0.00  0.00    +0.049 A 
ATOM     26  C   UNL     1       5.367  -6.276  23.494  0.00  0.00    +0.045 A 
ATOM     27  C   UNL     1       6.092  -5.684  22.478  0.00  0.00    +0.159 A 
ATOM     28  F   UNL     1       5.817  -6.002  21.207  0.00  0.00    -0.202 F 
ATOM     29  C   UNL     1       7.100  -4.764  22.761  0.00  0.00    +0.173 A 
ATOM     30  F   UNL     1       7.596  -4.066  21.735  0.00  0.00    -0.202 F 
ATOM     31  C   UNL     1       7.500  -4.492  24.063  0.00  0.00    +0.102 A 
BRANCH  24  33
ATOM     32  C   UNL     1       7.187  -5.297  27.325  0.00  0.00    +0.277 C 
ATOM     33  O   UNL     1       6.674  -4.371  26.344  0.00  0.00    -0.494 OA
ENDBRANCH  24  33
ENDBRANCH  22  31
ENDBRANCH   1  22
TORSDOF 5
ENDMDL
MODEL 4
REMARK VINA RESULT:      -7.5      4.646      9.296
REMARK  Name = 
REMARK  7 active torsions:
REMARK  status: ('A' for Active; 'I' for Inactive)
REMARK    1  A    between atoms: C_1  and  O_2
REMARK    2  A    between atoms: O_2  and  C_3
REMARK    3  A    between atoms: C_4  and  C_5
REMARK    4  A    between atoms: C_5  and  C_7
REMARK    5  A    between atoms: N_11  and  C_12
REMARK    6  A    between atoms: N_15  and  S_18
REMARK    7  A    between atoms: S_18  and  C_19
REMARK                            x       y       z     vdW  Elec       q    Type
REMARK                         _______ _______ _______ _____ _____    ______ ____
ROOT
ATOM      1  C   UNL     1       8.964   0.615  23.461  0.00  0.00    +0.080 A 
ATOM      2  C   UNL     1       9.468   0.062  24.630  0.00  0.00    +0.132 A 
ATOM      3  N   UNL     1      10.543   0.513  25.367  0.00  0.00    -0.342 N 
ATOM      4  H   UNL     1      11.414   0.456  24.859  0.00  0.00    +0.144 HD
ATOM      5  H   UNL     1      10.597  -0.083  26.192  0.00  0.00    +0.144 HD
ATOM      6  N   UNL     1       8.977  -1.050  25.226  0.00  0.00    -0.199 NA
ATOM      7  C   UNL     1       7.988  -1.712  24.639  0.00  0.00    +0.217 A 
ATOM      8  N   UNL     1       7.706  -3.010  25.035  0.00  0.00    -0.310 N 
ATOM      9  H   UNL     1       6.896  -3.324  24.515  0.00  0.00    +0.149 HD
ATOM     10  N   UNL     1       7.360  -1.236  23.562  0.00  0.00    -0.222 NA
ATOM     11  C   UNL     1       7.838  -0.071  23.026  0.00  0.00    +0.129 A 
ENDROOT
BRANCH   8  12
ATOM     12  C   UNL     1       7.795  -3.390  26.452  0.00  0.00    +0.076 C 
ATOM     13  C   UNL     1       8.000  -4.900  26.649  0.00  0.00    +0.039 C 
ATOM     14  C   UNL     1       6.785  -5.695  26.196  0.00  0.00    +0.111 C 
ATOM     15  N   UNL     1       5.571  -5.277  26.943  0.00  0.00    -0.181 NA
ATOM     16  C   UNL     1       5.295  -3.829  26.822  0.00  0.00    +0.111 C 
ATOM     17  C   UNL     1       6.506  -2.971  27.187  0.00  0.00    +0.039 C 
BRANCH  15  18
ATOM     18  S   UNL     1       5.246  -6.056  28.418  0.00  0.00    +0.029 S 
ATOM     19  O   UNL     1       5.831  -5.259  29.473  0.00  0.00    -0.158 OA
ATOM     20  O   UNL     1       5.569  -7.461  28.256  0.00  0.00    -0.158 OA
ATOM     21  C   UNL     1       3.474  -5.933  28.515  0.00  0.00    +0.215 C 
ENDBRANCH  15  18
ENDBRANCH   8  12
BRANCH   1  22
ATOM     22  C   UNL     1       9.397   1.820  22.640  0.00  0.00    +0.204 C 
ATOM     23  O   UNL     1       9.841   1.599  21.513  0.00  0.00    -0.286 OA
BRANCH  22  31
ATOM     24  C   UNL     1       8.368   4.057  23.408  0.00  0.00    +0.134 A 
ATOM     25  C   UNL     1       8.536   5.444  23.624  0.00  0.00    +0.049 A 
ATOM     26  C   UNL     1       9.804   5.993  23.733  0.00  0.00    +0.045 A 
ATOM     27  C   UNL     1      10.890   5.140  23.721  0.00  0.00    +0.159 A 
ATOM     28  F   UNL     1      12.115   5.637  23.930  0.00  0.00    -0.202 F 
ATOM     29  C   UNL     1      10.724   3.774  23.496  0.00  0.00    +0.173 A 
ATOM     30  F   UNL     1      11.777   2.984  23.726  0.00  0.00    -0.202 F 
ATOM     31  C   UNL     1       9.492   3.231  23.159  0.00  0.00    +0.102 A 
BRANCH  24  33
ATOM     32  C   UNL     1       6.374   3.585  22.254  0.00  0.00    +0.277 C 
ATOM     33  O   UNL     1       7.103   3.521  23.498  0.00  0.00    -0.494 OA
ENDBRANCH  24  33
ENDBRANCH  22  31
ENDBRANCH   1  22
TORSDOF 5
ENDMDL
MODEL 5
REMARK VINA RESULT:      -7.4      4.646      9.342
REMARK  Name = 
REMARK  7 active torsions:
REMARK  status: ('A' for Active; 'I' for Inactive)
REMARK    1  A    between atoms: C_1  and  O_2
REMARK    2  A    between atoms: O_2  and  C_3
REMARK    3  A    between atoms: C_4  and  C_5
REMARK    4  A    between atoms: C_5  and  C_7
REMARK    5  A    between atoms: N_11  and  C_12
REMARK    6  A    between atoms: N_15  and  S_18
REMARK    7  A    between atoms: S_18  and  C_19
REMARK                            x       y       z     vdW  Elec       q    Type
REMARK                         _______ _______ _______ _____ _____    ______ ____
ROOT
ATOM      1  C   UNL     1       8.906   0.521  23.117  0.00  0.00    +0.080 A 
ATOM      2  C   UNL     1       7.691  -0.145  23.180  0.00  0.00    +0.132 A 
ATOM      3  N   UNL     1       6.491   0.261  22.633  0.00  0.00    -0.342 N 
ATOM      4  H   UNL     1       6.146   1.117  23.043  0.00  0.00    +0.144 HD
ATOM      5  H   UNL     1       5.826  -0.490  22.810  0.00  0.00    +0.144 HD
ATOM      6  N   UNL     1       7.491  -1.316  23.828  0.00  0.00    -0.199 NA
ATOM      7  C   UNL     1       8.492  -1.853  24.512  0.00  0.00    +0.217 A 
ATOM      8  N   UNL     1       8.229  -2.844  25.446  0.00  0.00    -0.310 N 
ATOM      9  H   UNL     1       9.114  -3.161  25.820  0.00  0.00    +0.149 HD
ATOM     10  N   UNL     1       9.731  -1.359  24.458  0.00  0.00    -0.222 NA
ATOM     11  C   UNL     1       9.912  -0.211  23.735  0.00  0.00    +0.129 A 
ENDROOT
BRANCH   8  12
ATOM     12  C   UNL     1       7.199  -3.859  25.180  0.00  0.00    +0.076 C 
ATOM     13  C   UNL     1       5.924  -3.639  26.008  0.00  0.00    +0.039 C 
ATOM     14  C   UNL     1       6.177  -3.843  27.494  0.00  0.00    +0.111 C 
ATOM     15  N   UNL     1       6.688  -5.212  27.760  0.00  0.00    -0.181 NA
ATOM     16  C   UNL     1       7.916  -5.523  26.995  0.00  0.00    +0.111 C 
ATOM     17  C   UNL     1       7.754  -5.261  25.498  0.00  0.00    +0.039 C 
BRANCH  15  18
ATOM     18  S   UNL     1       5.546  -6.444  28.018  0.00  0.00    +0.029 S 
ATOM     19  O   UNL     1       6.085  -7.340  29.016  0.00  0.00    -0.158 OA
ATOM     20  O   UNL     1       5.113  -6.923  26.719  0.00  0.00    -0.158 OA
ATOM     21  C   UNL     1       4.186  -5.541  28.724  0.00  0.00    +0.215 C 
ENDBRANCH  15  18
ENDBRANCH   8  12
BRANCH   1  22
ATOM     22  C   UNL     1       9.309   1.840  22.476  0.00  0.00    +0.204 C 
ATOM     23  O   UNL     1      10.088   1.784  21.523  0.00  0.00    -0.286 OA
BRANCH  22  31
ATOM     24  C   UNL     1       9.896   4.012  23.736  0.00  0.00    +0.134 A 
ATOM     25  C   UNL     1       9.443   5.144  24.451  0.00  0.00    +0.049 A 
ATOM     26  C   UNL     1       8.124   5.560  24.353  0.00  0.00    +0.045 A 
ATOM     27  C   UNL     1       7.293   4.901  23.468  0.00  0.00    +0.159 A 
ATOM     28  F   UNL     1       6.047   5.352  23.280  0.00  0.00    -0.202 F 
ATOM     29  C   UNL     1       7.738   3.778  22.772  0.00  0.00    +0.173 A 
ATOM     30  F   UNL     1       6.970   3.334  21.773  0.00  0.00    -0.202 F 
ATOM     31  C   UNL     1       8.978   3.204  23.021  0.00  0.00    +0.102 A 
BRANCH  24  33
ATOM     32  C   UNL     1      12.037   4.882  23.305  0.00  0.00    +0.277 C 
ATOM     33  O   UNL     1      11.245   3.744  23.705  0.00  0.00    -0.494 OA
ENDBRANCH  24  33
ENDBRANCH  22  31
ENDBRANCH   1  22
TORSDOF 5
ENDMDL
MODEL 6
REMARK VINA RESULT:      -7.3      4.916      9.110
REMARK  Name = 
REMARK  7 active torsions:
REMARK  status: ('A' for Active; 'I' for Inactive)
REMARK    1  A    between atoms: C_1  and  O_2
REMARK    2  A    between atoms: O_2  and  C_3
REMARK    3  A    between atoms: C_4  and  C_5
REMARK    4  A    between atoms: C_5  and  C_7
REMARK    5  A    between atoms: N_11  and  C_12
REMARK    6  A    between atoms: N_15  and  S_18
REMARK    7  A    between atoms: S_18  and  C_19
REMARK                            x       y       z     vdW  Elec       q    Type
REMARK                         _______ _______ _______ _____ _____    ______ ____
ROOT
ATOM      1  C   UNL     1       8.148  -0.783  22.872  0.00  0.00    +0.080 A 
ATOM      2  C   UNL     1       8.762  -1.959  23.276  0.00  0.00    +0.132 A 
ATOM      3  N   UNL     1      10.075  -2.327  23.063  0.00  0.00    -0.342 N 
ATOM      4  H   UNL     1      10.292  -2.444  22.084  0.00  0.00    +0.144 HD
ATOM      5  H   UNL     1      10.206  -3.215  23.545  0.00  0.00    +0.144 HD
ATOM      6  N   UNL     1       8.140  -2.961  23.939  0.00  0.00    -0.199 NA
ATOM      7  C   UNL     1       6.838  -2.866  24.175  0.00  0.00    +0.217 A 
ATOM      8  N   UNL     1       6.123  -3.999  24.533  0.00  0.00    -0.310 N 
ATOM      9  H   UNL     1       5.169  -3.718  24.721  0.00  0.00    +0.149 HD
ATOM     10  N   UNL     1       6.152  -1.751  23.917  0.00  0.00    -0.222 NA
ATOM     11  C   UNL     1       6.831  -0.729  23.310  0.00  0.00    +0.129 A 
ENDROOT
BRANCH   8  12
ATOM     12  C   UNL     1       6.724  -5.005  25.422  0.00  0.00    +0.076 C 
ATOM     13  C   UNL     1       5.782  -6.187  25.698  0.00  0.00    +0.039 C 
ATOM     14  C   UNL     1       4.565  -5.759  26.502  0.00  0.00    +0.111 C 
ATOM     15  N   UNL     1       4.971  -5.159  27.799  0.00  0.00    -0.181 NA
ATOM     16  C   UNL     1       5.892  -4.013  27.636  0.00  0.00    +0.111 C 
ATOM     17  C   UNL     1       7.102  -4.354  26.767  0.00  0.00    +0.039 C 
BRANCH  15  18
ATOM     18  S   UNL     1       5.189  -6.207  29.118  0.00  0.00    +0.029 S 
ATOM     19  O   UNL     1       5.941  -5.494  30.127  0.00  0.00    -0.158 OA
ATOM     20  O   UNL     1       5.637  -7.486  28.598  0.00  0.00    -0.158 OA
ATOM     21  C   UNL     1       3.520  -6.430  29.691  0.00  0.00    +0.215 C 
ENDBRANCH  15  18
ENDBRANCH   8  12
BRANCH   1  22
ATOM     22  C   UNL     1       8.668   0.422  22.103  0.00  0.00    +0.204 C 
ATOM     23  O   UNL     1       9.221   0.201  21.025  0.00  0.00    -0.286 OA
BRANCH  22  31
ATOM     24  C   UNL     1       9.729   2.307  23.506  0.00  0.00    +0.134 A 
ATOM     25  C   UNL     1       9.566   3.540  24.179  0.00  0.00    +0.049 A 
ATOM     26  C   UNL     1       8.487   4.363  23.893  0.00  0.00    +0.045 A 
ATOM     27  C   UNL     1       7.635   3.994  22.871  0.00  0.00    +0.159 A 
ATOM     28  F   UNL     1       6.649   4.825  22.509  0.00  0.00    -0.202 F 
ATOM     29  C   UNL     1       7.790   2.773  22.216  0.00  0.00    +0.173 A 
ATOM     30  F   UNL     1       7.084   2.586  21.098  0.00  0.00    -0.202 F 
ATOM     31  C   UNL     1       8.720   1.830  22.634  0.00  0.00    +0.102 A 
BRANCH  24  33
ATOM     32  C   UNL     1      10.880   0.730  24.816  0.00  0.00    +0.277 C 
ATOM     33  O   UNL     1      10.904   1.612  23.674  0.00  0.00    -0.494 OA
ENDBRANCH  24  33
ENDBRANCH  22  31
ENDBRANCH   1  22
TORSDOF 5
ENDMDL
MODEL 7
REMARK VINA RESULT:      -7.2      4.565      9.287
REMARK  Name = 
REMARK  7 active torsions:
REMARK  status: ('A' for Active; 'I' for Inactive)
REMARK    1  A    between atoms: C_1  and  O_2
REMARK    2  A    between atoms: O_2  and  C_3
REMARK    3  A    between atoms: C_4  and  C_5
REMARK    4  A    between atoms: C_5  and  C_7
REMARK    5  A    between atoms: N_11  and  C_12
REMARK    6  A    between atoms: N_15  and  S_18
REMARK    7  A    between atoms: S_18  and  C_19
REMARK                            x       y       z     vdW  Elec       q    Type
REMARK                         _______ _______ _______ _____ _____    ______ ____
ROOT
ATOM      1  C   UNL     1       8.396   0.650  22.624  0.00  0.00    +0.080 A 
ATOM      2  C   UNL     1       8.510  -0.632  22.107  0.00  0.00    +0.132 A 
ATOM      3  N   UNL     1       9.416  -1.070  21.163  0.00  0.00    -0.342 N 
ATOM      4  H   UNL     1       9.292  -0.622  20.266  0.00  0.00    +0.144 HD
ATOM      5  H   UNL     1       9.264  -2.072  21.061  0.00  0.00    +0.144 HD
ATOM      6  N   UNL     1       7.709  -1.670  22.444  0.00  0.00    -0.199 NA
ATOM      7  C   UNL     1       6.698  -1.459  23.276  0.00  0.00    +0.217 A 
ATOM      8  N   UNL     1       5.680  -2.395  23.366  0.00  0.00    -0.310 N 
ATOM      9  H   UNL     1       5.036  -2.086  24.084  0.00  0.00    +0.149 HD
ATOM     10  N   UNL     1       6.535  -0.295  23.910  0.00  0.00    -0.222 NA
ATOM     11  C   UNL     1       7.407   0.712  23.597  0.00  0.00    +0.129 A 
ENDROOT
BRANCH   8  12
ATOM     12  C   UNL     1       5.986  -3.832  23.300  0.00  0.00    +0.076 C 
ATOM     13  C   UNL     1       4.742  -4.689  23.020  0.00  0.00    +0.039 C 
ATOM     14  C   UNL     1       3.756  -4.642  24.177  0.00  0.00    +0.111 C 
ATOM     15  N   UNL     1       4.390  -5.116  25.433  0.00  0.00    -0.181 NA
ATOM     16  C   UNL     1       5.609  -4.355  25.782  0.00  0.00    +0.111 C 
ATOM     17  C   UNL     1       6.611  -4.295  24.630  0.00  0.00    +0.039 C 
BRANCH  15  18
ATOM     18  S   UNL     1       4.341  -6.783  25.759  0.00  0.00    +0.029 S 
ATOM     19  O   UNL     1       5.234  -7.040  26.867  0.00  0.00    -0.158 OA
ATOM     20  O   UNL     1       4.474  -7.485  24.496  0.00  0.00    -0.158 OA
ATOM     21  C   UNL     1       2.663  -7.001  26.307  0.00  0.00    +0.215 C 
ENDBRANCH  15  18
ENDBRANCH   8  12
BRANCH   1  22
ATOM     22  C   UNL     1       9.170   1.930  22.346  0.00  0.00    +0.204 C 
ATOM     23  O   UNL     1      10.286   1.810  21.839  0.00  0.00    -0.286 OA
BRANCH  22  31
ATOM     24  C   UNL     1       7.585   3.963  22.365  0.00  0.00    +0.134 A 
ATOM     25  C   UNL     1       7.406   5.344  22.613  0.00  0.00    +0.049 A 
ATOM     26  C   UNL     1       8.305   6.041  23.406  0.00  0.00    +0.045 A 
ATOM     27  C   UNL     1       9.320   5.335  24.020  0.00  0.00    +0.159 A 
ATOM     28  F   UNL     1      10.136   5.969  24.872  0.00  0.00    -0.202 F 
ATOM     29  C   UNL     1       9.503   3.976  23.765  0.00  0.00    +0.173 A 
ATOM     30  F   UNL     1      10.347   3.313  24.561  0.00  0.00    -0.202 F 
ATOM     31  C   UNL     1       8.759   3.305  22.804  0.00  0.00    +0.102 A 
BRANCH  24  33
ATOM     32  C   UNL     1       5.310   3.370  22.423  0.00  0.00    +0.277 C 
ATOM     33  O   UNL     1       6.576   3.267  21.739  0.00  0.00    -0.494 OA
ENDBRANCH  24  33
ENDBRANCH  22  31
ENDBRANCH   1  22
TORSDOF 5
ENDMDL
MODEL 8
REMARK VINA RESULT:      -7.1      4.225      9.564
REMARK  Name = 
REMARK  7 active torsions:
REMARK  status: ('A' for Active; 'I' for Inactive)
REMARK    1  A    between atoms: C_1  and  O_2
REMARK    2  A    between atoms: O_2  and  C_3
REMARK    3  A    between atoms: C_4  and  C_5
REMARK    4  A    between atoms: C_5  and  C_7
REMARK    5  A    between atoms: N_11  and  C_12
REMARK    6  A    between atoms: N_15  and  S_18
REMARK    7  A    between atoms: S_18  and  C_19
REMARK                            x       y       z     vdW  Elec       q    Type
REMARK                         _______ _______ _______ _____ _____    ______ ____
ROOT
ATOM      1  C   UNL     1       7.991   1.845  23.492  0.00  0.00    +0.080 A 
ATOM      2  C   UNL     1       7.981   1.230  24.735  0.00  0.00    +0.132 A 
ATOM      3  N   UNL     1       8.174   1.831  25.961  0.00  0.00    -0.342 N 
ATOM      4  H   UNL     1       9.100   2.221  26.062  0.00  0.00    +0.144 HD
ATOM      5  H   UNL     1       8.037   1.104  26.662  0.00  0.00    +0.144 HD
ATOM      6  N   UNL     1       7.797  -0.097  24.933  0.00  0.00    -0.199 NA
ATOM      7  C   UNL     1       7.680  -0.895  23.880  0.00  0.00    +0.217 A 
ATOM      8  N   UNL     1       7.836  -2.263  24.039  0.00  0.00    -0.310 N 
ATOM      9  H   UNL     1       7.660  -2.703  23.144  0.00  0.00    +0.149 HD
ATOM     10  N   UNL     1       7.586  -0.418  22.638  0.00  0.00    -0.222 NA
ATOM     11  C   UNL     1       7.705   0.937  22.480  0.00  0.00    +0.129 A 
ENDROOT
BRANCH   8  12
ATOM     12  C   UNL     1       7.316  -2.934  25.240  0.00  0.00    +0.076 C 
ATOM     13  C   UNL     1       7.759  -4.402  25.336  0.00  0.00    +0.039 C 
ATOM     14  C   UNL     1       7.149  -5.246  24.228  0.00  0.00    +0.111 C 
ATOM     15  N   UNL     1       5.665  -5.191  24.276  0.00  0.00    -0.181 NA
ATOM     16  C   UNL     1       5.141  -3.810  24.201  0.00  0.00    +0.111 C 
ATOM     17  C   UNL     1       5.776  -2.886  25.240  0.00  0.00    +0.039 C 
BRANCH  15  18
ATOM     18  S   UNL     1       4.867  -6.320  25.264  0.00  0.00    +0.029 S 
ATOM     19  O   UNL     1       5.673  -6.516  26.448  0.00  0.00    -0.158 OA
ATOM     20  O   UNL     1       4.464  -7.434  24.425  0.00  0.00    -0.158 OA
ATOM     21  C   UNL     1       3.388  -5.437  25.710  0.00  0.00    +0.215 C 
ENDBRANCH  15  18
ENDBRANCH   8  12
BRANCH   1  22
ATOM     22  C   UNL     1       8.211   3.291  23.076  0.00  0.00    +0.204 C 
ATOM     23  O   UNL     1       7.527   3.716  22.144  0.00  0.00    -0.286 OA
BRANCH  22  31
ATOM     24  C   UNL     1       9.092   5.335  24.379  0.00  0.00    +0.134 A 
ATOM     25  C   UNL     1      10.134   6.267  24.589  0.00  0.00    +0.049 A 
ATOM     26  C   UNL     1      11.420   5.999  24.144  0.00  0.00    +0.045 A 
ATOM     27  C   UNL     1      11.674   4.764  23.580  0.00  0.00    +0.159 A 
ATOM     28  F   UNL     1      12.929   4.446  23.240  0.00  0.00    -0.202 F 
ATOM     29  C   UNL     1      10.643   3.851  23.364  0.00  0.00    +0.173 A 
ATOM     30  F   UNL     1      10.991   2.604  23.033  0.00  0.00    -0.202 F 
ATOM     31  C   UNL     1       9.313   4.180  23.589  0.00  0.00    +0.102 A 
BRANCH  24  33
ATOM     32  C   UNL     1       8.007   5.787  26.416  0.00  0.00    +0.277 C 
ATOM     33  O   UNL     1       7.881   5.545  24.999  0.00  0.00    -0.494 OA
ENDBRANCH  24  33
ENDBRANCH  22  31
ENDBRANCH   1  22
TORSDOF 5
ENDMDL
MODEL 9
REMARK VINA RESULT:      -6.8      4.651      9.294
REMARK  Name = 
REMARK  7 active torsions:
REMARK  status: ('A' for Active; 'I' for Inactive)
REMARK    1  A    between atoms: C_1  and  O_2
REMARK    2  A    between atoms: O_2  and  C_3
REMARK    3  A    between atoms: C_4  and  C_5
REMARK    4  A    between atoms: C_5  and  C_7
REMARK    5  A    between atoms: N_11  and  C_12
REMARK    6  A    between atoms: N_15  and  S_18
REMARK    7  A    between atoms: S_18  and  C_19
REMARK                            x       y       z     vdW  Elec       q    Type
REMARK                         _______ _______ _______ _____ _____    ______ ____
ROOT
ATOM      1  C   UNL     1       8.732   1.122  23.243  0.00  0.00    +0.080 A 
ATOM      2  C   UNL     1       8.195   0.672  24.440  0.00  0.00    +0.132 A 
ATOM      3  N   UNL     1       8.113   1.369  25.628  0.00  0.00    -0.342 N 
ATOM      4  H   UNL     1       9.021   1.589  26.014  0.00  0.00    +0.144 HD
ATOM      5  H   UNL     1       7.608   0.770  26.279  0.00  0.00    +0.144 HD
ATOM      6  N   UNL     1       7.677  -0.563  24.633  0.00  0.00    -0.199 NA
ATOM      7  C   UNL     1       7.732  -1.446  23.645  0.00  0.00    +0.217 A 
ATOM      8  N   UNL     1       7.531  -2.791  23.917  0.00  0.00    -0.310 N 
ATOM      9  H   UNL     1       7.558  -3.293  23.038  0.00  0.00    +0.149 HD
ATOM     10  N   UNL     1       8.143  -1.112  22.420  0.00  0.00    -0.222 NA
ATOM     11  C   UNL     1       8.594   0.169  22.242  0.00  0.00    +0.129 A 
ENDROOT
BRANCH   8  12
ATOM     12  C   UNL     1       6.525  -3.205  24.907  0.00  0.00    +0.076 C 
ATOM     13  C   UNL     1       6.648  -4.688  25.289  0.00  0.00    +0.039 C 
ATOM     14  C   UNL     1       6.315  -5.599  24.118  0.00  0.00    +0.111 C 
ATOM     15  N   UNL     1       4.938  -5.346  23.624  0.00  0.00    -0.181 NA
ATOM     16  C   UNL     1       4.718  -3.935  23.239  0.00  0.00    +0.111 C 
ATOM     17  C   UNL     1       5.110  -2.958  24.348  0.00  0.00    +0.039 C 
BRANCH  15  18
ATOM     18  S   UNL     1       3.668  -6.204  24.358  0.00  0.00    +0.029 S 
ATOM     19  O   UNL     1       3.205  -5.427  25.485  0.00  0.00    -0.158 OA
ATOM     20  O   UNL     1       4.095  -7.583  24.508  0.00  0.00    -0.158 OA
ATOM     21  C   UNL     1       2.424  -6.177  23.086  0.00  0.00    +0.215 C 
ENDBRANCH  15  18
ENDBRANCH   8  12
BRANCH   1  22
ATOM     22  C   UNL     1       9.378   2.442  22.852  0.00  0.00    +0.204 C 
ATOM     23  O   UNL     1      10.583   2.421  22.597  0.00  0.00    -0.286 OA
BRANCH  22  31
ATOM     24  C   UNL     1       7.458   4.081  22.328  0.00  0.00    +0.134 A 
ATOM     25  C   UNL     1       7.024   5.421  22.200  0.00  0.00    +0.049 A 
ATOM     26  C   UNL     1       7.745   6.454  22.778  0.00  0.00    +0.045 A 
ATOM     27  C   UNL     1       8.838   6.133  23.559  0.00  0.00    +0.159 A 
ATOM     28  F   UNL     1       9.485   7.107  24.212  0.00  0.00    -0.202 F 
ATOM     29  C   UNL     1       9.271   4.813  23.675  0.00  0.00    +0.173 A 
ATOM     30  F   UNL     1      10.179   4.548  24.619  0.00  0.00    -0.202 F 
ATOM     31  C   UNL     1       8.708   3.788  22.927  0.00  0.00    +0.102 A 
BRANCH  24  33
ATOM     32  C   UNL     1       5.297   3.165  22.474  0.00  0.00    +0.277 C 
ATOM     33  O   UNL     1       6.621   3.071  21.909  0.00  0.00    -0.494 OA
ENDBRANCH  24  33
ENDBRANCH  22  31
ENDBRANCH   1  22
TORSDOF 5
ENDMDL
