MODEL 1
REMARK VINA RESULT:      -7.8      0.000      0.000
REMARK  Name = 
REMARK  9 active torsions:
REMARK  status: ('A' for Active; 'I' for Inactive)
REMARK    1  A    between atoms: C_1  and  C_2
REMARK    2  A    between atoms: C_2  and  O_3
REMARK    3  A    between atoms: O_3  and  C_4
REMARK    4  A    between atoms: C_6  and  N_7
REMARK    5  A    between atoms: C_8  and  N_27
REMARK    6  A    between atoms: C_10  and  C_11
REMARK    7  A    between atoms: N_13  and  C_14
REMARK    8  A    between atoms: N_17  and  C_18
REMARK    9  A    between atoms: C_18  and  C_19
REMARK                            x       y       z     vdW  Elec       q    Type
REMARK                         _______ _______ _______ _____ _____    ______ ____
ROOT
ATOM      1  C   UNL     1       8.876  -4.031  24.790  0.00  0.00    +0.248 C 
ATOM      2  N   UNL     1       8.724  -2.699  24.460  0.00  0.00    -0.308 N 
ATOM      3  H   UNL     1       7.776  -2.338  24.468  0.00  0.00    +0.149 HD
ATOM      4  O   UNL     1       9.967  -4.588  24.859  0.00  0.00    -0.270 OA
ENDROOT
BRANCH   1   6
ATOM      5  C   UNL     1       6.603  -5.079  24.167  0.00  0.00    +0.135 A 
ATOM      6  C   UNL     1       7.612  -4.791  25.109  0.00  0.00    +0.085 A 
ATOM      7  C   UNL     1       7.430  -5.200  26.444  0.00  0.00    +0.103 A 
ATOM      8  C   UNL     1       6.246  -5.853  26.844  0.00  0.00    +0.294 A 
ATOM      9  C   UNL     1       5.198  -6.064  25.934  0.00  0.00    +0.106 A 
ATOM     10  C   UNL     1       5.416  -5.691  24.603  0.00  0.00    +0.076 A 
BRANCH   8  11
ATOM     11  N   UNL     1       6.105  -6.249  28.257  0.00  0.00    +0.082 N 
ATOM     12  O   UNL     1       5.835  -7.434  28.499  0.00  0.00    +0.042 OA
ATOM     13  O   UNL     1       6.283  -5.387  29.133  0.00  0.00    -0.576 OA
ENDBRANCH   8  11
BRANCH   9  14
ATOM     14  N   UNL     1       4.046  -6.826  26.189  0.00  0.00    -0.353 N 
ATOM     15  H   UNL     1       4.205  -7.839  26.170  0.00  0.00    +0.143 HD
ATOM     16  H   UNL     1       3.510  -6.545  27.006  0.00  0.00    +0.143 HD
ENDBRANCH   9  14
BRANCH   5  17
ATOM     17  O   UNL     1       6.776  -4.715  22.849  0.00  0.00    -0.491 OA
BRANCH  17  19
ATOM     18  C   UNL     1       6.184  -5.821  20.787  0.00  0.00    +0.048 C 
ATOM     19  C   UNL     1       7.145  -5.776  21.957  0.00  0.00    +0.226 C 
ENDBRANCH  17  19
ENDBRANCH   5  17
ENDBRANCH   1   6
BRANCH   2  20
ATOM     20  C   UNL     1       9.806  -1.719  24.492  0.00  0.00    +0.076 C 
ATOM     21  C   UNL     1       9.531  -0.698  25.604  0.00  0.00    +0.037 C 
ATOM     22  C   UNL     1       8.472   0.323  25.185  0.00  0.00    +0.086 C 
ATOM     23  N   UNL     1       8.789   1.027  23.936  0.00  0.00    -0.302 NA
ATOM     24  C   UNL     1       8.965   0.057  22.848  0.00  0.00    +0.086 C 
ATOM     25  C   UNL     1       9.993  -1.040  23.131  0.00  0.00    +0.037 C 
BRANCH  23  26
ATOM     26  C   UNL     1       9.911   1.963  24.128  0.00  0.00    +0.088 C 
BRANCH  26  27
ATOM     27  C   UNL     1       9.916   3.226  23.228  0.00  0.00    +0.007 C 
ATOM     28  C   UNL     1       8.686   4.114  23.492  0.00  0.00    +0.031 C 
ATOM     29  C   UNL     1       8.923   5.576  23.662  0.00  0.00    -0.031 C 
ATOM     30  C   UNL     1      10.131   6.138  23.737  0.00  0.00    -0.031 C 
ATOM     31  C   UNL     1      11.406   5.383  23.645  0.00  0.00    +0.027 C 
ATOM     32  C   UNL     1      11.308   3.896  23.305  0.00  0.00    +0.009 C 
ENDBRANCH  26  27
ENDBRANCH  23  26
ENDBRANCH   2  20
TORSDOF 8
ENDMDL
MODEL 2
REMARK VINA RESULT:      -7.2      2.302      3.687
REMARK  Name = 
REMARK  9 active torsions:
REMARK  status: ('A' for Active; 'I' for Inactive)
REMARK    1  A    between atoms: C_1  and  C_2
REMARK    2  A    between atoms: C_2  and  O_3
REMARK    3  A    between atoms: O_3  and  C_4
REMARK    4  A    between atoms: C_6  and  N_7
REMARK    5  A    between atoms: C_8  and  N_27
REMARK    6  A    between atoms: C_10  and  C_11
REMARK    7  A    between atoms: N_13  and  C_14
REMARK    8  A    between atoms: N_17  and  C_18
REMARK    9  A    between atoms: C_18  and  C_19
REMARK                            x       y       z     vdW  Elec       q    Type
REMARK                         _______ _______ _______ _____ _____    ______ ____
ROOT
ATOM      1  C   UNL     1       6.832  -0.962  24.685  0.00  0.00    +0.248 C 
ATOM      2  N   UNL     1       7.530   0.226  24.769  0.00  0.00    -0.308 N 
ATOM      3  H   UNL     1       8.520   0.155  24.980  0.00  0.00    +0.149 HD
ATOM      4  O   UNL     1       5.642  -1.025  24.397  0.00  0.00    -0.270 OA
ENDROOT
BRANCH   1   6
ATOM      5  C   UNL     1       8.932  -2.442  24.449  0.00  0.00    +0.135 A 
ATOM      6  C   UNL     1       7.625  -2.223  24.930  0.00  0.00    +0.085 A 
ATOM      7  C   UNL     1       6.989  -3.248  25.656  0.00  0.00    +0.103 A 
ATOM      8  C   UNL     1       7.630  -4.485  25.871  0.00  0.00    +0.294 A 
ATOM      9  C   UNL     1       8.894  -4.746  25.320  0.00  0.00    +0.106 A 
ATOM     10  C   UNL     1       9.528  -3.699  24.639  0.00  0.00    +0.076 A 
BRANCH   8  11
ATOM     11  N   UNL     1       6.912  -5.526  26.630  0.00  0.00    +0.082 N 
ATOM     12  O   UNL     1       5.899  -6.019  26.114  0.00  0.00    +0.042 OA
ATOM     13  O   UNL     1       7.365  -5.870  27.734  0.00  0.00    -0.576 OA
ENDBRANCH   8  11
BRANCH   9  14
ATOM     14  N   UNL     1       9.677  -5.881  25.590  0.00  0.00    -0.353 N 
ATOM     15  H   UNL     1      10.297  -6.151  24.819  0.00  0.00    +0.143 HD
ATOM     16  H   UNL     1      10.167  -5.869  26.481  0.00  0.00    +0.143 HD
ENDBRANCH   9  14
BRANCH   5  17
ATOM     17  O   UNL     1       9.583  -1.440  23.763  0.00  0.00    -0.491 OA
BRANCH  17  19
ATOM     18  C   UNL     1       9.483  -0.737  21.455  0.00  0.00    +0.048 C 
ATOM     19  C   UNL     1      10.004  -1.772  22.432  0.00  0.00    +0.226 C 
ENDBRANCH  17  19
ENDBRANCH   5  17
ENDBRANCH   1   6
BRANCH   2  20
ATOM     20  C   UNL     1       7.063   1.492  24.210  0.00  0.00    +0.076 C 
ATOM     21  C   UNL     1       8.005   1.923  23.078  0.00  0.00    +0.037 C 
ATOM     22  C   UNL     1       9.306   2.517  23.621  0.00  0.00    +0.086 C 
ATOM     23  N   UNL     1       9.104   3.638  24.548  0.00  0.00    -0.302 NA
ATOM     24  C   UNL     1       8.276   3.205  25.680  0.00  0.00    +0.086 C 
ATOM     25  C   UNL     1       6.938   2.574  25.288  0.00  0.00    +0.037 C 
BRANCH  23  26
ATOM     26  C   UNL     1       8.615   4.831  23.835  0.00  0.00    +0.088 C 
BRANCH  26  27
ATOM     27  C   UNL     1       9.555   6.064  23.830  0.00  0.00    +0.007 C 
ATOM     28  C   UNL     1       9.594   6.754  25.207  0.00  0.00    +0.031 C 
ATOM     29  C   UNL     1      10.933   7.108  25.756  0.00  0.00    -0.031 C 
ATOM     30  C   UNL     1      12.092   6.747  25.203  0.00  0.00    -0.031 C 
ATOM     31  C   UNL     1      12.204   5.955  23.952  0.00  0.00    +0.027 C 
ATOM     32  C   UNL     1      10.908   5.666  23.196  0.00  0.00    +0.009 C 
ENDBRANCH  26  27
ENDBRANCH  23  26
ENDBRANCH   2  20
TORSDOF 8
ENDMDL
MODEL 3
REMARK VINA RESULT:      -7.1      2.487      4.113
REMARK  Name = 
REMARK  9 active torsions:
REMARK  status: ('A' for Active; 'I' for Inactive)
REMARK    1  A    between atoms: C_1  and  C_2
REMARK    2  A    between atoms: C_2  and  O_3
REMARK    3  A    between atoms: O_3  and  C_4
REMARK    4  A    between atoms: C_6  and  N_7
REMARK    5  A    between atoms: C_8  and  N_27
REMARK    6  A    between atoms: C_10  and  C_11
REMARK    7  A    between atoms: N_13  and  C_14
REMARK    8  A    between atoms: N_17  and  C_18
REMARK    9  A    between atoms: C_18  and  C_19
REMARK                            x       y       z     vdW  Elec       q    Type
REMARK                         _______ _______ _______ _____ _____    ______ ____
ROOT
ATOM      1  C   UNL     1       5.253  -5.415  26.044  0.00  0.00    +0.248 C 
ATOM      2  N   UNL     1       6.502  -5.087  25.557  0.00  0.00    -0.308 N 
ATOM      3  H   UNL     1       6.697  -5.355  24.598  0.00  0.00    +0.149 HD
ATOM      4  O   UNL     1       4.869  -5.117  27.171  0.00  0.00    -0.270 OA
ENDROOT
BRANCH   1   6
ATOM      5  C   UNL     1       4.216  -5.848  23.722  0.00  0.00    +0.135 A 
ATOM      6  C   UNL     1       4.334  -6.145  25.096  0.00  0.00    +0.085 A 
ATOM      7  C   UNL     1       3.526  -7.161  25.641  0.00  0.00    +0.103 A 
ATOM      8  C   UNL     1       2.589  -7.847  24.841  0.00  0.00    +0.294 A 
ATOM      9  C   UNL     1       2.401  -7.497  23.494  0.00  0.00    +0.106 A 
ATOM     10  C   UNL     1       3.244  -6.515  22.960  0.00  0.00    +0.076 A 
BRANCH   8  11
ATOM     11  N   UNL     1       1.763  -8.894  25.467  0.00  0.00    +0.082 N 
ATOM     12  O   UNL     1       0.952  -8.545  26.336  0.00  0.00    +0.042 OA
ATOM     13  O   UNL     1       1.905 -10.067  25.083  0.00  0.00    -0.576 OA
ENDBRANCH   8  11
BRANCH   9  14
ATOM     14  N   UNL     1       1.604  -8.204  22.578  0.00  0.00    -0.353 N 
ATOM     15  H   UNL     1       1.769  -9.217  22.580  0.00  0.00    +0.143 HD
ATOM     16  H   UNL     1       0.612  -7.984  22.602  0.00  0.00    +0.143 HD
ENDBRANCH   9  14
BRANCH   5  17
ATOM     17  O   UNL     1       5.020  -4.879  23.163  0.00  0.00    -0.491 OA
BRANCH  17  19
ATOM     18  C   UNL     1       7.006  -5.769  22.119  0.00  0.00    +0.048 C 
ATOM     19  C   UNL     1       5.612  -5.217  21.901  0.00  0.00    +0.226 C 
ENDBRANCH  17  19
ENDBRANCH   5  17
ENDBRANCH   1   6
BRANCH   2  20
ATOM     20  C   UNL     1       7.374  -4.078  26.152  0.00  0.00    +0.076 C 
ATOM     21  C   UNL     1       6.858  -2.681  25.782  0.00  0.00    +0.037 C 
ATOM     22  C   UNL     1       7.223  -2.306  24.345  0.00  0.00    +0.086 C 
ATOM     23  N   UNL     1       8.660  -2.393  24.057  0.00  0.00    -0.302 NA
ATOM     24  C   UNL     1       9.140  -3.755  24.324  0.00  0.00    +0.086 C 
ATOM     25  C   UNL     1       8.835  -4.274  25.731  0.00  0.00    +0.037 C 
BRANCH  23  26
ATOM     26  C   UNL     1       9.402  -1.321  24.743  0.00  0.00    +0.088 C 
BRANCH  26  27
ATOM     27  C   UNL     1      10.351  -0.467  23.863  0.00  0.00    +0.007 C 
ATOM     28  C   UNL     1       9.857  -0.389  22.407  0.00  0.00    +0.031 C 
ATOM     29  C   UNL     1       9.836   0.954  21.763  0.00  0.00    -0.031 C 
ATOM     30  C   UNL     1      10.084   2.099  22.403  0.00  0.00    -0.031 C 
ATOM     31  C   UNL     1      10.433   2.185  23.844  0.00  0.00    +0.027 C 
ATOM     32  C   UNL     1      10.649   0.867  24.586  0.00  0.00    +0.009 C 
ENDBRANCH  26  27
ENDBRANCH  23  26
ENDBRANCH   2  20
TORSDOF 8
ENDMDL
MODEL 4
REMARK VINA RESULT:      -7.0      4.012      9.701
REMARK  Name = 
REMARK  9 active torsions:
REMARK  status: ('A' for Active; 'I' for Inactive)
REMARK    1  A    between atoms: C_1  and  C_2
REMARK    2  A    between atoms: C_2  and  O_3
REMARK    3  A    between atoms: O_3  and  C_4
REMARK    4  A    between atoms: C_6  and  N_7
REMARK    5  A    between atoms: C_8  and  N_27
REMARK    6  A    between atoms: C_10  and  C_11
REMARK    7  A    between atoms: N_13  and  C_14
REMARK    8  A    between atoms: N_17  and  C_18
REMARK    9  A    between atoms: C_18  and  C_19
REMARK                            x       y       z     vdW  Elec       q    Type
REMARK                         _______ _______ _______ _____ _____    ______ ____
ROOT
ATOM      1  C   UNL     1       9.663   1.728  22.709  0.00  0.00    +0.248 C 
ATOM      2  N   UNL     1       8.953   0.720  23.331  0.00  0.00    -0.308 N 
ATOM      3  H   UNL     1       8.517   0.956  24.215  0.00  0.00    +0.149 HD
ATOM      4  O   UNL     1      10.207   1.594  21.617  0.00  0.00    -0.270 OA
ENDROOT
BRANCH   1   6
ATOM      5  C   UNL     1       8.627   3.619  24.124  0.00  0.00    +0.135 A 
ATOM      6  C   UNL     1       9.715   3.053  23.428  0.00  0.00    +0.085 A 
ATOM      7  C   UNL     1      10.923   3.772  23.359  0.00  0.00    +0.103 A 
ATOM      8  C   UNL     1      11.037   5.051  23.943  0.00  0.00    +0.294 A 
ATOM      9  C   UNL     1       9.933   5.661  24.560  0.00  0.00    +0.106 A 
ATOM     10  C   UNL     1       8.754   4.912  24.657  0.00  0.00    +0.076 A 
BRANCH   8  11
ATOM     11  N   UNL     1      12.323   5.762  23.831  0.00  0.00    +0.082 N 
ATOM     12  O   UNL     1      12.930   5.690  22.754  0.00  0.00    +0.042 OA
ATOM     13  O   UNL     1      12.726   6.413  24.810  0.00  0.00    -0.576 OA
ENDBRANCH   8  11
BRANCH   9  14
ATOM     14  N   UNL     1       9.975   6.859  25.293  0.00  0.00    -0.353 N 
ATOM     15  H   UNL     1       9.731   7.690  24.744  0.00  0.00    +0.143 HD
ATOM     16  H   UNL     1       9.489   6.840  26.185  0.00  0.00    +0.143 HD
ENDBRANCH   9  14
BRANCH   5  17
ATOM     17  O   UNL     1       7.446   2.917  24.229  0.00  0.00    -0.491 OA
BRANCH  17  19
ATOM     18  C   UNL     1       6.128   3.000  22.207  0.00  0.00    +0.048 C 
ATOM     19  C   UNL     1       6.303   3.531  23.616  0.00  0.00    +0.226 C 
ENDBRANCH  17  19
ENDBRANCH   5  17
ENDBRANCH   1   6
BRANCH   2  20
ATOM     20  C   UNL     1       8.469  -0.479  22.653  0.00  0.00    +0.076 C 
ATOM     21  C   UNL     1       7.254  -1.033  23.410  0.00  0.00    +0.037 C 
ATOM     22  C   UNL     1       7.670  -1.783  24.676  0.00  0.00    +0.086 C 
ATOM     23  N   UNL     1       8.635  -2.864  24.434  0.00  0.00    -0.302 NA
ATOM     24  C   UNL     1       9.839  -2.323  23.790  0.00  0.00    +0.086 C 
ATOM     25  C   UNL     1       9.575  -1.531  22.507  0.00  0.00    +0.037 C 
BRANCH  23  26
ATOM     26  C   UNL     1       7.999  -3.990  23.727  0.00  0.00    +0.088 C 
BRANCH  26  27
ATOM     27  C   UNL     1       7.597  -5.210  24.597  0.00  0.00    +0.007 C 
ATOM     28  C   UNL     1       8.245  -5.149  25.992  0.00  0.00    +0.031 C 
ATOM     29  C   UNL     1       7.365  -5.410  27.166  0.00  0.00    -0.031 C 
ATOM     30  C   UNL     1       6.040  -5.555  27.096  0.00  0.00    -0.031 C 
ATOM     31  C   UNL     1       5.264  -5.492  25.831  0.00  0.00    +0.027 C 
ATOM     32  C   UNL     1       6.062  -5.393  24.532  0.00  0.00    +0.009 C 
ENDBRANCH  26  27
ENDBRANCH  23  26
ENDBRANCH   2  20
TORSDOF 8
ENDMDL
MODEL 5
REMARK VINA RESULT:      -6.9      3.994      9.123
REMARK  Name = 
REMARK  9 active torsions:
REMARK  status: ('A' for Active; 'I' for Inactive)
REMARK    1  A    between atoms: C_1  and  C_2
REMARK    2  A    between atoms: C_2  and  O_3
REMARK    3  A    between atoms: O_3  and  C_4
REMARK    4  A    between atoms: C_6  and  N_7
REMARK    5  A    between atoms: C_8  and  N_27
REMARK    6  A    between atoms: C_10  and  C_11
REMARK    7  A    between atoms: N_13  and  C_14
REMARK    8  A    between atoms: N_17  and  C_18
REMARK    9  A    between atoms: C_18  and  C_19
REMARK                            x       y       z     vdW  Elec       q    Type
REMARK                         _______ _______ _______ _____ _____    ______ ____
ROOT
ATOM      1  C   UNL     1       9.507   1.617  24.517  0.00  0.00    +0.248 C 
ATOM      2  N   UNL     1       8.749   0.743  25.270  0.00  0.00    -0.308 N 
ATOM      3  H   UNL     1       7.749   0.911  25.286  0.00  0.00    +0.149 HD
ATOM      4  O   UNL     1      10.721   1.508  24.378  0.00  0.00    -0.270 OA
ENDROOT
BRANCH   1   6
ATOM      5  C   UNL     1       7.919   2.532  22.702  0.00  0.00    +0.135 A 
ATOM      6  C   UNL     1       8.756   2.725  23.820  0.00  0.00    +0.085 A 
ATOM      7  C   UNL     1       8.943   4.032  24.309  0.00  0.00    +0.103 A 
ATOM      8  C   UNL     1       8.336   5.135  23.674  0.00  0.00    +0.294 A 
ATOM      9  C   UNL     1       7.574   4.963  22.507  0.00  0.00    +0.106 A 
ATOM     10  C   UNL     1       7.363   3.653  22.063  0.00  0.00    +0.076 A 
BRANCH   8  11
ATOM     11  N   UNL     1       8.575   6.482  24.223  0.00  0.00    +0.082 N 
ATOM     12  O   UNL     1       9.729   6.930  24.168  0.00  0.00    +0.042 OA
ATOM     13  O   UNL     1       7.612   7.107  24.695  0.00  0.00    -0.576 OA
ENDBRANCH   8  11
BRANCH   9  14
ATOM     14  N   UNL     1       6.813   5.965  21.883  0.00  0.00    -0.353 N 
ATOM     15  H   UNL     1       6.082   6.364  22.481  0.00  0.00    +0.143 HD
ATOM     16  H   UNL     1       7.349   6.689  21.410  0.00  0.00    +0.143 HD
ENDBRANCH   9  14
BRANCH   5  17
ATOM     17  O   UNL     1       7.698   1.258  22.227  0.00  0.00    -0.491 OA
BRANCH  17  19
ATOM     18  C   UNL     1       9.502  -0.069  21.325  0.00  0.00    +0.048 C 
ATOM     19  C   UNL     1       8.393   0.917  21.019  0.00  0.00    +0.226 C 
ENDBRANCH  17  19
ENDBRANCH   5  17
ENDBRANCH   1   6
BRANCH   2  20
ATOM     20  C   UNL     1       9.205  -0.577  25.698  0.00  0.00    +0.076 C 
ATOM     21  C   UNL     1       9.275  -1.508  24.480  0.00  0.00    +0.037 C 
ATOM     22  C   UNL     1       7.888  -2.000  24.064  0.00  0.00    +0.086 C 
ATOM     23  N   UNL     1       7.144  -2.659  25.146  0.00  0.00    -0.302 NA
ATOM     24  C   UNL     1       6.997  -1.740  26.281  0.00  0.00    +0.086 C 
ATOM     25  C   UNL     1       8.311  -1.153  26.802  0.00  0.00    +0.037 C 
BRANCH  23  26
ATOM     26  C   UNL     1       7.738  -3.968  25.473  0.00  0.00    +0.088 C 
BRANCH  26  27
ATOM     27  C   UNL     1       7.098  -5.204  24.789  0.00  0.00    +0.007 C 
ATOM     28  C   UNL     1       5.564  -5.087  24.727  0.00  0.00    +0.031 C 
ATOM     29  C   UNL     1       4.907  -5.397  23.427  0.00  0.00    -0.031 C 
ATOM     30  C   UNL     1       5.564  -5.633  22.289  0.00  0.00    -0.031 C 
ATOM     31  C   UNL     1       7.045  -5.635  22.171  0.00  0.00    +0.027 C 
ATOM     32  C   UNL     1       7.844  -5.492  23.465  0.00  0.00    +0.009 C 
ENDBRANCH  26  27
ENDBRANCH  23  26
ENDBRANCH   2  20
TORSDOF 8
ENDMDL
MODEL 6
REMARK VINA RESULT:      -6.9      3.961      9.664
REMARK  Name = 
REMARK  9 active torsions:
REMARK  status: ('A' for Active; 'I' for Inactive)
REMARK    1  A    between atoms: C_1  and  C_2
REMARK    2  A    between atoms: C_2  and  O_3
REMARK    3  A    between atoms: O_3  and  C_4
REMARK    4  A    between atoms: C_6  and  N_7
REMARK    5  A    between atoms: C_8  and  N_27
REMARK    6  A    between atoms: C_10  and  C_11
REMARK    7  A    between atoms: N_13  and  C_14
REMARK    8  A    between atoms: N_17  and  C_18
REMARK    9  A    between atoms: C_18  and  C_19
REMARK                            x       y       z     vdW  Elec       q    Type
REMARK                         _______ _______ _______ _____ _____    ______ ____
ROOT
ATOM      1  C   UNL     1       9.863   1.165  22.802  0.00  0.00    +0.248 C 
ATOM      2  N   UNL     1       9.642   0.078  23.624  0.00  0.00    -0.308 N 
ATOM      3  H   UNL     1       9.468   0.280  24.602  0.00  0.00    +0.149 HD
ATOM      4  O   UNL     1      10.047   1.069  21.593  0.00  0.00    -0.270 OA
ENDROOT
BRANCH   1   6
ATOM      5  C   UNL     1       8.745   3.011  24.214  0.00  0.00    +0.135 A 
ATOM      6  C   UNL     1       9.833   2.521  23.463  0.00  0.00    +0.085 A 
ATOM      7  C   UNL     1      10.956   3.349  23.277  0.00  0.00    +0.103 A 
ATOM      8  C   UNL     1      10.982   4.659  23.800  0.00  0.00    +0.294 A 
ATOM      9  C   UNL     1       9.868   5.187  24.472  0.00  0.00    +0.106 A 
ATOM     10  C   UNL     1       8.779   4.334  24.685  0.00  0.00    +0.076 A 
BRANCH   8  11
ATOM     11  N   UNL     1      12.180   5.485  23.567  0.00  0.00    +0.082 N 
ATOM     12  O   UNL     1      12.667   6.081  24.537  0.00  0.00    +0.042 OA
ATOM     13  O   UNL     1      12.653   5.528  22.419  0.00  0.00    -0.576 OA
ENDBRANCH   8  11
BRANCH   9  14
ATOM     14  N   UNL     1       9.841   6.416  25.152  0.00  0.00    -0.353 N 
ATOM     15  H   UNL     1       9.062   6.508  25.813  0.00  0.00    +0.143 HD
ATOM     16  H   UNL     1      10.724   6.703  25.568  0.00  0.00    +0.143 HD
ENDBRANCH   9  14
BRANCH   5  17
ATOM     17  O   UNL     1       7.649   2.204  24.433  0.00  0.00    -0.491 OA
BRANCH  17  19
ATOM     18  C   UNL     1       6.330   2.345  22.416  0.00  0.00    +0.048 C 
ATOM     19  C   UNL     1       6.409   2.681  23.892  0.00  0.00    +0.226 C 
ENDBRANCH  17  19
ENDBRANCH   5  17
ENDBRANCH   1   6
BRANCH   2  20
ATOM     20  C   UNL     1       9.259  -1.247  23.143  0.00  0.00    +0.076 C 
ATOM     21  C   UNL     1       7.757  -1.257  22.828  0.00  0.00    +0.037 C 
ATOM     22  C   UNL     1       6.914  -1.354  24.100  0.00  0.00    +0.086 C 
ATOM     23  N   UNL     1       7.248  -2.508  24.947  0.00  0.00    -0.302 NA
ATOM     24  C   UNL     1       8.665  -2.454  25.325  0.00  0.00    +0.086 C 
ATOM     25  C   UNL     1       9.636  -2.343  24.147  0.00  0.00    +0.037 C 
BRANCH  23  26
ATOM     26  C   UNL     1       6.815  -3.767  24.316  0.00  0.00    +0.088 C 
BRANCH  26  27
ATOM     27  C   UNL     1       5.367  -4.229  24.624  0.00  0.00    +0.007 C 
ATOM     28  C   UNL     1       4.545  -4.418  23.336  0.00  0.00    +0.031 C 
ATOM     29  C   UNL     1       3.748  -5.671  23.210  0.00  0.00    -0.031 C 
ATOM     30  C   UNL     1       3.808  -6.689  24.071  0.00  0.00    -0.031 C 
ATOM     31  C   UNL     1       4.668  -6.704  25.282  0.00  0.00    +0.027 C 
ATOM     32  C   UNL     1       5.414  -5.413  25.618  0.00  0.00    +0.009 C 
ENDBRANCH  26  27
ENDBRANCH  23  26
ENDBRANCH   2  20
TORSDOF 8
ENDMDL
MODEL 7
REMARK VINA RESULT:      -6.7      3.741      9.178
REMARK  Name = 
REMARK  9 active torsions:
REMARK  status: ('A' for Active; 'I' for Inactive)
REMARK    1  A    between atoms: C_1  and  C_2
REMARK    2  A    between atoms: C_2  and  O_3
REMARK    3  A    between atoms: O_3  and  C_4
REMARK    4  A    between atoms: C_6  and  N_7
REMARK    5  A    between atoms: C_8  and  N_27
REMARK    6  A    between atoms: C_10  and  C_11
REMARK    7  A    between atoms: N_13  and  C_14
REMARK    8  A    between atoms: N_17  and  C_18
REMARK    9  A    between atoms: C_18  and  C_19
REMARK                            x       y       z     vdW  Elec       q    Type
REMARK                         _______ _______ _______ _____ _____    ______ ____
ROOT
ATOM      1  C   UNL     1       9.672   0.596  22.959  0.00  0.00    +0.248 C 
ATOM      2  N   UNL     1       9.717  -0.584  23.676  0.00  0.00    -0.308 N 
ATOM      3  H   UNL     1       9.509  -0.518  24.666  0.00  0.00    +0.149 HD
ATOM      4  O   UNL     1       9.862   0.656  21.749  0.00  0.00    -0.270 OA
ENDROOT
BRANCH   1   6
ATOM      5  C   UNL     1       8.346   1.900  24.746  0.00  0.00    +0.135 A 
ATOM      6  C   UNL     1       9.332   1.841  23.740  0.00  0.00    +0.085 A 
ATOM      7  C   UNL     1      10.029   3.018  23.405  0.00  0.00    +0.103 A 
ATOM      8  C   UNL     1       9.725   4.242  24.036  0.00  0.00    +0.294 A 
ATOM      9  C   UNL     1       8.685   4.329  24.974  0.00  0.00    +0.106 A 
ATOM     10  C   UNL     1       8.034   3.141  25.326  0.00  0.00    +0.076 A 
BRANCH   8  11
ATOM     11  N   UNL     1      10.480   5.444  23.638  0.00  0.00    +0.082 N 
ATOM     12  O   UNL     1       9.835   6.464  23.361  0.00  0.00    +0.042 OA
ATOM     13  O   UNL     1      11.721   5.382  23.618  0.00  0.00    -0.576 OA
ENDBRANCH   8  11
BRANCH   9  14
ATOM     14  N   UNL     1       8.396   5.457  25.761  0.00  0.00    -0.353 N 
ATOM     15  H   UNL     1       7.453   5.451  26.164  0.00  0.00    +0.143 HD
ATOM     16  H   UNL     1       9.101   5.696  26.454  0.00  0.00    +0.143 HD
ENDBRANCH   9  14
BRANCH   5  17
ATOM     17  O   UNL     1       7.674   0.753  25.111  0.00  0.00    -0.491 OA
BRANCH  17  19
ATOM     18  C   UNL     1       6.745  -0.731  26.773  0.00  0.00    +0.048 C 
ATOM     19  C   UNL     1       7.510   0.553  26.522  0.00  0.00    +0.226 C 
ENDBRANCH  17  19
ENDBRANCH   5  17
ENDBRANCH   1   6
BRANCH   2  20
ATOM     20  C   UNL     1       9.649  -1.911  23.072  0.00  0.00    +0.076 C 
ATOM     21  C   UNL     1       8.303  -2.072  22.353  0.00  0.00    +0.037 C 
ATOM     22  C   UNL     1       7.165  -2.342  23.338  0.00  0.00    +0.086 C 
ATOM     23  N   UNL     1       7.399  -3.500  24.211  0.00  0.00    -0.302 NA
ATOM     24  C   UNL     1       8.642  -3.309  24.969  0.00  0.00    +0.086 C 
ATOM     25  C   UNL     1       9.874  -3.017  24.110  0.00  0.00    +0.037 C 
BRANCH  23  26
ATOM     26  C   UNL     1       7.315  -4.759  23.451  0.00  0.00    +0.088 C 
BRANCH  26  27
ATOM     27  C   UNL     1       6.095  -5.667  23.754  0.00  0.00    +0.007 C 
ATOM     28  C   UNL     1       5.775  -5.701  25.260  0.00  0.00    +0.031 C 
ATOM     29  C   UNL     1       4.351  -5.520  25.660  0.00  0.00    -0.031 C 
ATOM     30  C   UNL     1       3.368  -5.196  24.817  0.00  0.00    -0.031 C 
ATOM     31  C   UNL     1       3.560  -4.988  23.359  0.00  0.00    +0.027 C 
ATOM     32  C   UNL     1       4.942  -5.304  22.789  0.00  0.00    +0.009 C 
ENDBRANCH  26  27
ENDBRANCH  23  26
ENDBRANCH   2  20
TORSDOF 8
ENDMDL
MODEL 8
REMARK VINA RESULT:      -6.6      2.840      4.345
REMARK  Name = 
REMARK  9 active torsions:
REMARK  status: ('A' for Active; 'I' for Inactive)
REMARK    1  A    between atoms: C_1  and  C_2
REMARK    2  A    between atoms: C_2  and  O_3
REMARK    3  A    between atoms: O_3  and  C_4
REMARK    4  A    between atoms: C_6  and  N_7
REMARK    5  A    between atoms: C_8  and  N_27
REMARK    6  A    between atoms: C_10  and  C_11
REMARK    7  A    between atoms: N_13  and  C_14
REMARK    8  A    between atoms: N_17  and  C_18
REMARK    9  A    between atoms: C_18  and  C_19
REMARK                            x       y       z     vdW  Elec       q    Type
REMARK                         _______ _______ _______ _____ _____    ______ ____
ROOT
ATOM      1  C   UNL     1       6.263  -0.616  24.263  0.00  0.00    +0.248 C 
ATOM      2  N   UNL     1       6.881   0.460  23.657  0.00  0.00    -0.308 N 
ATOM      3  H   UNL     1       7.428   0.258  22.827  0.00  0.00    +0.149 HD
ATOM      4  O   UNL     1       5.540  -0.511  25.248  0.00  0.00    -0.270 OA
ENDROOT
BRANCH   1   6
ATOM      5  C   UNL     1       7.629  -2.301  22.866  0.00  0.00    +0.135 A 
ATOM      6  C   UNL     1       6.489  -1.964  23.624  0.00  0.00    +0.085 A 
ATOM      7  C   UNL     1       5.469  -2.923  23.775  0.00  0.00    +0.103 A 
ATOM      8  C   UNL     1       5.566  -4.185  23.153  0.00  0.00    +0.294 A 
ATOM      9  C   UNL     1       6.654  -4.496  22.323  0.00  0.00    +0.106 A 
ATOM     10  C   UNL     1       7.678  -3.547  22.221  0.00  0.00    +0.076 A 
BRANCH   8  11
ATOM     11  N   UNL     1       4.463  -5.146  23.338  0.00  0.00    +0.082 N 
ATOM     12  O   UNL     1       3.358  -4.854  22.860  0.00  0.00    +0.042 OA
ATOM     13  O   UNL     1       4.698  -6.205  23.943  0.00  0.00    -0.576 OA
ENDBRANCH   8  11
BRANCH   9  14
ATOM     14  N   UNL     1       6.919  -5.763  21.776  0.00  0.00    -0.353 N 
ATOM     15  H   UNL     1       7.718  -5.779  21.133  0.00  0.00    +0.143 HD
ATOM     16  H   UNL     1       6.959  -6.527  22.445  0.00  0.00    +0.143 HD
ENDBRANCH   9  14
BRANCH   5  17
ATOM     17  O   UNL     1       8.652  -1.387  22.732  0.00  0.00    -0.491 OA
BRANCH  17  19
ATOM     18  C   UNL     1      10.205  -0.542  24.377  0.00  0.00    +0.048 C 
ATOM     19  C   UNL     1       9.854  -1.692  23.454  0.00  0.00    +0.226 C 
ENDBRANCH  17  19
ENDBRANCH   5  17
ENDBRANCH   1   6
BRANCH   2  20
ATOM     20  C   UNL     1       6.498   1.852  23.874  0.00  0.00    +0.076 C 
ATOM     21  C   UNL     1       6.723   2.647  22.581  0.00  0.00    +0.037 C 
ATOM     22  C   UNL     1       8.203   2.972  22.367  0.00  0.00    +0.086 C 
ATOM     23  N   UNL     1       8.822   3.680  23.495  0.00  0.00    -0.302 NA
ATOM     24  C   UNL     1       8.688   2.881  24.719  0.00  0.00    +0.086 C 
ATOM     25  C   UNL     1       7.254   2.468  25.058  0.00  0.00    +0.037 C 
BRANCH  23  26
ATOM     26  C   UNL     1       8.320   5.062  23.590  0.00  0.00    +0.088 C 
BRANCH  26  27
ATOM     27  C   UNL     1       9.391   6.181  23.657  0.00  0.00    +0.007 C 
ATOM     28  C   UNL     1       9.384   6.893  25.022  0.00  0.00    +0.031 C 
ATOM     29  C   UNL     1      10.699   7.108  25.688  0.00  0.00    -0.031 C 
ATOM     30  C   UNL     1      11.855   6.607  25.248  0.00  0.00    -0.031 C 
ATOM     31  C   UNL     1      11.989   5.779  24.022  0.00  0.00    +0.027 C 
ATOM     32  C   UNL     1      10.742   5.619  23.154  0.00  0.00    +0.009 C 
ENDBRANCH  26  27
ENDBRANCH  23  26
ENDBRANCH   2  20
TORSDOF 8
ENDMDL
MODEL 9
REMARK VINA RESULT:      -6.4      4.188      9.645
REMARK  Name = 
REMARK  9 active torsions:
REMARK  status: ('A' for Active; 'I' for Inactive)
REMARK    1  A    between atoms: C_1  and  C_2
REMARK    2  A    between atoms: C_2  and  O_3
REMARK    3  A    between atoms: O_3  and  C_4
REMARK    4  A    between atoms: C_6  and  N_7
REMARK    5  A    between atoms: C_8  and  N_27
REMARK    6  A    between atoms: C_10  and  C_11
REMARK    7  A    between atoms: N_13  and  C_14
REMARK    8  A    between atoms: N_17  and  C_18
REMARK    9  A    between atoms: C_18  and  C_19
REMARK                            x       y       z     vdW  Elec       q    Type
REMARK                         _______ _______ _______ _____ _____    ______ ____
ROOT
ATOM      1  C   UNL     1       9.583   2.086  22.766  0.00  0.00    +0.248 C 
ATOM      2  N   UNL     1       8.868   1.012  23.258  0.00  0.00    -0.308 N 
ATOM      3  H   UNL     1       8.218   1.210  24.011  0.00  0.00    +0.149 HD
ATOM      4  O   UNL     1      10.372   1.998  21.830  0.00  0.00    -0.270 OA
ENDROOT
BRANCH   1   6
ATOM      5  C   UNL     1      10.321   4.369  23.712  0.00  0.00    +0.135 A 
ATOM      6  C   UNL     1       9.320   3.421  23.418  0.00  0.00    +0.085 A 
ATOM      7  C   UNL     1       7.990   3.706  23.780  0.00  0.00    +0.103 A 
ATOM      8  C   UNL     1       7.665   4.900  24.456  0.00  0.00    +0.294 A 
ATOM      9  C   UNL     1       8.667   5.808  24.834  0.00  0.00    +0.106 A 
ATOM     10  C   UNL     1       9.977   5.528  24.426  0.00  0.00    +0.076 A 
BRANCH   8  11
ATOM     11  N   UNL     1       6.257   5.141  24.820  0.00  0.00    +0.082 N 
ATOM     12  O   UNL     1       5.996   5.333  26.015  0.00  0.00    +0.042 OA
ATOM     13  O   UNL     1       5.408   5.159  23.914  0.00  0.00    -0.576 OA
ENDBRANCH   8  11
BRANCH   9  14
ATOM     14  N   UNL     1       8.440   7.083  25.378  0.00  0.00    -0.353 N 
ATOM     15  H   UNL     1       7.569   7.158  25.913  0.00  0.00    +0.143 HD
ATOM     16  H   UNL     1       9.226   7.488  25.880  0.00  0.00    +0.143 HD
ENDBRANCH   9  14
BRANCH   5  17
ATOM     17  O   UNL     1      11.625   4.123  23.338  0.00  0.00    -0.491 OA
BRANCH  17  19
ATOM     18  C   UNL     1      13.177   5.529  22.137  0.00  0.00    +0.048 C 
ATOM     19  C   UNL     1      12.528   5.229  23.473  0.00  0.00    +0.226 C 
ENDBRANCH  17  19
ENDBRANCH   5  17
ENDBRANCH   1   6
BRANCH   2  20
ATOM     20  C   UNL     1       8.689  -0.249  22.544  0.00  0.00    +0.076 C 
ATOM     21  C   UNL     1       7.357  -0.884  22.964  0.00  0.00    +0.037 C 
ATOM     22  C   UNL     1       7.457  -1.549  24.338  0.00  0.00    +0.086 C 
ATOM     23  N   UNL     1       8.531  -2.546  24.437  0.00  0.00    -0.302 NA
ATOM     24  C   UNL     1       9.821  -1.920  24.122  0.00  0.00    +0.086 C 
ATOM     25  C   UNL     1       9.869  -1.200  22.772  0.00  0.00    +0.037 C 
BRANCH  23  26
ATOM     26  C   UNL     1       8.209  -3.749  23.648  0.00  0.00    +0.088 C 
BRANCH  26  27
ATOM     27  C   UNL     1       7.858  -5.026  24.454  0.00  0.00    +0.007 C 
ATOM     28  C   UNL     1       8.475  -4.994  25.865  0.00  0.00    +0.031 C 
ATOM     29  C   UNL     1       7.589  -5.356  27.007  0.00  0.00    -0.031 C 
ATOM     30  C   UNL     1       6.275  -5.569  26.901  0.00  0.00    -0.031 C 
ATOM     31  C   UNL     1       5.521  -5.491  25.624  0.00  0.00    +0.027 C 
ATOM     32  C   UNL     1       6.337  -5.289  24.348  0.00  0.00    +0.009 C 
ENDBRANCH  26  27
ENDBRANCH  23  26
ENDBRANCH   2  20
TORSDOF 8
ENDMDL
