MODEL 1
REMARK VINA RESULT:      -6.6      0.000      0.000
REMARK  Name = 
REMARK  10 active torsions:
REMARK  status: ('A' for Active; 'I' for Inactive)
REMARK    1  A    between atoms: N_12  and  C_13
REMARK    2  A    between atoms: C_16  and  C_17
REMARK    3  A    between atoms: C_17  and  C_18
REMARK    4  A    between atoms: C_17  and  O_19
REMARK    5  A    between atoms: C_17  and  C_20
REMARK    6  A    between atoms: C_20  and  C_21
REMARK    7  A    between atoms: C_21  and  C_22
REMARK    8  A    between atoms: C_23  and  O_24
REMARK    9  A    between atoms: O_24  and  C_25
REMARK   10  A    between atoms: C_28  and  O_29
REMARK                            x       y       z     vdW  Elec       q    Type
REMARK                         _______ _______ _______ _____ _____    ______ ____
ROOT
ATOM      1  C   UNL     1       6.548  -3.878  24.219  0.00  0.00    +0.072 C 
ATOM      2  C   UNL     1       6.476  -2.592  25.085  0.00  0.00    +0.018 C 
ATOM      3  C   UNL     1       5.546  -2.633  26.267  0.00  0.00    -0.019 C 
ATOM      4  C   UNL     1       5.720  -1.606  27.110  0.00  0.00    +0.008 C 
ATOM      5  C   UNL     1       6.734  -0.512  26.706  0.00  0.00    +0.130 C 
ATOM      6  C   UNL     1       8.134  -1.288  26.621  0.00  0.00    +0.221 C 
ATOM      7  O   UNL     1       9.286  -0.489  26.143  0.00  0.00    -0.481 OA
ATOM      8  C   UNL     1       9.543  -0.930  24.855  0.00  0.00    +0.166 A 
ATOM      9  C   UNL     1      10.291  -0.305  23.897  0.00  0.00    +0.159 A 
ATOM     10  C   UNL     1      10.237  -0.789  22.578  0.00  0.00    +0.049 A 
ATOM     11  C   UNL     1       9.414  -1.896  22.235  0.00  0.00    +0.008 A 
ATOM     12  C   UNL     1       8.639  -2.525  23.212  0.00  0.00    -0.038 A 
ATOM     13  C   UNL     1       8.774  -2.001  24.490  0.00  0.00    +0.012 A 
ATOM     14  C   UNL     1       6.488  -0.010  25.206  0.00  0.00    +0.061 C 
ATOM     15  C   UNL     1       5.954  -1.236  24.366  0.00  0.00    +0.023 C 
ATOM     16  C   UNL     1       7.955  -2.463  25.630  0.00  0.00    +0.051 C 
ATOM     17  C   UNL     1       8.704  -3.747  26.042  0.00  0.00    +0.031 C 
ATOM     18  C   UNL     1       7.741  -4.884  26.221  0.00  0.00    +0.085 C 
ATOM     19  N   UNL     1       6.875  -5.108  25.044  0.00  0.00    -0.301 NA
ATOM     20  C   UNL     1       5.701  -5.840  25.546  0.00  0.00    +0.105 C 
ATOM     21  C   UNL     1       7.627  -3.657  23.024  0.00  0.00    +0.055 C 
ENDROOT
BRANCH   5  22
ATOM     22  O   UNL     1       6.770   0.438  27.765  0.00  0.00    -0.368 OA
ATOM     23  C   UNL     1       5.613   0.506  28.602  0.00  0.00    +0.195 C 
ENDBRANCH   5  22
BRANCH   9  24
ATOM     24  O   UNL     1      10.990   0.826  24.188  0.00  0.00    -0.503 OA
ATOM     25  H   UNL     1      11.794   0.785  23.632  0.00  0.00    +0.292 HD
ENDBRANCH   9  24
BRANCH  14  26
ATOM     26  C   UNL     1       6.243   1.492  24.830  0.00  0.00    +0.069 C 
ATOM     27  C   UNL     1       4.893   2.011  25.301  0.00  0.00    +0.041 C 
BRANCH  26  28
ATOM     28  O   UNL     1       7.282   2.259  25.433  0.00  0.00    -0.388 OA
ATOM     29  H   UNL     1       7.804   1.699  26.027  0.00  0.00    +0.210 HD
ENDBRANCH  26  28
BRANCH  26  30
ATOM     30  C   UNL     1       6.443   1.761  23.287  0.00  0.00    +0.034 C 
BRANCH  30  31
ATOM     31  C   UNL     1       7.859   2.240  22.901  0.00  0.00    -0.001 C 
ATOM     32  C   UNL     1       8.266   1.858  21.485  0.00  0.00    +0.004 C 
ENDBRANCH  30  31
ENDBRANCH  26  30
ENDBRANCH  14  26
TORSDOF 6
ENDMDL
MODEL 2
REMARK VINA RESULT:      -6.6      2.538      5.445
REMARK  Name = 
REMARK  10 active torsions:
REMARK  status: ('A' for Active; 'I' for Inactive)
REMARK    1  A    between atoms: N_12  and  C_13
REMARK    2  A    between atoms: C_16  and  C_17
REMARK    3  A    between atoms: C_17  and  C_18
REMARK    4  A    between atoms: C_17  and  O_19
REMARK    5  A    between atoms: C_17  and  C_20
REMARK    6  A    between atoms: C_20  and  C_21
REMARK    7  A    between atoms: C_21  and  C_22
REMARK    8  A    between atoms: C_23  and  O_24
REMARK    9  A    between atoms: O_24  and  C_25
REMARK   10  A    between atoms: C_28  and  O_29
REMARK                            x       y       z     vdW  Elec       q    Type
REMARK                         _______ _______ _______ _____ _____    ______ ____
ROOT
ATOM      1  C   UNL     1       9.461  -1.576  24.285  0.00  0.00    +0.072 C 
ATOM      2  C   UNL     1       8.295  -1.727  25.298  0.00  0.00    +0.018 C 
ATOM      3  C   UNL     1       8.322  -0.812  26.492  0.00  0.00    -0.019 C 
ATOM      4  C   UNL     1       7.174  -0.810  27.181  0.00  0.00    +0.008 C 
ATOM      5  C   UNL     1       6.069  -1.793  26.734  0.00  0.00    +0.130 C 
ATOM      6  C   UNL     1       5.716  -1.332  25.240  0.00  0.00    +0.221 C 
ATOM      7  O   UNL     1       4.743  -2.182  24.515  0.00  0.00    -0.481 OA
ATOM      8  C   UNL     1       5.480  -2.888  23.580  0.00  0.00    +0.166 A 
ATOM      9  C   UNL     1       5.099  -4.007  22.894  0.00  0.00    +0.159 A 
ATOM     10  C   UNL     1       6.070  -4.718  22.169  0.00  0.00    +0.049 A 
ATOM     11  C   UNL     1       7.429  -4.298  22.155  0.00  0.00    +0.008 A 
ATOM     12  C   UNL     1       7.821  -3.163  22.868  0.00  0.00    -0.038 A 
ATOM     13  C   UNL     1       6.793  -2.508  23.532  0.00  0.00    +0.012 A 
ATOM     14  C   UNL     1       6.644  -3.276  26.546  0.00  0.00    +0.061 C 
ATOM     15  C   UNL     1       8.137  -3.156  26.047  0.00  0.00    +0.023 C 
ATOM     16  C   UNL     1       7.031  -1.353  24.424  0.00  0.00    +0.051 C 
ATOM     17  C   UNL     1       7.153  -0.201  23.406  0.00  0.00    +0.031 C 
ATOM     18  C   UNL     1       8.362   0.637  23.701  0.00  0.00    +0.085 C 
ATOM     19  N   UNL     1       9.611  -0.149  23.792  0.00  0.00    -0.301 NA
ATOM     20  C   UNL     1      10.546   0.676  24.574  0.00  0.00    +0.105 C 
ATOM     21  C   UNL     1       9.236  -2.612  23.054  0.00  0.00    +0.055 C 
ENDROOT
BRANCH   5  22
ATOM     22  O   UNL     1       4.948  -1.580  27.585  0.00  0.00    -0.368 OA
ATOM     23  C   UNL     1       4.788  -0.261  28.112  0.00  0.00    +0.195 C 
ENDBRANCH   5  22
BRANCH   9  24
ATOM     24  O   UNL     1       3.828  -4.485  22.995  0.00  0.00    -0.503 OA
ATOM     25  H   UNL     1       3.296  -3.941  22.381  0.00  0.00    +0.292 HD
ENDBRANCH   9  24
BRANCH  14  26
ATOM     26  C   UNL     1       6.057  -4.527  27.287  0.00  0.00    +0.069 C 
ATOM     27  C   UNL     1       7.109  -5.579  27.602  0.00  0.00    +0.041 C 
BRANCH  26  28
ATOM     28  O   UNL     1       5.466  -4.068  28.499  0.00  0.00    -0.388 OA
ATOM     29  H   UNL     1       6.157  -3.802  29.124  0.00  0.00    +0.210 HD
ENDBRANCH  26  28
BRANCH  26  30
ATOM     30  C   UNL     1       4.839  -5.163  26.509  0.00  0.00    +0.034 C 
BRANCH  30  31
ATOM     31  C   UNL     1       5.194  -6.420  25.687  0.00  0.00    -0.001 C 
ATOM     32  C   UNL     1       3.978  -7.221  25.243  0.00  0.00    +0.004 C 
ENDBRANCH  30  31
ENDBRANCH  26  30
ENDBRANCH  14  26
TORSDOF 6
ENDMDL
MODEL 3
REMARK VINA RESULT:      -6.5      2.495      5.800
REMARK  Name = 
REMARK  10 active torsions:
REMARK  status: ('A' for Active; 'I' for Inactive)
REMARK    1  A    between atoms: N_12  and  C_13
REMARK    2  A    between atoms: C_16  and  C_17
REMARK    3  A    between atoms: C_17  and  C_18
REMARK    4  A    between atoms: C_17  and  O_19
REMARK    5  A    between atoms: C_17  and  C_20
REMARK    6  A    between atoms: C_20  and  C_21
REMARK    7  A    between atoms: C_21  and  C_22
REMARK    8  A    between atoms: C_23  and  O_24
REMARK    9  A    between atoms: O_24  and  C_25
REMARK   10  A    between atoms: C_28  and  O_29
REMARK                            x       y       z     vdW  Elec       q    Type
REMARK                         _______ _______ _______ _____ _____    ______ ____
ROOT
ATOM      1  C   UNL     1       5.189  -0.346  25.893  0.00  0.00    +0.072 C 
ATOM      2  C   UNL     1       6.182  -1.041  24.923  0.00  0.00    +0.018 C 
ATOM      3  C   UNL     1       6.784  -0.176  23.850  0.00  0.00    -0.019 C 
ATOM      4  C   UNL     1       7.812  -0.758  23.218  0.00  0.00    +0.008 C 
ATOM      5  C   UNL     1       8.145  -2.220  23.592  0.00  0.00    +0.130 C 
ATOM      6  C   UNL     1       8.534  -2.148  25.145  0.00  0.00    +0.221 C 
ATOM      7  O   UNL     1       8.802  -3.448  25.804  0.00  0.00    -0.481 OA
ATOM      8  C   UNL     1       7.705  -3.696  26.612  0.00  0.00    +0.166 A 
ATOM      9  C   UNL     1       7.339  -4.886  27.173  0.00  0.00    +0.159 A 
ATOM     10  C   UNL     1       6.067  -4.992  27.761  0.00  0.00    +0.049 A 
ATOM     11  C   UNL     1       5.166  -3.892  27.765  0.00  0.00    +0.008 A 
ATOM     12  C   UNL     1       5.535  -2.679  27.179  0.00  0.00    -0.038 A 
ATOM     13  C   UNL     1       6.817  -2.656  26.647  0.00  0.00    +0.012 A 
ATOM     14  C   UNL     1       6.838  -3.144  23.571  0.00  0.00    +0.061 C 
ATOM     15  C   UNL     1       5.610  -2.255  24.013  0.00  0.00    +0.023 C 
ATOM     16  C   UNL     1       7.344  -1.499  25.892  0.00  0.00    +0.051 C 
ATOM     17  C   UNL     1       7.765  -0.555  27.037  0.00  0.00    +0.031 C 
ATOM     18  C   UNL     1       7.249   0.833  26.792  0.00  0.00    +0.085 C 
ATOM     19  N   UNL     1       5.792   0.881  26.549  0.00  0.00    -0.301 NA
ATOM     20  C   UNL     1       5.548   2.143  25.831  0.00  0.00    +0.105 C 
ATOM     21  C   UNL     1       4.679  -1.424  26.998  0.00  0.00    +0.055 C 
ENDROOT
BRANCH   5  22
ATOM     22  O   UNL     1       9.283  -2.600  22.825  0.00  0.00    -0.368 OA
ATOM     23  C   UNL     1      10.204  -1.560  22.490  0.00  0.00    +0.195 C 
ENDBRANCH   5  22
BRANCH   9  24
ATOM     24  O   UNL     1       8.143  -5.980  27.072  0.00  0.00    -0.503 OA
ATOM     25  H   UNL     1       8.837  -5.856  27.752  0.00  0.00    +0.292 HD
ENDBRANCH   9  24
BRANCH  14  26
ATOM     26  C   UNL     1       6.720  -4.449  22.711  0.00  0.00    +0.069 C 
ATOM     27  C   UNL     1       6.112  -4.204  21.338  0.00  0.00    +0.041 C 
BRANCH  26  28
ATOM     28  O   UNL     1       8.033  -4.982  22.560  0.00  0.00    -0.388 OA
ATOM     29  H   UNL     1       8.484  -4.997  23.416  0.00  0.00    +0.210 HD
ENDBRANCH  26  28
BRANCH  26  30
ATOM     30  C   UNL     1       5.948  -5.597  23.473  0.00  0.00    +0.034 C 
BRANCH  30  31
ATOM     31  C   UNL     1       4.422  -5.600  23.243  0.00  0.00    -0.001 C 
ATOM     32  C   UNL     1       3.615  -5.327  24.505  0.00  0.00    +0.004 C 
ENDBRANCH  30  31
ENDBRANCH  26  30
ENDBRANCH  14  26
TORSDOF 6
ENDMDL
MODEL 4
REMARK VINA RESULT:      -6.5      3.656      7.026
REMARK  Name = 
REMARK  10 active torsions:
REMARK  status: ('A' for Active; 'I' for Inactive)
REMARK    1  A    between atoms: N_12  and  C_13
REMARK    2  A    between atoms: C_16  and  C_17
REMARK    3  A    between atoms: C_17  and  C_18
REMARK    4  A    between atoms: C_17  and  O_19
REMARK    5  A    between atoms: C_17  and  C_20
REMARK    6  A    between atoms: C_20  and  C_21
REMARK    7  A    between atoms: C_21  and  C_22
REMARK    8  A    between atoms: C_23  and  O_24
REMARK    9  A    between atoms: O_24  and  C_25
REMARK   10  A    between atoms: C_28  and  O_29
REMARK                            x       y       z     vdW  Elec       q    Type
REMARK                         _______ _______ _______ _____ _____    ______ ____
ROOT
ATOM      1  C   UNL     1       5.117  -1.542  25.820  0.00  0.00    +0.072 C 
ATOM      2  C   UNL     1       5.269  -2.827  24.965  0.00  0.00    +0.018 C 
ATOM      3  C   UNL     1       5.703  -2.633  23.537  0.00  0.00    -0.019 C 
ATOM      4  C   UNL     1       6.062  -3.775  22.935  0.00  0.00    +0.008 C 
ATOM      5  C   UNL     1       5.880  -5.089  23.727  0.00  0.00    +0.130 C 
ATOM      6  C   UNL     1       6.836  -4.914  25.001  0.00  0.00    +0.221 C 
ATOM      7  O   UNL     1       6.779  -6.001  26.006  0.00  0.00    -0.481 OA
ATOM      8  C   UNL     1       6.089  -5.481  27.088  0.00  0.00    +0.166 A 
ATOM      9  C   UNL     1       5.516  -6.172  28.118  0.00  0.00    +0.159 A 
ATOM     10  C   UNL     1       4.655  -5.487  28.993  0.00  0.00    +0.049 A 
ATOM     11  C   UNL     1       4.369  -4.107  28.810  0.00  0.00    +0.008 A 
ATOM     12  C   UNL     1       4.944  -3.404  27.749  0.00  0.00    -0.038 A 
ATOM     13  C   UNL     1       5.800  -4.150  26.953  0.00  0.00    +0.012 A 
ATOM     14  C   UNL     1       4.415  -5.192  24.365  0.00  0.00    +0.061 C 
ATOM     15  C   UNL     1       3.943  -3.731  24.732  0.00  0.00    +0.023 C 
ATOM     16  C   UNL     1       6.416  -3.610  25.722  0.00  0.00    +0.051 C 
ATOM     17  C   UNL     1       7.599  -2.807  26.301  0.00  0.00    +0.031 C 
ATOM     18  C   UNL     1       7.650  -1.435  25.696  0.00  0.00    +0.085 C 
ATOM     19  N   UNL     1       6.376  -0.695  25.813  0.00  0.00    -0.301 NA
ATOM     20  C   UNL     1       6.415   0.337  24.764  0.00  0.00    +0.105 C 
ATOM     21  C   UNL     1       4.685  -1.955  27.332  0.00  0.00    +0.055 C 
ENDROOT
BRANCH   5  22
ATOM     22  O   UNL     1       6.360  -6.146  22.903  0.00  0.00    -0.368 OA
ATOM     23  C   UNL     1       6.467  -5.867  21.505  0.00  0.00    +0.195 C 
ENDBRANCH   5  22
BRANCH   9  24
ATOM     24  O   UNL     1       5.689  -7.517  28.235  0.00  0.00    -0.503 OA
ATOM     25  H   UNL     1       6.223  -7.779  27.459  0.00  0.00    +0.292 HD
ENDBRANCH   9  24
BRANCH  14  26
ATOM     26  C   UNL     1       3.444  -6.394  24.101  0.00  0.00    +0.069 C 
ATOM     27  C   UNL     1       2.434  -6.112  22.999  0.00  0.00    +0.041 C 
BRANCH  26  28
ATOM     28  O   UNL     1       4.242  -7.517  23.737  0.00  0.00    -0.388 OA
ATOM     29  H   UNL     1       5.159  -7.240  23.597  0.00  0.00    +0.210 HD
ENDBRANCH  26  28
BRANCH  26  30
ATOM     30  C   UNL     1       2.720  -6.876  25.419  0.00  0.00    +0.034 C 
BRANCH  30  31
ATOM     31  C   UNL     1       1.358  -6.199  25.682  0.00  0.00    -0.001 C 
ATOM     32  C   UNL     1       1.373  -5.242  26.866  0.00  0.00    +0.004 C 
ENDBRANCH  30  31
ENDBRANCH  26  30
ENDBRANCH  14  26
TORSDOF 6
ENDMDL
MODEL 5
REMARK VINA RESULT:      -6.3      2.527      5.288
REMARK  Name = 
REMARK  10 active torsions:
REMARK  status: ('A' for Active; 'I' for Inactive)
REMARK    1  A    between atoms: N_12  and  C_13
REMARK    2  A    between atoms: C_16  and  C_17
REMARK    3  A    between atoms: C_17  and  C_18
REMARK    4  A    between atoms: C_17  and  O_19
REMARK    5  A    between atoms: C_17  and  C_20
REMARK    6  A    between atoms: C_20  and  C_21
REMARK    7  A    between atoms: C_21  and  C_22
REMARK    8  A    between atoms: C_23  and  O_24
REMARK    9  A    between atoms: O_24  and  C_25
REMARK   10  A    between atoms: C_28  and  O_29
REMARK                            x       y       z     vdW  Elec       q    Type
REMARK                         _______ _______ _______ _____ _____    ______ ____
ROOT
ATOM      1  C   UNL     1      10.390   1.448  24.341  0.00  0.00    +0.072 C 
ATOM      2  C   UNL     1       8.847   1.503  24.492  0.00  0.00    +0.018 C 
ATOM      3  C   UNL     1       8.230   2.874  24.556  0.00  0.00    -0.019 C 
ATOM      4  C   UNL     1       6.896   2.858  24.426  0.00  0.00    +0.008 C 
ATOM      5  C   UNL     1       6.202   1.480  24.345  0.00  0.00    +0.130 C 
ATOM      6  C   UNL     1       6.807   0.814  23.019  0.00  0.00    +0.221 C 
ATOM      7  O   UNL     1       6.387  -0.581  22.748  0.00  0.00    -0.481 OA
ATOM      8  C   UNL     1       7.488  -1.370  23.036  0.00  0.00    +0.166 A 
ATOM      9  C   UNL     1       7.512  -2.721  23.240  0.00  0.00    +0.159 A 
ATOM     10  C   UNL     1       8.682  -3.304  23.756  0.00  0.00    +0.049 A 
ATOM     11  C   UNL     1       9.818  -2.512  24.076  0.00  0.00    +0.008 A 
ATOM     12  C   UNL     1       9.789  -1.129  23.880  0.00  0.00    -0.038 A 
ATOM     13  C   UNL     1       8.606  -0.642  23.342  0.00  0.00    +0.012 A 
ATOM     14  C   UNL     1       6.693   0.506  25.516  0.00  0.00    +0.061 C 
ATOM     15  C   UNL     1       8.203   0.846  25.828  0.00  0.00    +0.023 C 
ATOM     16  C   UNL     1       8.347   0.803  23.165  0.00  0.00    +0.051 C 
ATOM     17  C   UNL     1       9.102   1.088  21.851  0.00  0.00    +0.031 C 
ATOM     18  C   UNL     1       9.962   2.310  21.992  0.00  0.00    +0.085 C 
ATOM     19  N   UNL     1      10.880   2.249  23.150  0.00  0.00    -0.301 NA
ATOM     20  C   UNL     1      11.233   3.646  23.453  0.00  0.00    +0.105 C 
ATOM     21  C   UNL     1      10.863  -0.104  24.250  0.00  0.00    +0.055 C 
ENDROOT
BRANCH   5  22
ATOM     22  O   UNL     1       4.810   1.722  24.174  0.00  0.00    -0.368 OA
ATOM     23  C   UNL     1       4.310   2.963  24.677  0.00  0.00    +0.195 C 
ENDBRANCH   5  22
BRANCH   9  24
ATOM     24  O   UNL     1       6.394  -3.473  23.049  0.00  0.00    -0.503 OA
ATOM     25  H   UNL     1       6.445  -4.188  23.715  0.00  0.00    +0.292 HD
ENDBRANCH   9  24
BRANCH  14  26
ATOM     26  C   UNL     1       5.716  -0.184  26.529  0.00  0.00    +0.069 C 
ATOM     27  C   UNL     1       5.213   0.763  27.609  0.00  0.00    +0.041 C 
BRANCH  26  28
ATOM     28  O   UNL     1       4.610  -0.684  25.784  0.00  0.00    -0.388 OA
ATOM     29  H   UNL     1       4.334  -1.542  26.136  0.00  0.00    +0.210 HD
ENDBRANCH  26  28
BRANCH  26  30
ATOM     30  C   UNL     1       6.340  -1.486  27.168  0.00  0.00    +0.034 C 
BRANCH  30  31
ATOM     31  C   UNL     1       5.850  -2.805  26.534  0.00  0.00    -0.001 C 
ATOM     32  C   UNL     1       6.759  -3.993  26.819  0.00  0.00    +0.004 C 
ENDBRANCH  30  31
ENDBRANCH  26  30
ENDBRANCH  14  26
TORSDOF 6
ENDMDL
MODEL 6
REMARK VINA RESULT:      -6.3      3.263      6.194
REMARK  Name = 
REMARK  10 active torsions:
REMARK  status: ('A' for Active; 'I' for Inactive)
REMARK    1  A    between atoms: N_12  and  C_13
REMARK    2  A    between atoms: C_16  and  C_17
REMARK    3  A    between atoms: C_17  and  C_18
REMARK    4  A    between atoms: C_17  and  O_19
REMARK    5  A    between atoms: C_17  and  C_20
REMARK    6  A    between atoms: C_20  and  C_21
REMARK    7  A    between atoms: C_21  and  C_22
REMARK    8  A    between atoms: C_23  and  O_24
REMARK    9  A    between atoms: O_24  and  C_25
REMARK   10  A    between atoms: C_28  and  O_29
REMARK                            x       y       z     vdW  Elec       q    Type
REMARK                         _______ _______ _______ _____ _____    ______ ____
ROOT
ATOM      1  C   UNL     1       7.065  -0.929  24.298  0.00  0.00    +0.072 C 
ATOM      2  C   UNL     1       6.495  -2.240  23.694  0.00  0.00    +0.018 C 
ATOM      3  C   UNL     1       5.609  -2.091  22.487  0.00  0.00    -0.019 C 
ATOM      4  C   UNL     1       5.364  -3.252  21.866  0.00  0.00    +0.008 C 
ATOM      5  C   UNL     1       5.912  -4.541  22.518  0.00  0.00    +0.130 C 
ATOM      6  C   UNL     1       7.502  -4.337  22.512  0.00  0.00    +0.221 C 
ATOM      7  O   UNL     1       8.291  -5.395  23.186  0.00  0.00    -0.481 OA
ATOM      8  C   UNL     1       8.733  -4.838  24.374  0.00  0.00    +0.166 A 
ATOM      9  C   UNL     1       9.226  -5.494  25.466  0.00  0.00    +0.159 A 
ATOM     10  C   UNL     1       9.397  -4.778  26.663  0.00  0.00    +0.049 A 
ATOM     11  C   UNL     1       9.054  -3.401  26.750  0.00  0.00    +0.008 A 
ATOM     12  C   UNL     1       8.537  -2.734  25.637  0.00  0.00    -0.038 A 
ATOM     13  C   UNL     1       8.428  -3.510  24.492  0.00  0.00    +0.012 A 
ATOM     14  C   UNL     1       5.546  -4.614  24.074  0.00  0.00    +0.061 C 
ATOM     15  C   UNL     1       5.530  -3.139  24.637  0.00  0.00    +0.023 C 
ATOM     16  C   UNL     1       7.803  -3.010  23.249  0.00  0.00    +0.051 C 
ATOM     17  C   UNL     1       8.961  -2.200  22.630  0.00  0.00    +0.031 C 
ATOM     18  C   UNL     1       8.483  -0.846  22.194  0.00  0.00    +0.085 C 
ATOM     19  N   UNL     1       7.799  -0.093  23.267  0.00  0.00    -0.301 NA
ATOM     20  C   UNL     1       6.964   0.908  22.582  0.00  0.00    +0.105 C 
ATOM     21  C   UNL     1       8.022  -1.295  25.560  0.00  0.00    +0.055 C 
ENDROOT
BRANCH   5  22
ATOM     22  O   UNL     1       5.560  -5.625  21.664  0.00  0.00    -0.368 OA
ATOM     23  C   UNL     1       6.282  -5.730  20.435  0.00  0.00    +0.195 C 
ENDBRANCH   5  22
BRANCH   9  24
ATOM     24  O   UNL     1       9.448  -6.837  25.430  0.00  0.00    -0.503 OA
ATOM     25  H   UNL     1       8.566  -7.243  25.309  0.00  0.00    +0.292 HD
ENDBRANCH   9  24
BRANCH  14  26
ATOM     26  C   UNL     1       4.774  -5.815  24.721  0.00  0.00    +0.069 C 
ATOM     27  C   UNL     1       3.290  -5.537  24.911  0.00  0.00    +0.041 C 
BRANCH  26  28
ATOM     28  O   UNL     1       4.939  -6.942  23.864  0.00  0.00    -0.388 OA
ATOM     29  H   UNL     1       4.577  -6.746  22.988  0.00  0.00    +0.210 HD
ENDBRANCH  26  28
BRANCH  26  30
ATOM     30  C   UNL     1       5.435  -6.289  26.074  0.00  0.00    +0.034 C 
BRANCH  30  31
ATOM     31  C   UNL     1       4.845  -5.628  27.338  0.00  0.00    -0.001 C 
ATOM     32  C   UNL     1       5.868  -4.849  28.153  0.00  0.00    +0.004 C 
ENDBRANCH  30  31
ENDBRANCH  26  30
ENDBRANCH  14  26
TORSDOF 6
ENDMDL
MODEL 7
REMARK VINA RESULT:      -6.3      2.796      4.705
REMARK  Name = 
REMARK  10 active torsions:
REMARK  status: ('A' for Active; 'I' for Inactive)
REMARK    1  A    between atoms: N_12  and  C_13
REMARK    2  A    between atoms: C_16  and  C_17
REMARK    3  A    between atoms: C_17  and  C_18
REMARK    4  A    between atoms: C_17  and  O_19
REMARK    5  A    between atoms: C_17  and  C_20
REMARK    6  A    between atoms: C_20  and  C_21
REMARK    7  A    between atoms: C_21  and  C_22
REMARK    8  A    between atoms: C_23  and  O_24
REMARK    9  A    between atoms: O_24  and  C_25
REMARK   10  A    between atoms: C_28  and  O_29
REMARK                            x       y       z     vdW  Elec       q    Type
REMARK                         _______ _______ _______ _____ _____    ______ ____
ROOT
ATOM      1  C   UNL     1       9.288   0.802  22.409  0.00  0.00    +0.072 C 
ATOM      2  C   UNL     1       7.924   0.824  23.148  0.00  0.00    +0.018 C 
ATOM      3  C   UNL     1       7.150  -0.466  23.164  0.00  0.00    -0.019 C 
ATOM      4  C   UNL     1       6.123  -0.455  24.024  0.00  0.00    +0.008 C 
ATOM      5  C   UNL     1       5.825   0.868  24.764  0.00  0.00    +0.130 C 
ATOM      6  C   UNL     1       7.151   1.145  25.620  0.00  0.00    +0.221 C 
ATOM      7  O   UNL     1       7.186   2.428  26.361  0.00  0.00    -0.481 OA
ATOM      8  C   UNL     1       8.072   3.239  25.672  0.00  0.00    +0.166 A 
ATOM      9  C   UNL     1       8.208   4.594  25.774  0.00  0.00    +0.159 A 
ATOM     10  C   UNL     1       8.993   5.267  24.821  0.00  0.00    +0.049 A 
ATOM     11  C   UNL     1       9.625   4.562  23.760  0.00  0.00    +0.008 A 
ATOM     12  C   UNL     1       9.473   3.178  23.649  0.00  0.00    -0.038 A 
ATOM     13  C   UNL     1       8.706   2.593  24.646  0.00  0.00    +0.012 A 
ATOM     14  C   UNL     1       5.762   2.107  23.752  0.00  0.00    +0.061 C 
ATOM     15  C   UNL     1       6.783   1.826  22.580  0.00  0.00    +0.023 C 
ATOM     16  C   UNL     1       8.345   1.159  24.636  0.00  0.00    +0.051 C 
ATOM     17  C   UNL     1       9.630   0.518  25.201  0.00  0.00    +0.031 C 
ATOM     18  C   UNL     1      10.057  -0.642  24.350  0.00  0.00    +0.085 C 
ATOM     19  N   UNL     1      10.200  -0.298  22.920  0.00  0.00    -0.301 NA
ATOM     20  C   UNL     1      10.093  -1.572  22.190  0.00  0.00    +0.105 C 
ATOM     21  C   UNL     1       9.988   2.263  22.535  0.00  0.00    +0.055 C 
ENDROOT
BRANCH   5  22
ATOM     22  O   UNL     1       4.728   0.622  25.637  0.00  0.00    -0.368 OA
ATOM     23  C   UNL     1       4.900  -0.420  26.601  0.00  0.00    +0.195 C 
ENDBRANCH   5  22
BRANCH   9  24
ATOM     24  O   UNL     1       7.515   5.295  26.713  0.00  0.00    -0.503 OA
ATOM     25  H   UNL     1       6.580   5.034  26.594  0.00  0.00    +0.292 HD
ENDBRANCH   9  24
BRANCH  14  26
ATOM     26  C   UNL     1       4.525   3.062  23.636  0.00  0.00    +0.069 C 
ATOM     27  C   UNL     1       4.085   3.295  22.199  0.00  0.00    +0.041 C 
BRANCH  26  28
ATOM     28  O   UNL     1       3.457   2.470  24.369  0.00  0.00    -0.388 OA
ATOM     29  H   UNL     1       3.795   1.751  24.923  0.00  0.00    +0.210 HD
ENDBRANCH  26  28
BRANCH  26  30
ATOM     30  C   UNL     1       4.760   4.434  24.382  0.00  0.00    +0.034 C 
BRANCH  30  31
ATOM     31  C   UNL     1       5.452   5.515  23.526  0.00  0.00    -0.001 C 
ATOM     32  C   UNL     1       5.556   6.867  24.218  0.00  0.00    +0.004 C 
ENDBRANCH  30  31
ENDBRANCH  26  30
ENDBRANCH  14  26
TORSDOF 6
ENDMDL
MODEL 8
REMARK VINA RESULT:      -6.2      2.552      5.839
REMARK  Name = 
REMARK  10 active torsions:
REMARK  status: ('A' for Active; 'I' for Inactive)
REMARK    1  A    between atoms: N_12  and  C_13
REMARK    2  A    between atoms: C_16  and  C_17
REMARK    3  A    between atoms: C_17  and  C_18
REMARK    4  A    between atoms: C_17  and  O_19
REMARK    5  A    between atoms: C_17  and  C_20
REMARK    6  A    between atoms: C_20  and  C_21
REMARK    7  A    between atoms: C_21  and  C_22
REMARK    8  A    between atoms: C_23  and  O_24
REMARK    9  A    between atoms: O_24  and  C_25
REMARK   10  A    between atoms: C_28  and  O_29
REMARK                            x       y       z     vdW  Elec       q    Type
REMARK                         _______ _______ _______ _____ _____    ______ ____
ROOT
ATOM      1  C   UNL     1       7.820   0.696  23.416  0.00  0.00    +0.072 C 
ATOM      2  C   UNL     1       8.044  -0.838  23.463  0.00  0.00    +0.018 C 
ATOM      3  C   UNL     1       9.227  -1.365  22.696  0.00  0.00    -0.019 C 
ATOM      4  C   UNL     1       9.515  -2.642  22.983  0.00  0.00    +0.008 C 
ATOM      5  C   UNL     1       8.560  -3.394  23.937  0.00  0.00    +0.130 C 
ATOM      6  C   UNL     1       8.657  -2.575  25.312  0.00  0.00    +0.221 C 
ATOM      7  O   UNL     1       7.747  -3.020  26.394  0.00  0.00    -0.481 OA
ATOM      8  C   UNL     1       6.758  -2.054  26.477  0.00  0.00    +0.166 A 
ATOM      9  C   UNL     1       5.544  -2.161  27.094  0.00  0.00    +0.159 A 
ATOM     10  C   UNL     1       4.582  -1.162  26.866  0.00  0.00    +0.049 A 
ATOM     11  C   UNL     1       4.852  -0.066  26.002  0.00  0.00    +0.008 A 
ATOM     12  C   UNL     1       6.088   0.035  25.360  0.00  0.00    -0.038 A 
ATOM     13  C   UNL     1       6.986  -0.979  25.664  0.00  0.00    +0.012 A 
ATOM     14  C   UNL     1       7.031  -3.217  23.498  0.00  0.00    +0.061 C 
ATOM     15  C   UNL     1       6.875  -1.784  22.854  0.00  0.00    +0.023 C 
ATOM     16  C   UNL     1       8.302  -1.101  25.001  0.00  0.00    +0.051 C 
ATOM     17  C   UNL     1       9.139  -0.076  25.794  0.00  0.00    +0.031 C 
ATOM     18  C   UNL     1       9.904   0.815  24.859  0.00  0.00    +0.085 C 
ATOM     19  N   UNL     1       9.052   1.470  23.845  0.00  0.00    -0.301 NA
ATOM     20  C   UNL     1       9.956   1.844  22.744  0.00  0.00    +0.105 C 
ATOM     21  C   UNL     1       6.529   1.075  24.329  0.00  0.00    +0.055 C 
ENDROOT
BRANCH   5  22
ATOM     22  O   UNL     1       9.090  -4.703  24.115  0.00  0.00    -0.368 OA
ATOM     23  C   UNL     1       9.818  -4.938  25.323  0.00  0.00    +0.195 C 
ENDBRANCH   5  22
BRANCH   9  24
ATOM     24  O   UNL     1       5.231  -3.263  27.829  0.00  0.00    -0.503 OA
ATOM     25  H   UNL     1       4.263  -3.373  27.735  0.00  0.00    +0.292 HD
ENDBRANCH   9  24
BRANCH  14  26
ATOM     26  C   UNL     1       6.073  -4.423  23.211  0.00  0.00    +0.069 C 
ATOM     27  C   UNL     1       6.305  -5.056  21.847  0.00  0.00    +0.041 C 
BRANCH  26  28
ATOM     28  O   UNL     1       6.293  -5.396  24.228  0.00  0.00    -0.388 OA
ATOM     29  H   UNL     1       7.138  -5.844  24.080  0.00  0.00    +0.210 HD
ENDBRANCH  26  28
BRANCH  26  30
ATOM     30  C   UNL     1       4.554  -4.037  23.401  0.00  0.00    +0.034 C 
BRANCH  30  31
ATOM     31  C   UNL     1       3.918  -4.573  24.701  0.00  0.00    -0.001 C 
ATOM     32  C   UNL     1       2.705  -3.775  25.160  0.00  0.00    +0.004 C 
ENDBRANCH  30  31
ENDBRANCH  26  30
ENDBRANCH  14  26
TORSDOF 6
ENDMDL
MODEL 9
REMARK VINA RESULT:      -6.1      3.322      6.096
REMARK  Name = 
REMARK  10 active torsions:
REMARK  status: ('A' for Active; 'I' for Inactive)
REMARK    1  A    between atoms: N_12  and  C_13
REMARK    2  A    between atoms: C_16  and  C_17
REMARK    3  A    between atoms: C_17  and  C_18
REMARK    4  A    between atoms: C_17  and  O_19
REMARK    5  A    between atoms: C_17  and  C_20
REMARK    6  A    between atoms: C_20  and  C_21
REMARK    7  A    between atoms: C_21  and  C_22
REMARK    8  A    between atoms: C_23  and  O_24
REMARK    9  A    between atoms: O_24  and  C_25
REMARK   10  A    between atoms: C_28  and  O_29
REMARK                            x       y       z     vdW  Elec       q    Type
REMARK                         _______ _______ _______ _____ _____    ______ ____
ROOT
ATOM      1  C   UNL     1       8.428  -2.691  25.108  0.00  0.00    +0.072 C 
ATOM      2  C   UNL     1       7.031  -2.981  25.717  0.00  0.00    +0.018 C 
ATOM      3  C   UNL     1       6.575  -2.058  26.814  0.00  0.00    -0.019 C 
ATOM      4  C   UNL     1       5.277  -2.197  27.114  0.00  0.00    +0.008 C 
ATOM      5  C   UNL     1       4.493  -3.320  26.398  0.00  0.00    +0.130 C 
ATOM      6  C   UNL     1       4.572  -2.924  24.847  0.00  0.00    +0.221 C 
ATOM      7  O   UNL     1       3.983  -3.900  23.900  0.00  0.00    -0.481 OA
ATOM      8  C   UNL     1       5.055  -4.515  23.276  0.00  0.00    +0.166 A 
ATOM      9  C   UNL     1       5.043  -5.680  22.562  0.00  0.00    +0.159 A 
ATOM     10  C   UNL     1       6.271  -6.267  22.210  0.00  0.00    +0.049 A 
ATOM     11  C   UNL     1       7.505  -5.676  22.595  0.00  0.00    +0.008 A 
ATOM     12  C   UNL     1       7.516  -4.492  23.335  0.00  0.00    -0.038 A 
ATOM     13  C   UNL     1       6.262  -3.968  23.616  0.00  0.00    +0.012 A 
ATOM     14  C   UNL     1       5.270  -4.717  26.472  0.00  0.00    +0.061 C 
ATOM     15  C   UNL     1       6.819  -4.411  26.452  0.00  0.00    +0.023 C 
ATOM     16  C   UNL     1       6.068  -2.783  24.478  0.00  0.00    +0.051 C 
ATOM     17  C   UNL     1       6.364  -1.636  23.491  0.00  0.00    +0.031 C 
ATOM     18  C   UNL     1       7.312  -0.646  24.102  0.00  0.00    +0.085 C 
ATOM     19  N   UNL     1       8.554  -1.263  24.614  0.00  0.00    -0.301 NA
ATOM     20  C   UNL     1       9.092  -0.316  25.604  0.00  0.00    +0.105 C 
ATOM     21  C   UNL     1       8.726  -3.761  23.921  0.00  0.00    +0.055 C 
ENDROOT
BRANCH   5  22
ATOM     22  O   UNL     1       3.145  -3.244  26.849  0.00  0.00    -0.368 OA
ATOM     23  C   UNL     1       2.795  -2.097  27.626  0.00  0.00    +0.195 C 
ENDBRANCH   5  22
BRANCH   9  24
ATOM     24  O   UNL     1       3.872  -6.318  22.290  0.00  0.00    -0.503 OA
ATOM     25  H   UNL     1       3.983  -7.226  22.636  0.00  0.00    +0.292 HD
ENDBRANCH   9  24
BRANCH  14  26
ATOM     26  C   UNL     1       4.635  -6.026  27.057  0.00  0.00    +0.069 C 
ATOM     27  C   UNL     1       3.650  -6.686  26.104  0.00  0.00    +0.041 C 
BRANCH  26  28
ATOM     28  O   UNL     1       5.700  -6.929  27.339  0.00  0.00    -0.388 OA
ATOM     29  H   UNL     1       5.527  -7.785  26.921  0.00  0.00    +0.210 HD
ENDBRANCH  26  28
BRANCH  26  30
ATOM     30  C   UNL     1       3.977  -5.788  28.472  0.00  0.00    +0.034 C 
BRANCH  30  31
ATOM     31  C   UNL     1       4.921  -5.150  29.514  0.00  0.00    -0.001 C 
ATOM     32  C   UNL     1       4.234  -4.134  30.417  0.00  0.00    +0.004 C 
ENDBRANCH  30  31
ENDBRANCH  26  30
ENDBRANCH  14  26
TORSDOF 6
ENDMDL
