MODEL 1
REMARK VINA RESULT:      -6.2      0.000      0.000
REMARK  Name = 
REMARK  13 active torsions:
REMARK  status: ('A' for Active; 'I' for Inactive)
REMARK    1  A    between atoms: C_2  and  C_3
REMARK    2  A    between atoms: C_2  and  N_7
REMARK    3  A    between atoms: C_2  and  P_15
REMARK    4  A    between atoms: C_3  and  C_4
REMARK    5  A    between atoms: C_4  and  C_5
REMARK    6  A    between atoms: C_5  and  C_6
REMARK    7  A    between atoms: C_8  and  C_10
REMARK    8  A    between atoms: C_10  and  C_11
REMARK    9  A    between atoms: C_11  and  C_12
REMARK   10  A    between atoms: C_12  and  O_13
REMARK   11  A    between atoms: P_15  and  O_16
REMARK   12  A    between atoms: P_15  and  O_18
REMARK   13  A    between atoms: O_18  and  C_19
REMARK                            x       y       z     vdW  Elec       q    Type
REMARK                         _______ _______ _______ _____ _____    ______ ____
ROOT
ATOM      1  C   UNL     1       8.882  -2.787  25.346  0.00  0.00    +0.200 C 
ENDROOT
BRANCH   1   2
ATOM      2  N   UNL     1       9.419  -2.253  24.094  0.00  0.00    -0.301 N 
ATOM      3  H   UNL     1       9.253  -2.750  23.229  0.00  0.00    +0.150 HD
ATOM      4  C   UNL     1      10.018  -1.010  24.063  0.00  0.00    +0.214 C 
ATOM      5  O   UNL     1      10.162  -0.291  25.048  0.00  0.00    -0.276 OA
BRANCH   4   6
ATOM      6  C   UNL     1      10.450  -0.486  22.704  0.00  0.00    +0.107 C 
BRANCH   6   7
ATOM      7  C   UNL     1       9.256  -0.054  21.857  0.00  0.00    +0.129 C 
BRANCH   7   8
ATOM      8  C   UNL     1       9.016   1.417  21.570  0.00  0.00    +0.305 C 
ATOM      9  O   UNL     1       7.886   1.841  21.342  0.00  0.00    -0.251 OA
BRANCH   8  10
ATOM     10  O   UNL     1      10.067   2.248  21.573  0.00  0.00    -0.481 OA
ATOM     11  H   UNL     1      10.403   2.544  22.460  0.00  0.00    +0.295 HD
ENDBRANCH   8  10
ENDBRANCH   7   8
ENDBRANCH   6   7
ENDBRANCH   4   6
ENDBRANCH   1   2
BRANCH   1  12
ATOM     12  P   UNL     1       8.965  -4.798  25.418  0.00  0.00    +0.399 P 
ATOM     13  O   UNL     1      10.434  -5.212  25.240  0.00  0.00    -0.242 OA
BRANCH  12  14
ATOM     14  O   UNL     1       9.294  -4.660  27.110  0.00  0.00    -0.314 OA
ATOM     15  H   UNL     1       9.276  -3.688  27.267  0.00  0.00    +0.221 HD
ENDBRANCH  12  14
BRANCH  12  16
ATOM     16  O   UNL     1       8.635  -4.935  23.725  0.00  0.00    -0.423 OA
BRANCH  16  17
ATOM     17  C   UNL     1       7.386  -5.276  23.291  0.00  0.00    +0.130 A 
ATOM     18  C   UNL     1       7.050  -5.404  21.947  0.00  0.00    +0.046 A 
ATOM     19  C   UNL     1       5.745  -5.751  21.591  0.00  0.00    +0.004 A 
ATOM     20  C   UNL     1       4.780  -5.963  22.578  0.00  0.00    +0.000 A 
ATOM     21  C   UNL     1       5.113  -5.800  23.921  0.00  0.00    +0.004 A 
ATOM     22  C   UNL     1       6.413  -5.444  24.276  0.00  0.00    +0.046 A 
ENDBRANCH  16  17
ENDBRANCH  12  16
ENDBRANCH   1  12
BRANCH   1  23
ATOM     23  C   UNL     1       7.455  -2.352  25.711  0.00  0.00    +0.036 C 
BRANCH  23  24
ATOM     24  C   UNL     1       6.769  -1.794  24.456  0.00  0.00    +0.002 C 
BRANCH  24  25
ATOM     25  C   UNL     1       5.854  -0.603  24.708  0.00  0.00    -0.003 C 
ATOM     26  C   UNL     1       6.621   0.693  24.463  0.00  0.00    +0.004 C 
ENDBRANCH  24  25
ENDBRANCH  23  24
ENDBRANCH   1  23
TORSDOF 12
ENDMDL
MODEL 2
REMARK VINA RESULT:      -6.0      2.454      3.131
REMARK  Name = 
REMARK  13 active torsions:
REMARK  status: ('A' for Active; 'I' for Inactive)
REMARK    1  A    between atoms: C_2  and  C_3
REMARK    2  A    between atoms: C_2  and  N_7
REMARK    3  A    between atoms: C_2  and  P_15
REMARK    4  A    between atoms: C_3  and  C_4
REMARK    5  A    between atoms: C_4  and  C_5
REMARK    6  A    between atoms: C_5  and  C_6
REMARK    7  A    between atoms: C_8  and  C_10
REMARK    8  A    between atoms: C_10  and  C_11
REMARK    9  A    between atoms: C_11  and  C_12
REMARK   10  A    between atoms: C_12  and  O_13
REMARK   11  A    between atoms: P_15  and  O_16
REMARK   12  A    between atoms: P_15  and  O_18
REMARK   13  A    between atoms: O_18  and  C_19
REMARK                            x       y       z     vdW  Elec       q    Type
REMARK                         _______ _______ _______ _____ _____    ______ ____
ROOT
ATOM      1  C   UNL     1       9.340  -1.257  24.222  0.00  0.00    +0.200 C 
ENDROOT
BRANCH   1   2
ATOM      2  N   UNL     1       8.678   0.021  24.485  0.00  0.00    -0.301 N 
ATOM      3  H   UNL     1       7.717   0.028  24.800  0.00  0.00    +0.150 HD
ATOM      4  C   UNL     1       9.393   1.201  24.449  0.00  0.00    +0.214 C 
ATOM      5  O   UNL     1      10.590   1.273  24.183  0.00  0.00    -0.276 OA
BRANCH   4   6
ATOM      6  C   UNL     1       8.653   2.469  24.840  0.00  0.00    +0.107 C 
BRANCH   6   7
ATOM      7  C   UNL     1       8.408   3.376  23.637  0.00  0.00    +0.129 C 
BRANCH   7   8
ATOM      8  C   UNL     1       8.142   2.774  22.269  0.00  0.00    +0.305 C 
ATOM      9  O   UNL     1       6.994   2.641  21.849  0.00  0.00    -0.251 OA
BRANCH   8  10
ATOM     10  O   UNL     1       9.188   2.392  21.525  0.00  0.00    -0.481 OA
ATOM     11  H   UNL     1      10.030   2.908  21.636  0.00  0.00    +0.295 HD
ENDBRANCH   8  10
ENDBRANCH   7   8
ENDBRANCH   6   7
ENDBRANCH   4   6
ENDBRANCH   1   2
BRANCH   1  12
ATOM     12  P   UNL     1       9.101  -1.865  22.317  0.00  0.00    +0.399 P 
ATOM     13  O   UNL     1       9.048  -0.611  21.429  0.00  0.00    -0.242 OA
BRANCH  12  14
ATOM     14  O   UNL     1      10.821  -1.809  22.150  0.00  0.00    -0.314 OA
ATOM     15  H   UNL     1      10.984  -0.918  21.765  0.00  0.00    +0.221 HD
ENDBRANCH  12  14
BRANCH  12  16
ATOM     16  O   UNL     1       7.379  -1.920  22.484  0.00  0.00    -0.423 OA
BRANCH  16  17
ATOM     17  C   UNL     1       6.733  -3.121  22.567  0.00  0.00    +0.130 A 
ATOM     18  C   UNL     1       7.322  -4.333  22.217  0.00  0.00    +0.046 A 
ATOM     19  C   UNL     1       6.586  -5.514  22.327  0.00  0.00    +0.004 A 
ATOM     20  C   UNL     1       5.266  -5.481  22.782  0.00  0.00    +0.000 A 
ATOM     21  C   UNL     1       4.670  -4.262  23.098  0.00  0.00    +0.004 A 
ATOM     22  C   UNL     1       5.401  -3.080  22.978  0.00  0.00    +0.046 A 
ENDBRANCH  16  17
ENDBRANCH  12  16
ENDBRANCH   1  12
BRANCH   1  23
ATOM     23  C   UNL     1       8.958  -2.421  25.149  0.00  0.00    +0.036 C 
BRANCH  23  24
ATOM     24  C   UNL     1       7.776  -1.988  26.028  0.00  0.00    +0.002 C 
BRANCH  24  25
ATOM     25  C   UNL     1       6.854  -3.123  26.454  0.00  0.00    -0.003 C 
ATOM     26  C   UNL     1       7.418  -4.453  25.964  0.00  0.00    +0.004 C 
ENDBRANCH  24  25
ENDBRANCH  23  24
ENDBRANCH   1  23
TORSDOF 12
ENDMDL
MODEL 3
REMARK VINA RESULT:      -6.0      2.624      6.486
REMARK  Name = 
REMARK  13 active torsions:
REMARK  status: ('A' for Active; 'I' for Inactive)
REMARK    1  A    between atoms: C_2  and  C_3
REMARK    2  A    between atoms: C_2  and  N_7
REMARK    3  A    between atoms: C_2  and  P_15
REMARK    4  A    between atoms: C_3  and  C_4
REMARK    5  A    between atoms: C_4  and  C_5
REMARK    6  A    between atoms: C_5  and  C_6
REMARK    7  A    between atoms: C_8  and  C_10
REMARK    8  A    between atoms: C_10  and  C_11
REMARK    9  A    between atoms: C_11  and  C_12
REMARK   10  A    between atoms: C_12  and  O_13
REMARK   11  A    between atoms: P_15  and  O_16
REMARK   12  A    between atoms: P_15  and  O_18
REMARK   13  A    between atoms: O_18  and  C_19
REMARK                            x       y       z     vdW  Elec       q    Type
REMARK                         _______ _______ _______ _____ _____    ______ ____
ROOT
ATOM      1  C   UNL     1       7.611  -5.328  24.390  0.00  0.00    +0.200 C 
ENDROOT
BRANCH   1   2
ATOM      2  N   UNL     1       6.299  -4.796  24.760  0.00  0.00    -0.301 N 
ATOM      3  H   UNL     1       5.920  -4.008  24.252  0.00  0.00    +0.150 HD
ATOM      4  C   UNL     1       5.516  -5.448  25.691  0.00  0.00    +0.214 C 
ATOM      5  O   UNL     1       5.853  -6.474  26.276  0.00  0.00    -0.276 OA
BRANCH   4   6
ATOM      6  C   UNL     1       4.125  -4.888  25.937  0.00  0.00    +0.107 C 
BRANCH   6   7
ATOM      7  C   UNL     1       3.045  -5.744  25.282  0.00  0.00    +0.129 C 
BRANCH   7   8
ATOM      8  C   UNL     1       3.237  -6.266  23.870  0.00  0.00    +0.305 C 
ATOM      9  O   UNL     1       3.091  -5.529  22.898  0.00  0.00    -0.251 OA
BRANCH   8  10
ATOM     10  O   UNL     1       3.574  -7.552  23.706  0.00  0.00    -0.481 OA
ATOM     11  H   UNL     1       4.536  -7.781  23.811  0.00  0.00    +0.295 HD
ENDBRANCH   8  10
ENDBRANCH   7   8
ENDBRANCH   6   7
ENDBRANCH   4   6
ENDBRANCH   1   2
BRANCH   1  12
ATOM     12  P   UNL     1       9.122  -4.256  25.179  0.00  0.00    +0.399 P 
ATOM     13  O   UNL     1       8.853  -4.106  26.685  0.00  0.00    -0.242 OA
BRANCH  12  14
ATOM     14  O   UNL     1       9.904  -5.753  25.552  0.00  0.00    -0.314 OA
ATOM     15  H   UNL     1       9.181  -6.416  25.461  0.00  0.00    +0.221 HD
ENDBRANCH  12  14
BRANCH  12  16
ATOM     16  O   UNL     1       8.339  -2.759  24.806  0.00  0.00    -0.423 OA
BRANCH  16  17
ATOM     17  C   UNL     1       8.946  -1.849  23.988  0.00  0.00    +0.130 A 
ATOM     18  C   UNL     1       9.756  -0.819  24.457  0.00  0.00    +0.046 A 
ATOM     19  C   UNL     1      10.334   0.073  23.550  0.00  0.00    +0.004 A 
ATOM     20  C   UNL     1      10.097  -0.065  22.181  0.00  0.00    +0.000 A 
ATOM     21  C   UNL     1       9.258  -1.077  21.720  0.00  0.00    +0.004 A 
ATOM     22  C   UNL     1       8.672  -1.961  22.625  0.00  0.00    +0.046 A 
ENDBRANCH  16  17
ENDBRANCH  12  16
ENDBRANCH   1  12
BRANCH   1  23
ATOM     23  C   UNL     1       7.873  -5.494  22.885  0.00  0.00    +0.036 C 
BRANCH  23  24
ATOM     24  C   UNL     1       6.719  -6.294  22.264  0.00  0.00    +0.002 C 
BRANCH  24  25
ATOM     25  C   UNL     1       6.093  -5.652  21.033  0.00  0.00    -0.003 C 
ATOM     26  C   UNL     1       5.999  -4.142  21.234  0.00  0.00    +0.004 C 
ENDBRANCH  24  25
ENDBRANCH  23  24
ENDBRANCH   1  23
TORSDOF 12
ENDMDL
MODEL 4
REMARK VINA RESULT:      -6.0      2.525      5.941
REMARK  Name = 
REMARK  13 active torsions:
REMARK  status: ('A' for Active; 'I' for Inactive)
REMARK    1  A    between atoms: C_2  and  C_3
REMARK    2  A    between atoms: C_2  and  N_7
REMARK    3  A    between atoms: C_2  and  P_15
REMARK    4  A    between atoms: C_3  and  C_4
REMARK    5  A    between atoms: C_4  and  C_5
REMARK    6  A    between atoms: C_5  and  C_6
REMARK    7  A    between atoms: C_8  and  C_10
REMARK    8  A    between atoms: C_10  and  C_11
REMARK    9  A    between atoms: C_11  and  C_12
REMARK   10  A    between atoms: C_12  and  O_13
REMARK   11  A    between atoms: P_15  and  O_16
REMARK   12  A    between atoms: P_15  and  O_18
REMARK   13  A    between atoms: O_18  and  C_19
REMARK                            x       y       z     vdW  Elec       q    Type
REMARK                         _______ _______ _______ _____ _____    ______ ____
ROOT
ATOM      1  C   UNL     1       9.161  -1.462  24.766  0.00  0.00    +0.200 C 
ENDROOT
BRANCH   1   2
ATOM      2  N   UNL     1       8.284  -2.463  24.158  0.00  0.00    -0.301 N 
ATOM      3  H   UNL     1       7.451  -2.164  23.668  0.00  0.00    +0.150 HD
ATOM      4  C   UNL     1       8.658  -3.791  24.121  0.00  0.00    +0.214 C 
ATOM      5  O   UNL     1       9.705  -4.225  24.595  0.00  0.00    -0.276 OA
BRANCH   4   6
ATOM      6  C   UNL     1       7.740  -4.746  23.377  0.00  0.00    +0.107 C 
BRANCH   6   7
ATOM      7  C   UNL     1       6.302  -4.235  23.335  0.00  0.00    +0.129 C 
BRANCH   7   8
ATOM      8  C   UNL     1       5.883  -3.221  22.286  0.00  0.00    +0.305 C 
ATOM      9  O   UNL     1       5.538  -3.581  21.163  0.00  0.00    -0.251 OA
BRANCH   8  10
ATOM     10  O   UNL     1       5.894  -1.923  22.612  0.00  0.00    -0.481 OA
ATOM     11  H   UNL     1       6.761  -1.544  22.918  0.00  0.00    +0.295 HD
ENDBRANCH   8  10
ENDBRANCH   7   8
ENDBRANCH   6   7
ENDBRANCH   4   6
ENDBRANCH   1   2
BRANCH   1  12
ATOM     12  P   UNL     1       8.152  -0.171  25.937  0.00  0.00    +0.399 P 
ATOM     13  O   UNL     1       7.066  -0.966  26.681  0.00  0.00    -0.242 OA
BRANCH  12  14
ATOM     14  O   UNL     1       9.228  -0.597  27.223  0.00  0.00    -0.314 OA
ATOM     15  H   UNL     1      10.080  -0.767  26.759  0.00  0.00    +0.221 HD
ENDBRANCH  12  14
BRANCH  12  16
ATOM     16  O   UNL     1       7.076   0.254  24.651  0.00  0.00    -0.423 OA
BRANCH  16  17
ATOM     17  C   UNL     1       7.146   1.491  24.074  0.00  0.00    +0.130 A 
ATOM     18  C   UNL     1       7.811   2.568  24.652  0.00  0.00    +0.046 A 
ATOM     19  C   UNL     1       7.828   3.801  23.995  0.00  0.00    +0.004 A 
ATOM     20  C   UNL     1       7.180   3.953  22.768  0.00  0.00    +0.000 A 
ATOM     21  C   UNL     1       6.487   2.880  22.211  0.00  0.00    +0.004 A 
ATOM     22  C   UNL     1       6.460   1.653  22.871  0.00  0.00    +0.046 A 
ENDBRANCH  16  17
ENDBRANCH  12  16
ENDBRANCH   1  12
BRANCH   1  23
ATOM     23  C   UNL     1      10.034  -0.649  23.797  0.00  0.00    +0.036 C 
BRANCH  23  24
ATOM     24  C   UNL     1       9.662  -1.029  22.356  0.00  0.00    +0.002 C 
BRANCH  24  25
ATOM     25  C   UNL     1       9.429   0.157  21.429  0.00  0.00    -0.003 C 
ATOM     26  C   UNL     1      10.101   1.399  22.006  0.00  0.00    +0.004 C 
ENDBRANCH  24  25
ENDBRANCH  23  24
ENDBRANCH   1  23
TORSDOF 12
ENDMDL
MODEL 5
REMARK VINA RESULT:      -5.8      2.514      6.880
REMARK  Name = 
REMARK  13 active torsions:
REMARK  status: ('A' for Active; 'I' for Inactive)
REMARK    1  A    between atoms: C_2  and  C_3
REMARK    2  A    between atoms: C_2  and  N_7
REMARK    3  A    between atoms: C_2  and  P_15
REMARK    4  A    between atoms: C_3  and  C_4
REMARK    5  A    between atoms: C_4  and  C_5
REMARK    6  A    between atoms: C_5  and  C_6
REMARK    7  A    between atoms: C_8  and  C_10
REMARK    8  A    between atoms: C_10  and  C_11
REMARK    9  A    between atoms: C_11  and  C_12
REMARK   10  A    between atoms: C_12  and  O_13
REMARK   11  A    between atoms: P_15  and  O_16
REMARK   12  A    between atoms: P_15  and  O_18
REMARK   13  A    between atoms: O_18  and  C_19
REMARK                            x       y       z     vdW  Elec       q    Type
REMARK                         _______ _______ _______ _____ _____    ______ ____
ROOT
ATOM      1  C   UNL     1       8.349  -2.557  23.044  0.00  0.00    +0.200 C 
ENDROOT
BRANCH   1   2
ATOM      2  N   UNL     1       8.230  -2.867  24.470  0.00  0.00    -0.301 N 
ATOM      3  H   UNL     1       7.435  -2.522  24.990  0.00  0.00    +0.150 HD
ATOM      4  C   UNL     1       9.110  -3.745  25.071  0.00  0.00    +0.214 C 
ATOM      5  O   UNL     1      10.038  -4.296  24.486  0.00  0.00    -0.276 OA
BRANCH   4   6
ATOM      6  C   UNL     1       8.850  -4.094  26.526  0.00  0.00    +0.107 C 
BRANCH   6   7
ATOM      7  C   UNL     1       7.364  -4.309  26.801  0.00  0.00    +0.129 C 
BRANCH   7   8
ATOM      8  C   UNL     1       6.846  -5.692  27.156  0.00  0.00    +0.305 C 
ATOM      9  O   UNL     1       6.001  -6.248  26.458  0.00  0.00    -0.251 OA
BRANCH   8  10
ATOM     10  O   UNL     1       7.333  -6.295  28.247  0.00  0.00    -0.481 OA
ATOM     11  H   UNL     1       8.013  -5.795  28.771  0.00  0.00    +0.295 HD
ENDBRANCH   8  10
ENDBRANCH   7   8
ENDBRANCH   6   7
ENDBRANCH   4   6
ENDBRANCH   1   2
BRANCH   1  12
ATOM     12  P   UNL     1       9.332  -0.830  22.717  0.00  0.00    +0.399 P 
ATOM     13  O   UNL     1      10.429  -0.707  23.787  0.00  0.00    -0.242 OA
BRANCH  12  14
ATOM     14  O   UNL     1      10.469  -1.732  21.775  0.00  0.00    -0.314 OA
ATOM     15  H   UNL     1      10.357  -2.653  22.104  0.00  0.00    +0.221 HD
ENDBRANCH  12  14
BRANCH  12  16
ATOM     16  O   UNL     1       8.195   0.071  23.660  0.00  0.00    -0.423 OA
BRANCH  16  17
ATOM     17  C   UNL     1       7.999   1.401  23.417  0.00  0.00    +0.130 A 
ATOM     18  C   UNL     1       7.300   1.883  22.314  0.00  0.00    +0.046 A 
ATOM     19  C   UNL     1       7.152   3.260  22.140  0.00  0.00    +0.004 A 
ATOM     20  C   UNL     1       7.705   4.150  23.063  0.00  0.00    +0.000 A 
ATOM     21  C   UNL     1       8.433   3.663  24.146  0.00  0.00    +0.004 A 
ATOM     22  C   UNL     1       8.591   2.288  24.315  0.00  0.00    +0.046 A 
ENDBRANCH  16  17
ENDBRANCH  12  16
ENDBRANCH   1  12
BRANCH   1  23
ATOM     23  C   UNL     1       7.034  -2.520  22.249  0.00  0.00    +0.036 C 
BRANCH  23  24
ATOM     24  C   UNL     1       6.300  -3.854  22.439  0.00  0.00    +0.002 C 
BRANCH  24  25
ATOM     25  C   UNL     1       7.058  -5.073  21.930  0.00  0.00    -0.003 C 
ATOM     26  C   UNL     1       6.157  -5.887  21.006  0.00  0.00    +0.004 C 
ENDBRANCH  24  25
ENDBRANCH  23  24
ENDBRANCH   1  23
TORSDOF 12
ENDMDL
MODEL 6
REMARK VINA RESULT:      -5.8      2.104      2.858
REMARK  Name = 
REMARK  13 active torsions:
REMARK  status: ('A' for Active; 'I' for Inactive)
REMARK    1  A    between atoms: C_2  and  C_3
REMARK    2  A    between atoms: C_2  and  N_7
REMARK    3  A    between atoms: C_2  and  P_15
REMARK    4  A    between atoms: C_3  and  C_4
REMARK    5  A    between atoms: C_4  and  C_5
REMARK    6  A    between atoms: C_5  and  C_6
REMARK    7  A    between atoms: C_8  and  C_10
REMARK    8  A    between atoms: C_10  and  C_11
REMARK    9  A    between atoms: C_11  and  C_12
REMARK   10  A    between atoms: C_12  and  O_13
REMARK   11  A    between atoms: P_15  and  O_16
REMARK   12  A    between atoms: P_15  and  O_18
REMARK   13  A    between atoms: O_18  and  C_19
REMARK                            x       y       z     vdW  Elec       q    Type
REMARK                         _______ _______ _______ _____ _____    ______ ____
ROOT
ATOM      1  C   UNL     1       9.120  -3.269  25.240  0.00  0.00    +0.200 C 
ENDROOT
BRANCH   1   2
ATOM      2  N   UNL     1       8.559  -2.649  24.038  0.00  0.00    -0.301 N 
ATOM      3  H   UNL     1       7.574  -2.422  24.009  0.00  0.00    +0.150 HD
ATOM      4  C   UNL     1       9.385  -2.239  23.011  0.00  0.00    +0.214 C 
ATOM      5  O   UNL     1      10.605  -2.376  23.013  0.00  0.00    -0.276 OA
BRANCH   4   6
ATOM      6  C   UNL     1       8.732  -1.509  21.850  0.00  0.00    +0.107 C 
BRANCH   6   7
ATOM      7  C   UNL     1       9.548  -0.295  21.413  0.00  0.00    +0.129 C 
BRANCH   7   8
ATOM      8  C   UNL     1       9.010   1.107  21.640  0.00  0.00    +0.305 C 
ATOM      9  O   UNL     1       7.841   1.290  21.970  0.00  0.00    -0.251 OA
BRANCH   8  10
ATOM     10  O   UNL     1       9.842   2.144  21.475  0.00  0.00    -0.481 OA
ATOM     11  H   UNL     1       9.439   3.052  21.502  0.00  0.00    +0.295 HD
ENDBRANCH   8  10
ENDBRANCH   7   8
ENDBRANCH   6   7
ENDBRANCH   4   6
ENDBRANCH   1   2
BRANCH   1  12
ATOM     12  P   UNL     1       8.813  -5.258  25.289  0.00  0.00    +0.399 P 
ATOM     13  O   UNL     1       8.870  -5.776  23.842  0.00  0.00    -0.242 OA
BRANCH  12  14
ATOM     14  O   UNL     1      10.530  -5.457  25.340  0.00  0.00    -0.314 OA
ATOM     15  H   UNL     1      10.677  -6.293  24.841  0.00  0.00    +0.221 HD
ENDBRANCH  12  14
BRANCH  12  16
ATOM     16  O   UNL     1       7.095  -5.059  25.237  0.00  0.00    -0.423 OA
BRANCH  16  17
ATOM     17  C   UNL     1       6.309  -5.592  26.219  0.00  0.00    +0.130 A 
ATOM     18  C   UNL     1       6.614  -5.504  27.575  0.00  0.00    +0.046 A 
ATOM     19  C   UNL     1       5.757  -6.083  28.513  0.00  0.00    +0.004 A 
ATOM     20  C   UNL     1       4.604  -6.750  28.095  0.00  0.00    +0.000 A 
ATOM     21  C   UNL     1       4.321  -6.865  26.735  0.00  0.00    +0.004 A 
ATOM     22  C   UNL     1       5.182  -6.296  25.797  0.00  0.00    +0.046 A 
ENDBRANCH  16  17
ENDBRANCH  12  16
ENDBRANCH   1  12
BRANCH   1  23
ATOM     23  C   UNL     1       8.661  -2.678  26.582  0.00  0.00    +0.036 C 
BRANCH  23  24
ATOM     24  C   UNL     1       7.544  -1.659  26.321  0.00  0.00    +0.002 C 
BRANCH  24  25
ATOM     25  C   UNL     1       7.884  -0.229  26.721  0.00  0.00    -0.003 C 
ATOM     26  C   UNL     1       8.411   0.531  25.507  0.00  0.00    +0.004 C 
ENDBRANCH  24  25
ENDBRANCH  23  24
ENDBRANCH   1  23
TORSDOF 12
ENDMDL
MODEL 7
REMARK VINA RESULT:      -5.8      2.940      6.682
REMARK  Name = 
REMARK  13 active torsions:
REMARK  status: ('A' for Active; 'I' for Inactive)
REMARK    1  A    between atoms: C_2  and  C_3
REMARK    2  A    between atoms: C_2  and  N_7
REMARK    3  A    between atoms: C_2  and  P_15
REMARK    4  A    between atoms: C_3  and  C_4
REMARK    5  A    between atoms: C_4  and  C_5
REMARK    6  A    between atoms: C_5  and  C_6
REMARK    7  A    between atoms: C_8  and  C_10
REMARK    8  A    between atoms: C_10  and  C_11
REMARK    9  A    between atoms: C_11  and  C_12
REMARK   10  A    between atoms: C_12  and  O_13
REMARK   11  A    between atoms: P_15  and  O_16
REMARK   12  A    between atoms: P_15  and  O_18
REMARK   13  A    between atoms: O_18  and  C_19
REMARK                            x       y       z     vdW  Elec       q    Type
REMARK                         _______ _______ _______ _____ _____    ______ ____
ROOT
ATOM      1  C   UNL     1       6.130  -3.153  24.139  0.00  0.00    +0.200 C 
ENDROOT
BRANCH   1   2
ATOM      2  N   UNL     1       6.854  -3.690  25.292  0.00  0.00    -0.301 N 
ATOM      3  H   UNL     1       7.497  -3.096  25.797  0.00  0.00    +0.150 HD
ATOM      4  C   UNL     1       6.558  -4.946  25.781  0.00  0.00    +0.214 C 
ATOM      5  O   UNL     1       5.712  -5.692  25.295  0.00  0.00    -0.276 OA
BRANCH   4   6
ATOM      6  C   UNL     1       7.281  -5.383  27.044  0.00  0.00    +0.107 C 
BRANCH   6   7
ATOM      7  C   UNL     1       6.358  -5.366  28.260  0.00  0.00    +0.129 C 
BRANCH   7   8
ATOM      8  C   UNL     1       5.689  -6.646  28.729  0.00  0.00    +0.305 C 
ATOM      9  O   UNL     1       5.682  -6.956  29.918  0.00  0.00    -0.251 OA
BRANCH   8  10
ATOM     10  O   UNL     1       5.102  -7.430  27.816  0.00  0.00    -0.481 OA
ATOM     11  H   UNL     1       4.120  -7.332  27.705  0.00  0.00    +0.295 HD
ENDBRANCH   8  10
ENDBRANCH   7   8
ENDBRANCH   6   7
ENDBRANCH   4   6
ENDBRANCH   1   2
BRANCH   1  12
ATOM     12  P   UNL     1       7.101  -3.480  22.405  0.00  0.00    +0.399 P 
ATOM     13  O   UNL     1       7.420  -4.981  22.324  0.00  0.00    -0.242 OA
BRANCH  12  14
ATOM     14  O   UNL     1       5.569  -3.851  21.693  0.00  0.00    -0.314 OA
ATOM     15  H   UNL     1       5.022  -3.061  21.905  0.00  0.00    +0.221 HD
ENDBRANCH  12  14
BRANCH  12  16
ATOM     16  O   UNL     1       8.632  -3.107  23.119  0.00  0.00    -0.423 OA
BRANCH  16  17
ATOM     17  C   UNL     1       9.173  -1.861  22.980  0.00  0.00    +0.130 A 
ATOM     18  C   UNL     1       9.901  -1.226  23.982  0.00  0.00    +0.046 A 
ATOM     19  C   UNL     1      10.413   0.054  23.757  0.00  0.00    +0.004 A 
ATOM     20  C   UNL     1      10.193   0.695  22.536  0.00  0.00    +0.000 A 
ATOM     21  C   UNL     1       9.434   0.069  21.549  0.00  0.00    +0.004 A 
ATOM     22  C   UNL     1       8.913  -1.204  21.777  0.00  0.00    +0.046 A 
ENDBRANCH  16  17
ENDBRANCH  12  16
ENDBRANCH   1  12
BRANCH   1  23
ATOM     23  C   UNL     1       5.758  -1.663  24.209  0.00  0.00    +0.036 C 
BRANCH  23  24
ATOM     24  C   UNL     1       6.422  -1.042  25.446  0.00  0.00    +0.002 C 
BRANCH  24  25
ATOM     25  C   UNL     1       6.917   0.385  25.251  0.00  0.00    -0.003 C 
ATOM     26  C   UNL     1       6.548   0.868  23.851  0.00  0.00    +0.004 C 
ENDBRANCH  24  25
ENDBRANCH  23  24
ENDBRANCH   1  23
TORSDOF 12
ENDMDL
MODEL 8
REMARK VINA RESULT:      -5.7      2.610      3.799
REMARK  Name = 
REMARK  13 active torsions:
REMARK  status: ('A' for Active; 'I' for Inactive)
REMARK    1  A    between atoms: C_2  and  C_3
REMARK    2  A    between atoms: C_2  and  N_7
REMARK    3  A    between atoms: C_2  and  P_15
REMARK    4  A    between atoms: C_3  and  C_4
REMARK    5  A    between atoms: C_4  and  C_5
REMARK    6  A    between atoms: C_5  and  C_6
REMARK    7  A    between atoms: C_8  and  C_10
REMARK    8  A    between atoms: C_10  and  C_11
REMARK    9  A    between atoms: C_11  and  C_12
REMARK   10  A    between atoms: C_12  and  O_13
REMARK   11  A    between atoms: P_15  and  O_16
REMARK   12  A    between atoms: P_15  and  O_18
REMARK   13  A    between atoms: O_18  and  C_19
REMARK                            x       y       z     vdW  Elec       q    Type
REMARK                         _______ _______ _______ _____ _____    ______ ____
ROOT
ATOM      1  C   UNL     1       7.727  -3.999  23.104  0.00  0.00    +0.200 C 
ENDROOT
BRANCH   1   2
ATOM      2  N   UNL     1       7.445  -2.568  23.219  0.00  0.00    -0.301 N 
ATOM      3  H   UNL     1       6.776  -2.246  23.905  0.00  0.00    +0.150 HD
ATOM      4  C   UNL     1       8.188  -1.649  22.505  0.00  0.00    +0.214 C 
ATOM      5  O   UNL     1       9.094  -1.948  21.732  0.00  0.00    -0.276 OA
BRANCH   4   6
ATOM      6  C   UNL     1       7.901  -0.179  22.764  0.00  0.00    +0.107 C 
BRANCH   6   7
ATOM      7  C   UNL     1       8.693   0.727  21.826  0.00  0.00    +0.129 C 
BRANCH   7   8
ATOM      8  C   UNL     1       9.949   1.424  22.319  0.00  0.00    +0.305 C 
ATOM      9  O   UNL     1      10.513   1.058  23.347  0.00  0.00    -0.251 OA
BRANCH   8  10
ATOM     10  O   UNL     1      10.431   2.449  21.604  0.00  0.00    -0.481 OA
ATOM     11  H   UNL     1      10.954   3.135  22.099  0.00  0.00    +0.295 HD
ENDBRANCH   8  10
ENDBRANCH   7   8
ENDBRANCH   6   7
ENDBRANCH   4   6
ENDBRANCH   1   2
BRANCH   1  12
ATOM     12  P   UNL     1       6.168  -5.029  22.352  0.00  0.00    +0.399 P 
ATOM     13  O   UNL     1       5.645  -4.258  21.130  0.00  0.00    -0.242 OA
BRANCH  12  14
ATOM     14  O   UNL     1       7.281  -5.807  21.282  0.00  0.00    -0.314 OA
ATOM     15  H   UNL     1       8.021  -5.160  21.213  0.00  0.00    +0.221 HD
ENDBRANCH  12  14
BRANCH  12  16
ATOM     16  O   UNL     1       5.055  -4.250  23.424  0.00  0.00    -0.423 OA
BRANCH  16  17
ATOM     17  C   UNL     1       4.504  -4.940  24.466  0.00  0.00    +0.130 A 
ATOM     18  C   UNL     1       3.720  -4.344  25.450  0.00  0.00    +0.046 A 
ATOM     19  C   UNL     1       3.201  -5.124  26.485  0.00  0.00    +0.004 A 
ATOM     20  C   UNL     1       3.469  -6.493  26.536  0.00  0.00    +0.000 A 
ATOM     21  C   UNL     1       4.283  -7.078  25.568  0.00  0.00    +0.004 A 
ATOM     22  C   UNL     1       4.811  -6.298  24.540  0.00  0.00    +0.046 A 
ENDBRANCH  16  17
ENDBRANCH  12  16
ENDBRANCH   1  12
BRANCH   1  23
ATOM     23  C   UNL     1       8.192  -4.702  24.390  0.00  0.00    +0.036 C 
BRANCH  23  24
ATOM     24  C   UNL     1       8.234  -3.675  25.530  0.00  0.00    +0.002 C 
BRANCH  24  25
ATOM     25  C   UNL     1       7.229  -3.925  26.646  0.00  0.00    -0.003 C 
ATOM     26  C   UNL     1       7.324  -5.377  27.107  0.00  0.00    +0.004 C 
ENDBRANCH  24  25
ENDBRANCH  23  24
ENDBRANCH   1  23
TORSDOF 12
ENDMDL
MODEL 9
REMARK VINA RESULT:      -5.7      2.322      6.490
REMARK  Name = 
REMARK  13 active torsions:
REMARK  status: ('A' for Active; 'I' for Inactive)
REMARK    1  A    between atoms: C_2  and  C_3
REMARK    2  A    between atoms: C_2  and  N_7
REMARK    3  A    between atoms: C_2  and  P_15
REMARK    4  A    between atoms: C_3  and  C_4
REMARK    5  A    between atoms: C_4  and  C_5
REMARK    6  A    between atoms: C_5  and  C_6
REMARK    7  A    between atoms: C_8  and  C_10
REMARK    8  A    between atoms: C_10  and  C_11
REMARK    9  A    between atoms: C_11  and  C_12
REMARK   10  A    between atoms: C_12  and  O_13
REMARK   11  A    between atoms: P_15  and  O_16
REMARK   12  A    between atoms: P_15  and  O_18
REMARK   13  A    between atoms: O_18  and  C_19
REMARK                            x       y       z     vdW  Elec       q    Type
REMARK                         _______ _______ _______ _____ _____    ______ ____
ROOT
ATOM      1  C   UNL     1       9.245  -1.378  24.820  0.00  0.00    +0.200 C 
ENDROOT
BRANCH   1   2
ATOM      2  N   UNL     1       8.400  -2.437  24.268  0.00  0.00    -0.301 N 
ATOM      3  H   UNL     1       7.539  -2.192  23.797  0.00  0.00    +0.150 HD
ATOM      4  C   UNL     1       8.837  -3.746  24.253  0.00  0.00    +0.214 C 
ATOM      5  O   UNL     1       9.918  -4.116  24.705  0.00  0.00    -0.276 OA
BRANCH   4   6
ATOM      6  C   UNL     1       7.944  -4.765  23.565  0.00  0.00    +0.107 C 
BRANCH   6   7
ATOM      7  C   UNL     1       6.801  -5.219  24.468  0.00  0.00    +0.129 C 
BRANCH   7   8
ATOM      8  C   UNL     1       6.989  -5.263  25.974  0.00  0.00    +0.305 C 
ATOM      9  O   UNL     1       6.193  -4.707  26.727  0.00  0.00    -0.251 OA
BRANCH   8  10
ATOM     10  O   UNL     1       8.043  -5.927  26.465  0.00  0.00    -0.481 OA
ATOM     11  H   UNL     1       8.207  -6.839  26.107  0.00  0.00    +0.295 HD
ENDBRANCH   8  10
ENDBRANCH   7   8
ENDBRANCH   6   7
ENDBRANCH   4   6
ENDBRANCH   1   2
BRANCH   1  12
ATOM     12  P   UNL     1       8.199  -0.069  25.937  0.00  0.00    +0.399 P 
ATOM     13  O   UNL     1       7.093  -0.853  26.662  0.00  0.00    -0.242 OA
BRANCH  12  14
ATOM     14  O   UNL     1       9.236  -0.470  27.262  0.00  0.00    -0.314 OA
ATOM     15  H   UNL     1       9.195  -1.453  27.294  0.00  0.00    +0.221 HD
ENDBRANCH  12  14
BRANCH  12  16
ATOM     16  O   UNL     1       7.161   0.331  24.612  0.00  0.00    -0.423 OA
BRANCH  16  17
ATOM     17  C   UNL     1       7.199   1.580  24.059  0.00  0.00    +0.130 A 
ATOM     18  C   UNL     1       7.897   2.645  24.621  0.00  0.00    +0.046 A 
ATOM     19  C   UNL     1       7.877   3.891  23.993  0.00  0.00    +0.004 A 
ATOM     20  C   UNL     1       7.158   4.071  22.809  0.00  0.00    +0.000 A 
ATOM     21  C   UNL     1       6.433   3.010  22.269  0.00  0.00    +0.004 A 
ATOM     22  C   UNL     1       6.443   1.768  22.903  0.00  0.00    +0.046 A 
ENDBRANCH  16  17
ENDBRANCH  12  16
ENDBRANCH   1  12
BRANCH   1  23
ATOM     23  C   UNL     1      10.083  -0.583  23.807  0.00  0.00    +0.036 C 
BRANCH  23  24
ATOM     24  C   UNL     1       9.711  -1.039  22.389  0.00  0.00    +0.002 C 
BRANCH  24  25
ATOM     25  C   UNL     1       9.359   0.093  21.431  0.00  0.00    -0.003 C 
ATOM     26  C   UNL     1      10.031   1.383  21.893  0.00  0.00    +0.004 C 
ENDBRANCH  24  25
ENDBRANCH  23  24
ENDBRANCH   1  23
TORSDOF 12
ENDMDL
