MODEL 1
REMARK VINA RESULT:      -5.3      0.000      0.000
REMARK  Name = 
REMARK  28 active torsions:
REMARK  status: ('A' for Active; 'I' for Inactive)
REMARK    1  A    between atoms: C_1  and  C_2
REMARK    2  A    between atoms: C_2  and  C_3
REMARK    3  A    between atoms: C_3  and  C_4
REMARK    4  A    between atoms: C_4  and  C_5
REMARK    5  A    between atoms: C_5  and  C_6
REMARK    6  A    between atoms: C_6  and  C_7
REMARK    7  A    between atoms: C_7  and  C_8
REMARK    8  A    between atoms: C_8  and  C_9
REMARK    9  A    between atoms: C_9  and  C_10
REMARK   10  A    between atoms: C_10  and  C_11
REMARK   11  A    between atoms: C_11  and  C_12
REMARK   12  A    between atoms: C_12  and  C_13
REMARK   13  A    between atoms: C_13  and  C_14
REMARK   14  A    between atoms: C_14  and  C_15
REMARK   15  A    between atoms: C_15  and  C_16
REMARK   16  A    between atoms: C_16  and  O_18
REMARK   17  A    between atoms: O_18  and  C_19
REMARK   18  A    between atoms: C_19  and  C_20
REMARK   19  A    between atoms: C_20  and  O_22
REMARK   20  A    between atoms: C_20  and  C_23
REMARK   21  A    between atoms: C_23  and  O_24
REMARK   22  A    between atoms: O_24  and  P_25
REMARK   23  A    between atoms: P_25  and  O_28
REMARK   24  A    between atoms: O_28  and  C_29
REMARK   25  A    between atoms: C_29  and  C_30
REMARK   26  A    between atoms: C_30  and  O_32
REMARK   27  A    between atoms: C_30  and  C_33
REMARK   28  A    between atoms: C_33  and  O_34
REMARK                            x       y       z     vdW  Elec       q    Type
REMARK                         _______ _______ _______ _____ _____    ______ ____
ROOT
ATOM      1  O   UNL     1       7.219  -3.766  23.921  0.00  0.00    -0.462 OA
ENDROOT
BRANCH   1   2
ATOM      2  C   UNL     1       6.866  -3.402  22.658  0.00  0.00    +0.307 C 
ATOM      3  O   UNL     1       6.890  -4.110  21.664  0.00  0.00    -0.251 OA
BRANCH   2   4
ATOM      4  C   UNL     1       6.387  -1.970  22.666  0.00  0.00    +0.120 C 
BRANCH   4   5
ATOM      5  C   UNL     1       6.307  -1.482  24.106  0.00  0.00    +0.011 C 
BRANCH   5   6
ATOM      6  C   UNL     1       6.421   0.031  24.213  0.00  0.00    +0.001 C 
BRANCH   6   7
ATOM      7  C   UNL     1       7.606   0.404  25.110  0.00  0.00    +0.000 C 
BRANCH   7   8
ATOM      8  C   UNL     1       8.671  -0.690  25.114  0.00  0.00    +0.000 C 
BRANCH   8   9
ATOM      9  C   UNL     1      10.073  -0.084  25.185  0.00  0.00    +0.000 C 
BRANCH   9  10
ATOM     10  C   UNL     1      10.596   0.242  23.791  0.00  0.00    -0.000 C 
BRANCH  10  11
ATOM     11  C   UNL     1      10.186  -0.828  22.784  0.00  0.00    -0.000 C 
BRANCH  11  12
ATOM     12  C   UNL     1       9.509  -0.200  21.569  0.00  0.00    -0.000 C 
BRANCH  12  13
ATOM     13  C   UNL     1       9.466   1.322  21.688  0.00  0.00    -0.000 C 
BRANCH  13  14
ATOM     14  C   UNL     1       8.026   1.829  21.670  0.00  0.00    -0.000 C 
BRANCH  14  15
ATOM     15  C   UNL     1       7.921   3.213  22.309  0.00  0.00    -0.000 C 
BRANCH  15  16
ATOM     16  C   UNL     1       9.033   3.426  23.336  0.00  0.00    -0.000 C 
BRANCH  16  18
ATOM     17  C   UNL     1       6.953   4.012  24.620  0.00  0.00    +0.004 C 
ATOM     18  C   UNL     1       8.464   3.873  24.681  0.00  0.00    -0.003 C 
ENDBRANCH  16  18
ENDBRANCH  15  16
ENDBRANCH  14  15
ENDBRANCH  13  14
ENDBRANCH  12  13
ENDBRANCH  11  12
ENDBRANCH  10  11
ENDBRANCH   9  10
ENDBRANCH   8   9
ENDBRANCH   7   8
ENDBRANCH   6   7
ENDBRANCH   5   6
ENDBRANCH   4   5
ENDBRANCH   2   4
ENDBRANCH   1   2
BRANCH   1  19
ATOM     19  C   UNL     1       8.225  -4.789  24.021  0.00  0.00    +0.265 C 
BRANCH  19  20
ATOM     20  C   UNL     1       9.113  -4.527  25.247  0.00  0.00    +0.178 C 
BRANCH  20  21
ATOM     21  O   UNL     1      10.343  -5.267  25.128  0.00  0.00    -0.386 OA
ATOM     22  H   UNL     1      10.121  -6.163  25.457  0.00  0.00    +0.210 HD
ENDBRANCH  20  21
BRANCH  20  23
ATOM     23  C   UNL     1       8.415  -4.895  26.559  0.00  0.00    +0.202 C 
BRANCH  23  24
ATOM     24  O   UNL     1       7.381  -5.839  26.262  0.00  0.00    -0.325 OA
BRANCH  24  25
ATOM     25  P   UNL     1       6.038  -5.751  27.240  0.00  0.00    +0.213 P 
ATOM     26  O   UNL     1       6.913  -6.202  28.662  0.00  0.00    -0.437 OA
ATOM     27  O   UNL     1       5.314  -7.115  27.122  0.00  0.00    -0.517 OA
BRANCH  25  28
ATOM     28  O   UNL     1       5.163  -5.300  25.817  0.00  0.00    -0.325 OA
BRANCH  28  29
ATOM     29  C   UNL     1       3.834  -5.819  25.776  0.00  0.00    +0.201 C 
BRANCH  29  30
ATOM     30  C   UNL     1       3.539  -6.399  24.391  0.00  0.00    +0.166 C 
BRANCH  30  31
ATOM     31  O   UNL     1       4.280  -7.617  24.210  0.00  0.00    -0.387 OA
ATOM     32  H   UNL     1       4.894  -7.694  24.959  0.00  0.00    +0.210 HD
ENDBRANCH  30  31
BRANCH  30  33
ATOM     33  C   UNL     1       3.832  -5.404  23.254  0.00  0.00    +0.189 C 
BRANCH  33  34
ATOM     34  O   UNL     1       4.573  -6.008  22.193  0.00  0.00    -0.392 OA
ATOM     35  H   UNL     1       5.507  -6.028  22.490  0.00  0.00    +0.210 HD
ENDBRANCH  33  34
ENDBRANCH  30  33
ENDBRANCH  29  30
ENDBRANCH  28  29
ENDBRANCH  25  28
ENDBRANCH  24  25
ENDBRANCH  23  24
ENDBRANCH  20  23
ENDBRANCH  19  20
ENDBRANCH   1  19
TORSDOF 27
ENDMDL
MODEL 2
REMARK VINA RESULT:      -5.2      1.198      2.113
REMARK  Name = 
REMARK  28 active torsions:
REMARK  status: ('A' for Active; 'I' for Inactive)
REMARK    1  A    between atoms: C_1  and  C_2
REMARK    2  A    between atoms: C_2  and  C_3
REMARK    3  A    between atoms: C_3  and  C_4
REMARK    4  A    between atoms: C_4  and  C_5
REMARK    5  A    between atoms: C_5  and  C_6
REMARK    6  A    between atoms: C_6  and  C_7
REMARK    7  A    between atoms: C_7  and  C_8
REMARK    8  A    between atoms: C_8  and  C_9
REMARK    9  A    between atoms: C_9  and  C_10
REMARK   10  A    between atoms: C_10  and  C_11
REMARK   11  A    between atoms: C_11  and  C_12
REMARK   12  A    between atoms: C_12  and  C_13
REMARK   13  A    between atoms: C_13  and  C_14
REMARK   14  A    between atoms: C_14  and  C_15
REMARK   15  A    between atoms: C_15  and  C_16
REMARK   16  A    between atoms: C_16  and  O_18
REMARK   17  A    between atoms: O_18  and  C_19
REMARK   18  A    between atoms: C_19  and  C_20
REMARK   19  A    between atoms: C_20  and  O_22
REMARK   20  A    between atoms: C_20  and  C_23
REMARK   21  A    between atoms: C_23  and  O_24
REMARK   22  A    between atoms: O_24  and  P_25
REMARK   23  A    between atoms: P_25  and  O_28
REMARK   24  A    between atoms: O_28  and  C_29
REMARK   25  A    between atoms: C_29  and  C_30
REMARK   26  A    between atoms: C_30  and  O_32
REMARK   27  A    between atoms: C_30  and  C_33
REMARK   28  A    between atoms: C_33  and  O_34
REMARK                            x       y       z     vdW  Elec       q    Type
REMARK                         _______ _______ _______ _____ _____    ______ ____
ROOT
ATOM      1  O   UNL     1       7.232  -4.046  23.952  0.00  0.00    -0.462 OA
ENDROOT
BRANCH   1   2
ATOM      2  C   UNL     1       7.080  -3.470  22.728  0.00  0.00    +0.307 C 
ATOM      3  O   UNL     1       6.632  -4.002  21.725  0.00  0.00    -0.251 OA
BRANCH   2   4
ATOM      4  C   UNL     1       7.517  -2.027  22.797  0.00  0.00    +0.120 C 
BRANCH   4   5
ATOM      5  C   UNL     1       8.945  -1.916  22.279  0.00  0.00    +0.011 C 
BRANCH   5   6
ATOM      6  C   UNL     1       9.953  -1.707  23.399  0.00  0.00    +0.001 C 
BRANCH   6   7
ATOM      7  C   UNL     1       9.242  -1.187  24.653  0.00  0.00    +0.000 C 
BRANCH   7   8
ATOM      8  C   UNL     1       9.897   0.087  25.180  0.00  0.00    +0.000 C 
BRANCH   8   9
ATOM      9  C   UNL     1      10.937   0.614  24.190  0.00  0.00    +0.000 C 
BRANCH   9  10
ATOM     10  C   UNL     1      10.524   1.975  23.640  0.00  0.00    -0.000 C 
BRANCH  10  11
ATOM     11  C   UNL     1       9.971   1.852  22.224  0.00  0.00    -0.000 C 
BRANCH  11  12
ATOM     12  C   UNL     1       8.592   2.497  22.123  0.00  0.00    -0.000 C 
BRANCH  12  13
ATOM     13  C   UNL     1       7.485   1.449  22.211  0.00  0.00    -0.000 C 
BRANCH  13  14
ATOM     14  C   UNL     1       6.325   1.953  23.067  0.00  0.00    -0.000 C 
BRANCH  14  15
ATOM     15  C   UNL     1       6.117   1.064  24.292  0.00  0.00    -0.000 C 
BRANCH  15  16
ATOM     16  C   UNL     1       6.320   1.857  25.583  0.00  0.00    -0.000 C 
BRANCH  16  18
ATOM     17  C   UNL     1       6.180  -0.399  26.682  0.00  0.00    +0.004 C 
ATOM     18  C   UNL     1       6.851   0.963  26.701  0.00  0.00    -0.003 C 
ENDBRANCH  16  18
ENDBRANCH  15  16
ENDBRANCH  14  15
ENDBRANCH  13  14
ENDBRANCH  12  13
ENDBRANCH  11  12
ENDBRANCH  10  11
ENDBRANCH   9  10
ENDBRANCH   8   9
ENDBRANCH   7   8
ENDBRANCH   6   7
ENDBRANCH   5   6
ENDBRANCH   4   5
ENDBRANCH   2   4
ENDBRANCH   1   2
BRANCH   1  19
ATOM     19  C   UNL     1       8.235  -5.073  24.041  0.00  0.00    +0.265 C 
BRANCH  19  20
ATOM     20  C   UNL     1       9.026  -4.913  25.348  0.00  0.00    +0.178 C 
BRANCH  20  21
ATOM     21  O   UNL     1       9.810  -6.096  25.594  0.00  0.00    -0.386 OA
ATOM     22  H   UNL     1       9.177  -6.731  25.989  0.00  0.00    +0.210 HD
ENDBRANCH  20  21
BRANCH  20  23
ATOM     23  C   UNL     1       8.117  -4.641  26.549  0.00  0.00    +0.202 C 
BRANCH  23  24
ATOM     24  O   UNL     1       7.511  -5.879  26.937  0.00  0.00    -0.325 OA
BRANCH  24  25
ATOM     25  P   UNL     1       5.953  -5.758  27.508  0.00  0.00    +0.213 P 
ATOM     26  O   UNL     1       6.459  -5.454  29.133  0.00  0.00    -0.437 OA
ATOM     27  O   UNL     1       5.479  -7.200  27.810  0.00  0.00    -0.517 OA
BRANCH  25  28
ATOM     28  O   UNL     1       5.446  -6.062  25.881  0.00  0.00    -0.325 OA
BRANCH  28  29
ATOM     29  C   UNL     1       4.388  -7.013  25.781  0.00  0.00    +0.201 C 
BRANCH  29  30
ATOM     30  C   UNL     1       3.655  -6.847  24.449  0.00  0.00    +0.166 C 
BRANCH  30  31
ATOM     31  O   UNL     1       3.161  -8.122  24.007  0.00  0.00    -0.387 OA
ATOM     32  H   UNL     1       3.401  -8.214  23.069  0.00  0.00    +0.210 HD
ENDBRANCH  30  31
BRANCH  30  33
ATOM     33  C   UNL     1       4.531  -6.192  23.365  0.00  0.00    +0.189 C 
BRANCH  33  34
ATOM     34  O   UNL     1       3.930  -5.011  22.835  0.00  0.00    -0.392 OA
ATOM     35  H   UNL     1       4.669  -4.426  22.565  0.00  0.00    +0.210 HD
ENDBRANCH  33  34
ENDBRANCH  30  33
ENDBRANCH  29  30
ENDBRANCH  28  29
ENDBRANCH  25  28
ENDBRANCH  24  25
ENDBRANCH  23  24
ENDBRANCH  20  23
ENDBRANCH  19  20
ENDBRANCH   1  19
TORSDOF 27
ENDMDL
MODEL 3
REMARK VINA RESULT:      -5.1      1.577      2.860
REMARK  Name = 
REMARK  28 active torsions:
REMARK  status: ('A' for Active; 'I' for Inactive)
REMARK    1  A    between atoms: C_1  and  C_2
REMARK    2  A    between atoms: C_2  and  C_3
REMARK    3  A    between atoms: C_3  and  C_4
REMARK    4  A    between atoms: C_4  and  C_5
REMARK    5  A    between atoms: C_5  and  C_6
REMARK    6  A    between atoms: C_6  and  C_7
REMARK    7  A    between atoms: C_7  and  C_8
REMARK    8  A    between atoms: C_8  and  C_9
REMARK    9  A    between atoms: C_9  and  C_10
REMARK   10  A    between atoms: C_10  and  C_11
REMARK   11  A    between atoms: C_11  and  C_12
REMARK   12  A    between atoms: C_12  and  C_13
REMARK   13  A    between atoms: C_13  and  C_14
REMARK   14  A    between atoms: C_14  and  C_15
REMARK   15  A    between atoms: C_15  and  C_16
REMARK   16  A    between atoms: C_16  and  O_18
REMARK   17  A    between atoms: O_18  and  C_19
REMARK   18  A    between atoms: C_19  and  C_20
REMARK   19  A    between atoms: C_20  and  O_22
REMARK   20  A    between atoms: C_20  and  C_23
REMARK   21  A    between atoms: C_23  and  O_24
REMARK   22  A    between atoms: O_24  and  P_25
REMARK   23  A    between atoms: P_25  and  O_28
REMARK   24  A    between atoms: O_28  and  C_29
REMARK   25  A    between atoms: C_29  and  C_30
REMARK   26  A    between atoms: C_30  and  O_32
REMARK   27  A    between atoms: C_30  and  C_33
REMARK   28  A    between atoms: C_33  and  O_34
REMARK                            x       y       z     vdW  Elec       q    Type
REMARK                         _______ _______ _______ _____ _____    ______ ____
ROOT
ATOM      1  O   UNL     1      10.077  -3.097  23.903  0.00  0.00    -0.462 OA
ENDROOT
BRANCH   1   2
ATOM      2  C   UNL     1       9.712  -2.008  23.174  0.00  0.00    +0.307 C 
ATOM      3  O   UNL     1       9.882  -1.843  21.977  0.00  0.00    -0.251 OA
BRANCH   2   4
ATOM      4  C   UNL     1       9.007  -1.019  24.072  0.00  0.00    +0.120 C 
BRANCH   4   5
ATOM      5  C   UNL     1      10.018  -0.422  25.042  0.00  0.00    +0.011 C 
BRANCH   5   6
ATOM      6  C   UNL     1      10.822   0.709  24.419  0.00  0.00    +0.001 C 
BRANCH   6   7
ATOM      7  C   UNL     1       9.997   2.000  24.423  0.00  0.00    +0.000 C 
BRANCH   7   8
ATOM      8  C   UNL     1      10.044   2.698  23.066  0.00  0.00    +0.000 C 
BRANCH   8   9
ATOM      9  C   UNL     1      10.003   1.678  21.928  0.00  0.00    +0.000 C 
BRANCH   9  10
ATOM     10  C   UNL     1       8.571   1.440  21.461  0.00  0.00    -0.000 C 
BRANCH  10  11
ATOM     11  C   UNL     1       7.671   2.618  21.822  0.00  0.00    -0.000 C 
BRANCH  11  12
ATOM     12  C   UNL     1       6.501   2.162  22.689  0.00  0.00    -0.000 C 
BRANCH  12  13
ATOM     13  C   UNL     1       6.107   3.241  23.695  0.00  0.00    -0.000 C 
BRANCH  13  14
ATOM     14  C   UNL     1       6.504   2.835  25.113  0.00  0.00    -0.000 C 
BRANCH  14  15
ATOM     15  C   UNL     1       7.263   3.958  25.816  0.00  0.00    -0.000 C 
BRANCH  15  16
ATOM     16  C   UNL     1       7.650   5.058  24.827  0.00  0.00    -0.000 C 
BRANCH  16  18
ATOM     17  C   UNL     1       9.558   6.428  23.933  0.00  0.00    +0.004 C 
ATOM     18  C   UNL     1       9.080   5.536  25.065  0.00  0.00    -0.003 C 
ENDBRANCH  16  18
ENDBRANCH  15  16
ENDBRANCH  14  15
ENDBRANCH  13  14
ENDBRANCH  12  13
ENDBRANCH  11  12
ENDBRANCH  10  11
ENDBRANCH   9  10
ENDBRANCH   8   9
ENDBRANCH   7   8
ENDBRANCH   6   7
ENDBRANCH   5   6
ENDBRANCH   4   5
ENDBRANCH   2   4
ENDBRANCH   1   2
BRANCH   1  19
ATOM     19  C   UNL     1       9.002  -3.943  24.348  0.00  0.00    +0.265 C 
BRANCH  19  20
ATOM     20  C   UNL     1       9.440  -4.728  25.594  0.00  0.00    +0.178 C 
BRANCH  20  21
ATOM     21  O   UNL     1       9.868  -6.050  25.215  0.00  0.00    -0.386 OA
ATOM     22  H   UNL     1      10.694  -6.194  25.722  0.00  0.00    +0.210 HD
ENDBRANCH  20  21
BRANCH  20  23
ATOM     23  C   UNL     1       8.325  -4.829  26.639  0.00  0.00    +0.202 C 
BRANCH  23  24
ATOM     24  O   UNL     1       7.075  -4.907  25.947  0.00  0.00    -0.325 OA
BRANCH  24  25
ATOM     25  P   UNL     1       5.768  -5.321  26.890  0.00  0.00    +0.213 P 
ATOM     26  O   UNL     1       6.720  -5.487  28.324  0.00  0.00    -0.437 OA
ATOM     27  O   UNL     1       5.564  -6.846  26.719  0.00  0.00    -0.517 OA
BRANCH  25  28
ATOM     28  O   UNL     1       4.815  -5.154  25.456  0.00  0.00    -0.325 OA
BRANCH  28  29
ATOM     29  C   UNL     1       5.592  -5.024  24.266  0.00  0.00    +0.201 C 
BRANCH  29  30
ATOM     30  C   UNL     1       5.061  -5.968  23.186  0.00  0.00    +0.166 C 
BRANCH  30  31
ATOM     31  O   UNL     1       4.742  -7.242  23.772  0.00  0.00    -0.387 OA
ATOM     32  H   UNL     1       4.770  -7.128  24.737  0.00  0.00    +0.210 HD
ENDBRANCH  30  31
BRANCH  30  33
ATOM     33  C   UNL     1       6.039  -6.136  22.008  0.00  0.00    +0.189 C 
BRANCH  33  34
ATOM     34  O   UNL     1       5.893  -5.096  21.042  0.00  0.00    -0.392 OA
ATOM     35  H   UNL     1       6.748  -4.615  21.027  0.00  0.00    +0.210 HD
ENDBRANCH  33  34
ENDBRANCH  30  33
ENDBRANCH  29  30
ENDBRANCH  28  29
ENDBRANCH  25  28
ENDBRANCH  24  25
ENDBRANCH  23  24
ENDBRANCH  20  23
ENDBRANCH  19  20
ENDBRANCH   1  19
TORSDOF 27
ENDMDL
MODEL 4
REMARK VINA RESULT:      -5.1      1.533      2.108
REMARK  Name = 
REMARK  28 active torsions:
REMARK  status: ('A' for Active; 'I' for Inactive)
REMARK    1  A    between atoms: C_1  and  C_2
REMARK    2  A    between atoms: C_2  and  C_3
REMARK    3  A    between atoms: C_3  and  C_4
REMARK    4  A    between atoms: C_4  and  C_5
REMARK    5  A    between atoms: C_5  and  C_6
REMARK    6  A    between atoms: C_6  and  C_7
REMARK    7  A    between atoms: C_7  and  C_8
REMARK    8  A    between atoms: C_8  and  C_9
REMARK    9  A    between atoms: C_9  and  C_10
REMARK   10  A    between atoms: C_10  and  C_11
REMARK   11  A    between atoms: C_11  and  C_12
REMARK   12  A    between atoms: C_12  and  C_13
REMARK   13  A    between atoms: C_13  and  C_14
REMARK   14  A    between atoms: C_14  and  C_15
REMARK   15  A    between atoms: C_15  and  C_16
REMARK   16  A    between atoms: C_16  and  O_18
REMARK   17  A    between atoms: O_18  and  C_19
REMARK   18  A    between atoms: C_19  and  C_20
REMARK   19  A    between atoms: C_20  and  O_22
REMARK   20  A    between atoms: C_20  and  C_23
REMARK   21  A    between atoms: C_23  and  O_24
REMARK   22  A    between atoms: O_24  and  P_25
REMARK   23  A    between atoms: P_25  and  O_28
REMARK   24  A    between atoms: O_28  and  C_29
REMARK   25  A    between atoms: C_29  and  C_30
REMARK   26  A    between atoms: C_30  and  O_32
REMARK   27  A    between atoms: C_30  and  C_33
REMARK   28  A    between atoms: C_33  and  O_34
REMARK                            x       y       z     vdW  Elec       q    Type
REMARK                         _______ _______ _______ _____ _____    ______ ____
ROOT
ATOM      1  O   UNL     1       8.585  -2.912  24.633  0.00  0.00    -0.462 OA
ENDROOT
BRANCH   1   2
ATOM      2  C   UNL     1       8.022  -2.391  23.509  0.00  0.00    +0.307 C 
ATOM      3  O   UNL     1       8.178  -2.788  22.366  0.00  0.00    -0.251 OA
BRANCH   2   4
ATOM      4  C   UNL     1       7.117  -1.244  23.890  0.00  0.00    +0.120 C 
BRANCH   4   5
ATOM      5  C   UNL     1       7.424  -0.823  25.321  0.00  0.00    +0.011 C 
BRANCH   5   6
ATOM      6  C   UNL     1       8.239   0.460  25.386  0.00  0.00    +0.001 C 
BRANCH   6   7
ATOM      7  C   UNL     1       9.728   0.128  25.530  0.00  0.00    +0.000 C 
BRANCH   7   8
ATOM      8  C   UNL     1      10.464   0.267  24.200  0.00  0.00    +0.000 C 
BRANCH   8   9
ATOM      9  C   UNL     1      10.838   1.725  23.935  0.00  0.00    +0.000 C 
BRANCH   9  10
ATOM     10  C   UNL     1      10.279   2.196  22.597  0.00  0.00    -0.000 C 
BRANCH  10  11
ATOM     11  C   UNL     1       9.637   1.044  21.832  0.00  0.00    -0.000 C 
BRANCH  11  12
ATOM     12  C   UNL     1       8.290   1.462  21.250  0.00  0.00    -0.000 C 
BRANCH  12  13
ATOM     13  C   UNL     1       7.365   2.007  22.336  0.00  0.00    -0.000 C 
BRANCH  13  14
ATOM     14  C   UNL     1       6.810   3.374  21.943  0.00  0.00    -0.000 C 
BRANCH  14  15
ATOM     15  C   UNL     1       7.394   4.479  22.821  0.00  0.00    -0.000 C 
BRANCH  15  16
ATOM     16  C   UNL     1       7.118   4.206  24.299  0.00  0.00    -0.000 C 
BRANCH  16  18
ATOM     17  C   UNL     1       9.394   5.230  24.602  0.00  0.00    +0.004 C 
ATOM     18  C   UNL     1       8.414   4.186  25.108  0.00  0.00    -0.003 C 
ENDBRANCH  16  18
ENDBRANCH  15  16
ENDBRANCH  14  15
ENDBRANCH  13  14
ENDBRANCH  12  13
ENDBRANCH  11  12
ENDBRANCH  10  11
ENDBRANCH   9  10
ENDBRANCH   8   9
ENDBRANCH   7   8
ENDBRANCH   6   7
ENDBRANCH   5   6
ENDBRANCH   4   5
ENDBRANCH   2   4
ENDBRANCH   1   2
BRANCH   1  19
ATOM     19  C   UNL     1       9.738  -3.747  24.427  0.00  0.00    +0.265 C 
BRANCH  19  20
ATOM     20  C   UNL     1       9.811  -4.812  25.531  0.00  0.00    +0.178 C 
BRANCH  20  21
ATOM     21  O   UNL     1       9.590  -6.119  24.966  0.00  0.00    -0.386 OA
ATOM     22  H   UNL     1       9.053  -6.588  25.638  0.00  0.00    +0.210 HD
ENDBRANCH  20  21
BRANCH  20  23
ATOM     23  C   UNL     1       8.800  -4.559  26.652  0.00  0.00    +0.202 C 
BRANCH  23  24
ATOM     24  O   UNL     1       7.947  -5.704  26.748  0.00  0.00    -0.325 OA
BRANCH  24  25
ATOM     25  P   UNL     1       6.322  -5.396  26.566  0.00  0.00    +0.213 P 
ATOM     26  O   UNL     1       6.193  -4.601  28.096  0.00  0.00    -0.437 OA
ATOM     27  O   UNL     1       5.575  -6.666  27.041  0.00  0.00    -0.517 OA
BRANCH  25  28
ATOM     28  O   UNL     1       6.451  -6.192  25.035  0.00  0.00    -0.325 OA
BRANCH  28  29
ATOM     29  C   UNL     1       6.063  -5.374  23.932  0.00  0.00    +0.201 C 
BRANCH  29  30
ATOM     30  C   UNL     1       6.555  -5.991  22.622  0.00  0.00    +0.166 C 
BRANCH  30  31
ATOM     31  O   UNL     1       7.968  -5.762  22.481  0.00  0.00    -0.387 OA
ATOM     32  H   UNL     1       8.097  -5.262  21.658  0.00  0.00    +0.210 HD
ENDBRANCH  30  31
BRANCH  30  33
ATOM     33  C   UNL     1       5.790  -5.469  21.393  0.00  0.00    +0.189 C 
BRANCH  33  34
ATOM     34  O   UNL     1       5.668  -4.047  21.404  0.00  0.00    -0.392 OA
ATOM     35  H   UNL     1       5.204  -3.819  22.236  0.00  0.00    +0.210 HD
ENDBRANCH  33  34
ENDBRANCH  30  33
ENDBRANCH  29  30
ENDBRANCH  28  29
ENDBRANCH  25  28
ENDBRANCH  24  25
ENDBRANCH  23  24
ENDBRANCH  20  23
ENDBRANCH  19  20
ENDBRANCH   1  19
TORSDOF 27
ENDMDL
MODEL 5
REMARK VINA RESULT:      -5.1      1.411      2.496
REMARK  Name = 
REMARK  28 active torsions:
REMARK  status: ('A' for Active; 'I' for Inactive)
REMARK    1  A    between atoms: C_1  and  C_2
REMARK    2  A    between atoms: C_2  and  C_3
REMARK    3  A    between atoms: C_3  and  C_4
REMARK    4  A    between atoms: C_4  and  C_5
REMARK    5  A    between atoms: C_5  and  C_6
REMARK    6  A    between atoms: C_6  and  C_7
REMARK    7  A    between atoms: C_7  and  C_8
REMARK    8  A    between atoms: C_8  and  C_9
REMARK    9  A    between atoms: C_9  and  C_10
REMARK   10  A    between atoms: C_10  and  C_11
REMARK   11  A    between atoms: C_11  and  C_12
REMARK   12  A    between atoms: C_12  and  C_13
REMARK   13  A    between atoms: C_13  and  C_14
REMARK   14  A    between atoms: C_14  and  C_15
REMARK   15  A    between atoms: C_15  and  C_16
REMARK   16  A    between atoms: C_16  and  O_18
REMARK   17  A    between atoms: O_18  and  C_19
REMARK   18  A    between atoms: C_19  and  C_20
REMARK   19  A    between atoms: C_20  and  O_22
REMARK   20  A    between atoms: C_20  and  C_23
REMARK   21  A    between atoms: C_23  and  O_24
REMARK   22  A    between atoms: O_24  and  P_25
REMARK   23  A    between atoms: P_25  and  O_28
REMARK   24  A    between atoms: O_28  and  C_29
REMARK   25  A    between atoms: C_29  and  C_30
REMARK   26  A    between atoms: C_30  and  O_32
REMARK   27  A    between atoms: C_30  and  C_33
REMARK   28  A    between atoms: C_33  and  O_34
REMARK                            x       y       z     vdW  Elec       q    Type
REMARK                         _______ _______ _______ _____ _____    ______ ____
ROOT
ATOM      1  O   UNL     1       8.236  -3.437  24.678  0.00  0.00    -0.462 OA
ENDROOT
BRANCH   1   2
ATOM      2  C   UNL     1       8.993  -2.867  23.701  0.00  0.00    +0.307 C 
ATOM      3  O   UNL     1      10.199  -2.979  23.558  0.00  0.00    -0.251 OA
BRANCH   2   4
ATOM      4  C   UNL     1       8.098  -2.087  22.768  0.00  0.00    +0.120 C 
BRANCH   4   5
ATOM      5  C   UNL     1       8.952  -1.449  21.680  0.00  0.00    +0.011 C 
BRANCH   5   6
ATOM      6  C   UNL     1       8.862   0.070  21.690  0.00  0.00    +0.001 C 
BRANCH   6   7
ATOM      7  C   UNL     1      10.260   0.675  21.855  0.00  0.00    +0.000 C 
BRANCH   7   8
ATOM      8  C   UNL     1      10.190   2.116  22.355  0.00  0.00    +0.000 C 
BRANCH   8   9
ATOM      9  C   UNL     1      10.309   2.169  23.878  0.00  0.00    +0.000 C 
BRANCH   9  10
ATOM     10  C   UNL     1      10.753   0.821  24.437  0.00  0.00    -0.000 C 
BRANCH  10  11
ATOM     11  C   UNL     1       9.711   0.253  25.395  0.00  0.00    -0.000 C 
BRANCH  11  12
ATOM     12  C   UNL     1       8.413   1.052  25.323  0.00  0.00    -0.000 C 
BRANCH  12  13
ATOM     13  C   UNL     1       7.220   0.141  25.043  0.00  0.00    -0.000 C 
BRANCH  13  14
ATOM     14  C   UNL     1       6.188   0.849  24.167  0.00  0.00    -0.000 C 
BRANCH  14  15
ATOM     15  C   UNL     1       6.550   2.319  23.969  0.00  0.00    -0.000 C 
BRANCH  15  16
ATOM     16  C   UNL     1       6.535   2.690  22.486  0.00  0.00    -0.000 C 
BRANCH  16  18
ATOM     17  C   UNL     1       7.316   4.807  23.594  0.00  0.00    +0.004 C 
ATOM     18  C   UNL     1       7.002   4.129  22.272  0.00  0.00    -0.003 C 
ENDBRANCH  16  18
ENDBRANCH  15  16
ENDBRANCH  14  15
ENDBRANCH  13  14
ENDBRANCH  12  13
ENDBRANCH  11  12
ENDBRANCH  10  11
ENDBRANCH   9  10
ENDBRANCH   8   9
ENDBRANCH   7   8
ENDBRANCH   6   7
ENDBRANCH   5   6
ENDBRANCH   4   5
ENDBRANCH   2   4
ENDBRANCH   1   2
BRANCH   1  19
ATOM     19  C   UNL     1       8.703  -3.247  26.025  0.00  0.00    +0.265 C 
BRANCH  19  20
ATOM     20  C   UNL     1       8.976  -4.611  26.677  0.00  0.00    +0.178 C 
BRANCH  20  21
ATOM     21  O   UNL     1      10.134  -5.219  26.074  0.00  0.00    -0.386 OA
ATOM     22  H   UNL     1      10.798  -5.247  26.793  0.00  0.00    +0.210 HD
ENDBRANCH  20  21
BRANCH  20  23
ATOM     23  C   UNL     1       7.779  -5.559  26.565  0.00  0.00    +0.202 C 
BRANCH  23  24
ATOM     24  O   UNL     1       7.473  -6.044  27.876  0.00  0.00    -0.325 OA
BRANCH  24  25
ATOM     25  P   UNL     1       5.856  -6.056  28.267  0.00  0.00    +0.213 P 
ATOM     26  O   UNL     1       6.144  -5.661  29.926  0.00  0.00    -0.437 OA
ATOM     27  O   UNL     1       5.484  -7.528  28.570  0.00  0.00    -0.517 OA
BRANCH  25  28
ATOM     28  O   UNL     1       5.566  -6.452  26.607  0.00  0.00    -0.325 OA
BRANCH  28  29
ATOM     29  C   UNL     1       4.195  -6.350  26.227  0.00  0.00    +0.201 C 
BRANCH  29  30
ATOM     30  C   UNL     1       4.076  -6.276  24.704  0.00  0.00    +0.166 C 
BRANCH  30  31
ATOM     31  O   UNL     1       4.588  -7.485  24.120  0.00  0.00    -0.387 OA
ATOM     32  H   UNL     1       5.376  -7.738  24.629  0.00  0.00    +0.210 HD
ENDBRANCH  30  31
BRANCH  30  33
ATOM     33  C   UNL     1       4.777  -5.040  24.111  0.00  0.00    +0.189 C 
BRANCH  33  34
ATOM     34  O   UNL     1       6.051  -5.365  23.554  0.00  0.00    -0.392 OA
ATOM     35  H   UNL     1       6.474  -4.511  23.325  0.00  0.00    +0.210 HD
ENDBRANCH  33  34
ENDBRANCH  30  33
ENDBRANCH  29  30
ENDBRANCH  28  29
ENDBRANCH  25  28
ENDBRANCH  24  25
ENDBRANCH  23  24
ENDBRANCH  20  23
ENDBRANCH  19  20
ENDBRANCH   1  19
TORSDOF 27
ENDMDL
MODEL 6
REMARK VINA RESULT:      -4.9      1.634      3.593
REMARK  Name = 
REMARK  28 active torsions:
REMARK  status: ('A' for Active; 'I' for Inactive)
REMARK    1  A    between atoms: C_1  and  C_2
REMARK    2  A    between atoms: C_2  and  C_3
REMARK    3  A    between atoms: C_3  and  C_4
REMARK    4  A    between atoms: C_4  and  C_5
REMARK    5  A    between atoms: C_5  and  C_6
REMARK    6  A    between atoms: C_6  and  C_7
REMARK    7  A    between atoms: C_7  and  C_8
REMARK    8  A    between atoms: C_8  and  C_9
REMARK    9  A    between atoms: C_9  and  C_10
REMARK   10  A    between atoms: C_10  and  C_11
REMARK   11  A    between atoms: C_11  and  C_12
REMARK   12  A    between atoms: C_12  and  C_13
REMARK   13  A    between atoms: C_13  and  C_14
REMARK   14  A    between atoms: C_14  and  C_15
REMARK   15  A    between atoms: C_15  and  C_16
REMARK   16  A    between atoms: C_16  and  O_18
REMARK   17  A    between atoms: O_18  and  C_19
REMARK   18  A    between atoms: C_19  and  C_20
REMARK   19  A    between atoms: C_20  and  O_22
REMARK   20  A    between atoms: C_20  and  C_23
REMARK   21  A    between atoms: C_23  and  O_24
REMARK   22  A    between atoms: O_24  and  P_25
REMARK   23  A    between atoms: P_25  and  O_28
REMARK   24  A    between atoms: O_28  and  C_29
REMARK   25  A    between atoms: C_29  and  C_30
REMARK   26  A    between atoms: C_30  and  O_32
REMARK   27  A    between atoms: C_30  and  C_33
REMARK   28  A    between atoms: C_33  and  O_34
REMARK                            x       y       z     vdW  Elec       q    Type
REMARK                         _______ _______ _______ _____ _____    ______ ____
ROOT
ATOM      1  O   UNL     1       8.189  -2.587  24.876  0.00  0.00    -0.462 OA
ENDROOT
BRANCH   1   2
ATOM      2  C   UNL     1       7.708  -1.574  24.104  0.00  0.00    +0.307 C 
ATOM      3  O   UNL     1       7.472  -1.622  22.908  0.00  0.00    -0.251 OA
BRANCH   2   4
ATOM      4  C   UNL     1       7.461  -0.361  24.968  0.00  0.00    +0.120 C 
BRANCH   4   5
ATOM      5  C   UNL     1       6.255   0.396  24.427  0.00  0.00    +0.011 C 
BRANCH   5   6
ATOM      6  C   UNL     1       6.597   1.825  24.034  0.00  0.00    +0.001 C 
BRANCH   6   7
ATOM      7  C   UNL     1       6.566   1.970  22.509  0.00  0.00    +0.000 C 
BRANCH   7   8
ATOM      8  C   UNL     1       6.775   3.420  22.080  0.00  0.00    +0.000 C 
BRANCH   8   9
ATOM      9  C   UNL     1       5.734   4.334  22.726  0.00  0.00    +0.000 C 
BRANCH   9  10
ATOM     10  C   UNL     1       6.282   5.745  22.903  0.00  0.00    -0.000 C 
BRANCH  10  11
ATOM     11  C   UNL     1       7.713   5.849  22.385  0.00  0.00    -0.000 C 
BRANCH  11  12
ATOM     12  C   UNL     1       8.619   6.510  23.420  0.00  0.00    -0.000 C 
BRANCH  12  13
ATOM     13  C   UNL     1       9.866   5.669  23.678  0.00  0.00    -0.000 C 
BRANCH  13  14
ATOM     14  C   UNL     1       9.489   4.254  24.114  0.00  0.00    -0.000 C 
BRANCH  14  15
ATOM     15  C   UNL     1      10.381   3.214  23.440  0.00  0.00    -0.000 C 
BRANCH  15  16
ATOM     16  C   UNL     1      10.310   1.876  24.175  0.00  0.00    -0.000 C 
BRANCH  16  18
ATOM     17  C   UNL     1       9.856   1.079  21.835  0.00  0.00    +0.004 C 
ATOM     18  C   UNL     1      10.407   0.704  23.200  0.00  0.00    -0.003 C 
ENDBRANCH  16  18
ENDBRANCH  15  16
ENDBRANCH  14  15
ENDBRANCH  13  14
ENDBRANCH  12  13
ENDBRANCH  11  12
ENDBRANCH  10  11
ENDBRANCH   9  10
ENDBRANCH   8   9
ENDBRANCH   7   8
ENDBRANCH   6   7
ENDBRANCH   5   6
ENDBRANCH   4   5
ENDBRANCH   2   4
ENDBRANCH   1   2
BRANCH   1  19
ATOM     19  C   UNL     1       9.308  -3.311  24.336  0.00  0.00    +0.265 C 
BRANCH  19  20
ATOM     20  C   UNL     1       9.639  -4.507  25.240  0.00  0.00    +0.178 C 
BRANCH  20  21
ATOM     21  O   UNL     1       9.368  -5.738  24.543  0.00  0.00    -0.386 OA
ATOM     22  H   UNL     1       8.918  -6.301  25.207  0.00  0.00    +0.210 HD
ENDBRANCH  20  21
BRANCH  20  23
ATOM     23  C   UNL     1       8.853  -4.477  26.554  0.00  0.00    +0.202 C 
BRANCH  23  24
ATOM     24  O   UNL     1       8.032  -5.648  26.607  0.00  0.00    -0.325 OA
BRANCH  24  25
ATOM     25  P   UNL     1       6.397  -5.363  26.721  0.00  0.00    +0.213 P 
ATOM     26  O   UNL     1       6.442  -5.166  28.438  0.00  0.00    -0.437 OA
ATOM     27  O   UNL     1       5.709  -6.748  26.789  0.00  0.00    -0.517 OA
BRANCH  25  28
ATOM     28  O   UNL     1       6.351  -5.559  25.002  0.00  0.00    -0.325 OA
BRANCH  28  29
ATOM     29  C   UNL     1       5.536  -4.594  24.339  0.00  0.00    +0.201 C 
BRANCH  29  30
ATOM     30  C   UNL     1       5.847  -4.583  22.841  0.00  0.00    +0.166 C 
BRANCH  30  31
ATOM     31  O   UNL     1       5.172  -3.479  22.215  0.00  0.00    -0.387 OA
ATOM     32  H   UNL     1       4.929  -2.855  22.920  0.00  0.00    +0.210 HD
ENDBRANCH  30  31
BRANCH  30  33
ATOM     33  C   UNL     1       5.488  -5.910  22.148  0.00  0.00    +0.189 C 
BRANCH  33  34
ATOM     34  O   UNL     1       4.871  -6.831  23.047  0.00  0.00    -0.392 OA
ATOM     35  H   UNL     1       5.229  -6.628  23.936  0.00  0.00    +0.210 HD
ENDBRANCH  33  34
ENDBRANCH  30  33
ENDBRANCH  29  30
ENDBRANCH  28  29
ENDBRANCH  25  28
ENDBRANCH  24  25
ENDBRANCH  23  24
ENDBRANCH  20  23
ENDBRANCH  19  20
ENDBRANCH   1  19
TORSDOF 27
ENDMDL
MODEL 7
REMARK VINA RESULT:      -4.9      1.772      3.504
REMARK  Name = 
REMARK  28 active torsions:
REMARK  status: ('A' for Active; 'I' for Inactive)
REMARK    1  A    between atoms: C_1  and  C_2
REMARK    2  A    between atoms: C_2  and  C_3
REMARK    3  A    between atoms: C_3  and  C_4
REMARK    4  A    between atoms: C_4  and  C_5
REMARK    5  A    between atoms: C_5  and  C_6
REMARK    6  A    between atoms: C_6  and  C_7
REMARK    7  A    between atoms: C_7  and  C_8
REMARK    8  A    between atoms: C_8  and  C_9
REMARK    9  A    between atoms: C_9  and  C_10
REMARK   10  A    between atoms: C_10  and  C_11
REMARK   11  A    between atoms: C_11  and  C_12
REMARK   12  A    between atoms: C_12  and  C_13
REMARK   13  A    between atoms: C_13  and  C_14
REMARK   14  A    between atoms: C_14  and  C_15
REMARK   15  A    between atoms: C_15  and  C_16
REMARK   16  A    between atoms: C_16  and  O_18
REMARK   17  A    between atoms: O_18  and  C_19
REMARK   18  A    between atoms: C_19  and  C_20
REMARK   19  A    between atoms: C_20  and  O_22
REMARK   20  A    between atoms: C_20  and  C_23
REMARK   21  A    between atoms: C_23  and  O_24
REMARK   22  A    between atoms: O_24  and  P_25
REMARK   23  A    between atoms: P_25  and  O_28
REMARK   24  A    between atoms: O_28  and  C_29
REMARK   25  A    between atoms: C_29  and  C_30
REMARK   26  A    between atoms: C_30  and  O_32
REMARK   27  A    between atoms: C_30  and  C_33
REMARK   28  A    between atoms: C_33  and  O_34
REMARK                            x       y       z     vdW  Elec       q    Type
REMARK                         _______ _______ _______ _____ _____    ______ ____
ROOT
ATOM      1  O   UNL     1      10.361  -2.715  23.720  0.00  0.00    -0.462 OA
ENDROOT
BRANCH   1   2
ATOM      2  C   UNL     1      10.108  -1.694  22.857  0.00  0.00    +0.307 C 
ATOM      3  O   UNL     1      10.125  -1.751  21.638  0.00  0.00    -0.251 OA
BRANCH   2   4
ATOM      4  C   UNL     1       9.752  -0.454  23.641  0.00  0.00    +0.120 C 
BRANCH   4   5
ATOM      5  C   UNL     1       9.101   0.556  22.705  0.00  0.00    +0.011 C 
BRANCH   5   6
ATOM      6  C   UNL     1      10.017   1.729  22.390  0.00  0.00    +0.001 C 
BRANCH   6   7
ATOM      7  C   UNL     1      10.332   2.505  23.673  0.00  0.00    +0.000 C 
BRANCH   7   8
ATOM      8  C   UNL     1      11.175   3.744  23.384  0.00  0.00    +0.000 C 
BRANCH   8   9
ATOM      9  C   UNL     1      10.420   5.017  23.767  0.00  0.00    +0.000 C 
BRANCH   9  10
ATOM     10  C   UNL     1       9.210   4.692  24.635  0.00  0.00    -0.000 C 
BRANCH  10  11
ATOM     11  C   UNL     1       7.995   5.514  24.217  0.00  0.00    -0.000 C 
BRANCH  11  12
ATOM     12  C   UNL     1       7.843   5.525  22.699  0.00  0.00    -0.000 C 
BRANCH  12  13
ATOM     13  C   UNL     1       7.228   4.220  22.197  0.00  0.00    -0.000 C 
BRANCH  13  14
ATOM     14  C   UNL     1       6.122   3.743  23.136  0.00  0.00    -0.000 C 
BRANCH  14  15
ATOM     15  C   UNL     1       5.840   2.254  22.943  0.00  0.00    -0.000 C 
BRANCH  15  16
ATOM     16  C   UNL     1       5.826   1.523  24.285  0.00  0.00    -0.000 C 
BRANCH  16  18
ATOM     17  C   UNL     1       7.151   1.115  26.383  0.00  0.00    +0.004 C 
ATOM     18  C   UNL     1       6.910   2.059  25.218  0.00  0.00    -0.003 C 
ENDBRANCH  16  18
ENDBRANCH  15  16
ENDBRANCH  14  15
ENDBRANCH  13  14
ENDBRANCH  12  13
ENDBRANCH  11  12
ENDBRANCH  10  11
ENDBRANCH   9  10
ENDBRANCH   8   9
ENDBRANCH   7   8
ENDBRANCH   6   7
ENDBRANCH   5   6
ENDBRANCH   4   5
ENDBRANCH   2   4
ENDBRANCH   1   2
BRANCH   1  19
ATOM     19  C   UNL     1       9.206  -3.383  24.258  0.00  0.00    +0.265 C 
BRANCH  19  20
ATOM     20  C   UNL     1       9.650  -4.556  25.144  0.00  0.00    +0.178 C 
BRANCH  20  21
ATOM     21  O   UNL     1       9.447  -5.800  24.447  0.00  0.00    -0.386 OA
ATOM     22  H   UNL     1       8.898  -5.560  23.672  0.00  0.00    +0.210 HD
ENDBRANCH  20  21
BRANCH  20  23
ATOM     23  C   UNL     1       8.905  -4.589  26.481  0.00  0.00    +0.202 C 
BRANCH  23  24
ATOM     24  O   UNL     1       8.028  -5.720  26.473  0.00  0.00    -0.325 OA
BRANCH  24  25
ATOM     25  P   UNL     1       6.406  -5.360  26.551  0.00  0.00    +0.213 P 
ATOM     26  O   UNL     1       6.455  -5.014  28.245  0.00  0.00    -0.437 OA
ATOM     27  O   UNL     1       5.662  -6.705  26.737  0.00  0.00    -0.517 OA
BRANCH  25  28
ATOM     28  O   UNL     1       6.356  -5.706  24.856  0.00  0.00    -0.325 OA
BRANCH  28  29
ATOM     29  C   UNL     1       5.358  -4.968  24.153  0.00  0.00    +0.201 C 
BRANCH  29  30
ATOM     30  C   UNL     1       5.910  -4.485  22.810  0.00  0.00    +0.166 C 
BRANCH  30  31
ATOM     31  O   UNL     1       4.949  -3.625  22.175  0.00  0.00    -0.387 OA
ATOM     32  H   UNL     1       4.669  -4.064  21.355  0.00  0.00    +0.210 HD
ENDBRANCH  30  31
BRANCH  30  33
ATOM     33  C   UNL     1       6.309  -5.644  21.879  0.00  0.00    +0.189 C 
BRANCH  33  34
ATOM     34  O   UNL     1       7.570  -6.208  22.239  0.00  0.00    -0.392 OA
ATOM     35  H   UNL     1       7.739  -5.932  23.164  0.00  0.00    +0.210 HD
ENDBRANCH  33  34
ENDBRANCH  30  33
ENDBRANCH  29  30
ENDBRANCH  28  29
ENDBRANCH  25  28
ENDBRANCH  24  25
ENDBRANCH  23  24
ENDBRANCH  20  23
ENDBRANCH  19  20
ENDBRANCH   1  19
TORSDOF 27
ENDMDL
MODEL 8
REMARK VINA RESULT:      -4.9      1.567      3.608
REMARK  Name = 
REMARK  28 active torsions:
REMARK  status: ('A' for Active; 'I' for Inactive)
REMARK    1  A    between atoms: C_1  and  C_2
REMARK    2  A    between atoms: C_2  and  C_3
REMARK    3  A    between atoms: C_3  and  C_4
REMARK    4  A    between atoms: C_4  and  C_5
REMARK    5  A    between atoms: C_5  and  C_6
REMARK    6  A    between atoms: C_6  and  C_7
REMARK    7  A    between atoms: C_7  and  C_8
REMARK    8  A    between atoms: C_8  and  C_9
REMARK    9  A    between atoms: C_9  and  C_10
REMARK   10  A    between atoms: C_10  and  C_11
REMARK   11  A    between atoms: C_11  and  C_12
REMARK   12  A    between atoms: C_12  and  C_13
REMARK   13  A    between atoms: C_13  and  C_14
REMARK   14  A    between atoms: C_14  and  C_15
REMARK   15  A    between atoms: C_15  and  C_16
REMARK   16  A    between atoms: C_16  and  O_18
REMARK   17  A    between atoms: O_18  and  C_19
REMARK   18  A    between atoms: C_19  and  C_20
REMARK   19  A    between atoms: C_20  and  O_22
REMARK   20  A    between atoms: C_20  and  C_23
REMARK   21  A    between atoms: C_23  and  O_24
REMARK   22  A    between atoms: O_24  and  P_25
REMARK   23  A    between atoms: P_25  and  O_28
REMARK   24  A    between atoms: O_28  and  C_29
REMARK   25  A    between atoms: C_29  and  C_30
REMARK   26  A    between atoms: C_30  and  O_32
REMARK   27  A    between atoms: C_30  and  C_33
REMARK   28  A    between atoms: C_33  and  O_34
REMARK                            x       y       z     vdW  Elec       q    Type
REMARK                         _______ _______ _______ _____ _____    ______ ____
ROOT
ATOM      1  O   UNL     1       8.802  -3.664  23.447  0.00  0.00    -0.462 OA
ENDROOT
BRANCH   1   2
ATOM      2  C   UNL     1       8.439  -2.559  22.740  0.00  0.00    +0.307 C 
ATOM      3  O   UNL     1       7.346  -2.338  22.246  0.00  0.00    -0.251 OA
BRANCH   2   4
ATOM      4  C   UNL     1       9.602  -1.597  22.688  0.00  0.00    +0.120 C 
BRANCH   4   5
ATOM      5  C   UNL     1       9.481  -0.740  21.434  0.00  0.00    +0.011 C 
BRANCH   5   6
ATOM      6  C   UNL     1       9.381   0.744  21.753  0.00  0.00    +0.001 C 
BRANCH   6   7
ATOM      7  C   UNL     1      10.236   1.073  22.981  0.00  0.00    +0.000 C 
BRANCH   7   8
ATOM      8  C   UNL     1      10.456   2.577  23.123  0.00  0.00    +0.000 C 
BRANCH   8   9
ATOM      9  C   UNL     1       9.443   3.185  24.094  0.00  0.00    +0.000 C 
BRANCH   9  10
ATOM     10  C   UNL     1       8.199   3.664  23.353  0.00  0.00    -0.000 C 
BRANCH  10  11
ATOM     11  C   UNL     1       6.933   3.077  23.967  0.00  0.00    -0.000 C 
BRANCH  11  12
ATOM     12  C   UNL     1       7.274   2.133  25.117  0.00  0.00    -0.000 C 
BRANCH  12  13
ATOM     13  C   UNL     1       7.014   0.678  24.731  0.00  0.00    -0.000 C 
BRANCH  13  14
ATOM     14  C   UNL     1       7.834  -0.271  25.602  0.00  0.00    -0.000 C 
BRANCH  14  15
ATOM     15  C   UNL     1       6.973  -1.420  26.125  0.00  0.00    -0.000 C 
BRANCH  15  16
ATOM     16  C   UNL     1       5.691  -1.559  25.306  0.00  0.00    -0.000 C 
BRANCH  16  18
ATOM     17  C   UNL     1       4.869  -1.729  27.675  0.00  0.00    +0.004 C 
ATOM     18  C   UNL     1       4.467  -1.675  26.211  0.00  0.00    -0.003 C 
ENDBRANCH  16  18
ENDBRANCH  15  16
ENDBRANCH  14  15
ENDBRANCH  13  14
ENDBRANCH  12  13
ENDBRANCH  11  12
ENDBRANCH  10  11
ENDBRANCH   9  10
ENDBRANCH   8   9
ENDBRANCH   7   8
ENDBRANCH   6   7
ENDBRANCH   5   6
ENDBRANCH   4   5
ENDBRANCH   2   4
ENDBRANCH   1   2
BRANCH   1  19
ATOM     19  C   UNL     1       9.642  -3.430  24.591  0.00  0.00    +0.265 C 
BRANCH  19  20
ATOM     20  C   UNL     1       9.765  -4.718  25.418  0.00  0.00    +0.178 C 
BRANCH  20  21
ATOM     21  O   UNL     1       9.740  -5.864  24.545  0.00  0.00    -0.386 OA
ATOM     22  H   UNL     1       8.934  -6.354  24.808  0.00  0.00    +0.210 HD
ENDBRANCH  20  21
BRANCH  20  23
ATOM     23  C   UNL     1       8.655  -4.846  26.464  0.00  0.00    +0.202 C 
BRANCH  23  24
ATOM     24  O   UNL     1       7.659  -5.736  25.950  0.00  0.00    -0.325 OA
BRANCH  24  25
ATOM     25  P   UNL     1       6.110  -5.453  26.486  0.00  0.00    +0.213 P 
ATOM     26  O   UNL     1       6.632  -4.934  28.051  0.00  0.00    -0.437 OA
ATOM     27  O   UNL     1       5.565  -6.809  26.998  0.00  0.00    -0.517 OA
BRANCH  25  28
ATOM     28  O   UNL     1       5.587  -5.973  24.920  0.00  0.00    -0.325 OA
BRANCH  28  29
ATOM     29  C   UNL     1       5.416  -4.903  23.992  0.00  0.00    +0.201 C 
BRANCH  29  30
ATOM     30  C   UNL     1       5.149  -5.460  22.592  0.00  0.00    +0.166 C 
BRANCH  30  31
ATOM     31  O   UNL     1       4.123  -6.465  22.660  0.00  0.00    -0.387 OA
ATOM     32  H   UNL     1       4.485  -7.272  22.259  0.00  0.00    +0.210 HD
ENDBRANCH  30  31
BRANCH  30  33
ATOM     33  C   UNL     1       6.417  -6.015  21.919  0.00  0.00    +0.189 C 
BRANCH  33  34
ATOM     34  O   UNL     1       7.547  -5.970  22.790  0.00  0.00    -0.392 OA
ATOM     35  H   UNL     1       7.190  -5.833  23.693  0.00  0.00    +0.210 HD
ENDBRANCH  33  34
ENDBRANCH  30  33
ENDBRANCH  29  30
ENDBRANCH  28  29
ENDBRANCH  25  28
ENDBRANCH  24  25
ENDBRANCH  23  24
ENDBRANCH  20  23
ENDBRANCH  19  20
ENDBRANCH   1  19
TORSDOF 27
ENDMDL
MODEL 9
REMARK VINA RESULT:      -4.8      1.868      3.403
REMARK  Name = 
REMARK  28 active torsions:
REMARK  status: ('A' for Active; 'I' for Inactive)
REMARK    1  A    between atoms: C_1  and  C_2
REMARK    2  A    between atoms: C_2  and  C_3
REMARK    3  A    between atoms: C_3  and  C_4
REMARK    4  A    between atoms: C_4  and  C_5
REMARK    5  A    between atoms: C_5  and  C_6
REMARK    6  A    between atoms: C_6  and  C_7
REMARK    7  A    between atoms: C_7  and  C_8
REMARK    8  A    between atoms: C_8  and  C_9
REMARK    9  A    between atoms: C_9  and  C_10
REMARK   10  A    between atoms: C_10  and  C_11
REMARK   11  A    between atoms: C_11  and  C_12
REMARK   12  A    between atoms: C_12  and  C_13
REMARK   13  A    between atoms: C_13  and  C_14
REMARK   14  A    between atoms: C_14  and  C_15
REMARK   15  A    between atoms: C_15  and  C_16
REMARK   16  A    between atoms: C_16  and  O_18
REMARK   17  A    between atoms: O_18  and  C_19
REMARK   18  A    between atoms: C_19  and  C_20
REMARK   19  A    between atoms: C_20  and  O_22
REMARK   20  A    between atoms: C_20  and  C_23
REMARK   21  A    between atoms: C_23  and  O_24
REMARK   22  A    between atoms: O_24  and  P_25
REMARK   23  A    between atoms: P_25  and  O_28
REMARK   24  A    between atoms: O_28  and  C_29
REMARK   25  A    between atoms: C_29  and  C_30
REMARK   26  A    between atoms: C_30  and  O_32
REMARK   27  A    between atoms: C_30  and  C_33
REMARK   28  A    between atoms: C_33  and  O_34
REMARK                            x       y       z     vdW  Elec       q    Type
REMARK                         _______ _______ _______ _____ _____    ______ ____
ROOT
ATOM      1  O   UNL     1       9.679  -3.219  23.559  0.00  0.00    -0.462 OA
ENDROOT
BRANCH   1   2
ATOM      2  C   UNL     1       9.160  -2.146  22.902  0.00  0.00    +0.307 C 
ATOM      3  O   UNL     1       8.021  -2.034  22.479  0.00  0.00    -0.251 OA
BRANCH   2   4
ATOM      4  C   UNL     1      10.210  -1.065  22.804  0.00  0.00    +0.120 C 
BRANCH   4   5
ATOM      5  C   UNL     1       9.729   0.007  21.836  0.00  0.00    +0.011 C 
BRANCH   5   6
ATOM      6  C   UNL     1      10.039   1.413  22.327  0.00  0.00    +0.001 C 
BRANCH   6   7
ATOM      7  C   UNL     1      10.007   1.451  23.859  0.00  0.00    +0.000 C 
BRANCH   7   8
ATOM      8  C   UNL     1       8.867   2.326  24.373  0.00  0.00    +0.000 C 
BRANCH   8   9
ATOM      9  C   UNL     1       7.569   2.025  23.623  0.00  0.00    +0.000 C 
BRANCH   9  10
ATOM     10  C   UNL     1       6.705   3.276  23.506  0.00  0.00    -0.000 C 
BRANCH  10  11
ATOM     11  C   UNL     1       7.001   4.030  22.213  0.00  0.00    -0.000 C 
BRANCH  11  12
ATOM     12  C   UNL     1       7.369   5.482  22.503  0.00  0.00    -0.000 C 
BRANCH  12  13
ATOM     13  C   UNL     1       7.307   5.778  24.000  0.00  0.00    -0.000 C 
BRANCH  13  14
ATOM     14  C   UNL     1       8.622   6.380  24.491  0.00  0.00    -0.000 C 
BRANCH  14  15
ATOM     15  C   UNL     1       9.705   6.286  23.419  0.00  0.00    -0.000 C 
BRANCH  15  16
ATOM     16  C   UNL     1      10.771   5.261  23.808  0.00  0.00    -0.000 C 
BRANCH  16  18
ATOM     17  C   UNL     1      13.154   5.179  23.012  0.00  0.00    +0.004 C 
ATOM     18  C   UNL     1      12.152   5.906  23.893  0.00  0.00    -0.003 C 
ENDBRANCH  16  18
ENDBRANCH  15  16
ENDBRANCH  14  15
ENDBRANCH  13  14
ENDBRANCH  12  13
ENDBRANCH  11  12
ENDBRANCH  10  11
ENDBRANCH   9  10
ENDBRANCH   8   9
ENDBRANCH   7   8
ENDBRANCH   6   7
ENDBRANCH   5   6
ENDBRANCH   4   5
ENDBRANCH   2   4
ENDBRANCH   1   2
BRANCH   1  19
ATOM     19  C   UNL     1       8.738  -4.014  24.302  0.00  0.00    +0.265 C 
BRANCH  19  20
ATOM     20  C   UNL     1       9.407  -4.555  25.575  0.00  0.00    +0.178 C 
BRANCH  20  21
ATOM     21  O   UNL     1      10.225  -5.696  25.252  0.00  0.00    -0.386 OA
ATOM     22  H   UNL     1      10.839  -5.779  26.010  0.00  0.00    +0.210 HD
ENDBRANCH  20  21
BRANCH  20  23
ATOM     23  C   UNL     1       8.387  -4.941  26.649  0.00  0.00    +0.202 C 
BRANCH  23  24
ATOM     24  O   UNL     1       7.252  -5.518  25.995  0.00  0.00    -0.325 OA
BRANCH  24  25
ATOM     25  P   UNL     1       5.840  -5.496  26.874  0.00  0.00    +0.213 P 
ATOM     26  O   UNL     1       6.662  -5.424  28.394  0.00  0.00    -0.437 OA
ATOM     27  O   UNL     1       5.407  -6.971  27.055  0.00  0.00    -0.517 OA
BRANCH  25  28
ATOM     28  O   UNL     1       5.016  -5.567  25.354  0.00  0.00    -0.325 OA
BRANCH  28  29
ATOM     29  C   UNL     1       5.130  -4.370  24.586  0.00  0.00    +0.201 C 
BRANCH  29  30
ATOM     30  C   UNL     1       4.909  -4.674  23.103  0.00  0.00    +0.166 C 
BRANCH  30  31
ATOM     31  O   UNL     1       3.520  -4.962  22.871  0.00  0.00    -0.387 OA
ATOM     32  H   UNL     1       3.306  -4.640  21.980  0.00  0.00    +0.210 HD
ENDBRANCH  30  31
BRANCH  30  33
ATOM     33  C   UNL     1       5.801  -5.819  22.590  0.00  0.00    +0.189 C 
BRANCH  33  34
ATOM     34  O   UNL     1       5.448  -6.218  21.266  0.00  0.00    -0.392 OA
ATOM     35  H   UNL     1       5.123  -7.140  21.336  0.00  0.00    +0.210 HD
ENDBRANCH  33  34
ENDBRANCH  30  33
ENDBRANCH  29  30
ENDBRANCH  28  29
ENDBRANCH  25  28
ENDBRANCH  24  25
ENDBRANCH  23  24
ENDBRANCH  20  23
ENDBRANCH  19  20
ENDBRANCH   1  19
TORSDOF 27
ENDMDL
