MODEL 1
REMARK VINA RESULT:      -6.8      0.000      0.000
REMARK  Name = 
REMARK  6 active torsions:
REMARK  status: ('A' for Active; 'I' for Inactive)
REMARK    1  A    between atoms: O_1  and  C_2
REMARK    2  A    between atoms: C_4  and  O_5
REMARK    3  A    between atoms: C_6  and  C_9
REMARK    4  A    between atoms: N_11  and  C_12
REMARK    5  A    between atoms: C_12  and  C_13
REMARK    6  A    between atoms: C_20  and  C_21
REMARK                            x       y       z     vdW  Elec       q    Type
REMARK                         _______ _______ _______ _____ _____    ______ ____
ROOT
ATOM      1  C   UNL     1       7.073  -2.256  23.694  0.00  0.00    +0.104 A 
ATOM      2  C   UNL     1       6.658  -3.503  23.122  0.00  0.00    +0.028 A 
ATOM      3  C   UNL     1       6.789  -4.086  21.844  0.00  0.00    +0.012 A 
ATOM      4  C   UNL     1       6.156  -5.279  21.541  0.00  0.00    +0.001 A 
ATOM      5  C   UNL     1       5.447  -5.939  22.527  0.00  0.00    +0.014 A 
ATOM      6  C   UNL     1       5.358  -5.468  23.867  0.00  0.00    +0.080 A 
ATOM      7  C   UNL     1       5.982  -4.212  24.139  0.00  0.00    +0.081 A 
ATOM      8  N   UNL     1       6.140  -3.403  25.252  0.00  0.00    -0.259 N 
ATOM      9  N   UNL     1       6.773  -2.236  25.000  0.00  0.00    -0.170 NA
ENDROOT
BRANCH   1  13
ATOM     10  C   UNL     1       9.178   1.045  21.912  0.00  0.00    +0.120 A 
ATOM     11  C   UNL     1       9.756  -0.214  21.971  0.00  0.00    +0.046 A 
ATOM     12  C   UNL     1       9.049  -1.276  22.546  0.00  0.00    +0.017 A 
ATOM     13  C   UNL     1       7.755  -1.096  23.081  0.00  0.00    +0.044 A 
ATOM     14  C   UNL     1       7.213   0.201  23.027  0.00  0.00    +0.130 A 
ATOM     15  C   UNL     1       7.910   1.264  22.432  0.00  0.00    +0.091 A 
BRANCH  10  16
ATOM     16  O   UNL     1       9.898   2.055  21.346  0.00  0.00    -0.507 OA
ATOM     17  H   UNL     1       9.453   2.901  21.519  0.00  0.00    +0.292 HD
ENDBRANCH  10  16
BRANCH  14  18
ATOM     18  O   UNL     1       6.004   0.483  23.604  0.00  0.00    -0.506 OA
ATOM     19  H   UNL     1       6.125   0.648  24.553  0.00  0.00    +0.292 HD
ENDBRANCH  14  18
ENDBRANCH   1  13
BRANCH   6  20
ATOM     20  C   UNL     1       4.599  -6.400  24.794  0.00  0.00    +0.419 C 
ATOM     21  F   UNL     1       4.058  -7.451  24.109  0.00  0.00    -0.166 F 
ATOM     22  F   UNL     1       3.543  -5.778  25.393  0.00  0.00    -0.166 F 
ATOM     23  F   UNL     1       5.308  -6.957  25.801  0.00  0.00    -0.166 F 
ENDBRANCH   6  20
BRANCH   8  24
ATOM     24  C   UNL     1       5.785  -3.623  26.652  0.00  0.00    +0.171 C 
BRANCH  24  25
ATOM     25  C   UNL     1       6.745  -4.548  27.350  0.00  0.00    -0.012 C 
ATOM     26  C   UNL     1       7.872  -5.052  26.831  0.00  0.00    +0.006 C 
ENDBRANCH  24  25
ENDBRANCH   8  24
TORSDOF 6
ENDMDL
MODEL 2
REMARK VINA RESULT:      -6.8      1.023      1.457
REMARK  Name = 
REMARK  6 active torsions:
REMARK  status: ('A' for Active; 'I' for Inactive)
REMARK    1  A    between atoms: O_1  and  C_2
REMARK    2  A    between atoms: C_4  and  O_5
REMARK    3  A    between atoms: C_6  and  C_9
REMARK    4  A    between atoms: N_11  and  C_12
REMARK    5  A    between atoms: C_12  and  C_13
REMARK    6  A    between atoms: C_20  and  C_21
REMARK                            x       y       z     vdW  Elec       q    Type
REMARK                         _______ _______ _______ _____ _____    ______ ____
ROOT
ATOM      1  C   UNL     1       7.341  -2.379  23.740  0.00  0.00    +0.104 A 
ATOM      2  C   UNL     1       6.911  -3.620  23.166  0.00  0.00    +0.028 A 
ATOM      3  C   UNL     1       7.096  -4.234  21.909  0.00  0.00    +0.012 A 
ATOM      4  C   UNL     1       6.434  -5.408  21.590  0.00  0.00    +0.001 A 
ATOM      5  C   UNL     1       5.639  -6.018  22.543  0.00  0.00    +0.014 A 
ATOM      6  C   UNL     1       5.488  -5.516  23.865  0.00  0.00    +0.080 A 
ATOM      7  C   UNL     1       6.146  -4.280  24.152  0.00  0.00    +0.081 A 
ATOM      8  N   UNL     1       6.268  -3.456  25.257  0.00  0.00    -0.259 N 
ATOM      9  N   UNL     1       6.963  -2.320  25.024  0.00  0.00    -0.170 NA
ENDROOT
BRANCH   1  13
ATOM     10  C   UNL     1       9.445   0.940  21.990  0.00  0.00    +0.120 A 
ATOM     11  C   UNL     1       8.095   1.037  22.290  0.00  0.00    +0.046 A 
ATOM     12  C   UNL     1       7.432  -0.052  22.869  0.00  0.00    +0.017 A 
ATOM     13  C   UNL     1       8.106  -1.261  23.149  0.00  0.00    +0.044 A 
ATOM     14  C   UNL     1       9.469  -1.330  22.805  0.00  0.00    +0.130 A 
ATOM     15  C   UNL     1      10.141  -0.234  22.245  0.00  0.00    +0.091 A 
BRANCH  10  16
ATOM     16  O   UNL     1      10.056   2.020  21.426  0.00  0.00    -0.507 OA
ATOM     17  H   UNL     1      10.859   1.729  20.965  0.00  0.00    +0.292 HD
ENDBRANCH  10  16
BRANCH  14  18
ATOM     18  O   UNL     1      10.174  -2.493  22.957  0.00  0.00    -0.506 OA
ATOM     19  H   UNL     1      10.907  -2.517  22.321  0.00  0.00    +0.292 HD
ENDBRANCH  14  18
ENDBRANCH   1  13
BRANCH   6  20
ATOM     20  C   UNL     1       4.636  -6.397  24.760  0.00  0.00    +0.419 C 
ATOM     21  F   UNL     1       4.069  -7.422  24.056  0.00  0.00    -0.166 F 
ATOM     22  F   UNL     1       3.590  -5.714  25.307  0.00  0.00    -0.166 F 
ATOM     23  F   UNL     1       5.266  -6.985  25.802  0.00  0.00    -0.166 F 
ENDBRANCH   6  20
BRANCH   8  24
ATOM     24  C   UNL     1       5.820  -3.631  26.637  0.00  0.00    +0.171 C 
BRANCH  24  25
ATOM     25  C   UNL     1       6.706  -4.566  27.415  0.00  0.00    -0.012 C 
ATOM     26  C   UNL     1       7.805  -5.177  26.953  0.00  0.00    +0.006 C 
ENDBRANCH  24  25
ENDBRANCH   8  24
TORSDOF 6
ENDMDL
MODEL 3
REMARK VINA RESULT:      -6.5      1.727      3.486
REMARK  Name = 
REMARK  6 active torsions:
REMARK  status: ('A' for Active; 'I' for Inactive)
REMARK    1  A    between atoms: O_1  and  C_2
REMARK    2  A    between atoms: C_4  and  O_5
REMARK    3  A    between atoms: C_6  and  C_9
REMARK    4  A    between atoms: N_11  and  C_12
REMARK    5  A    between atoms: C_12  and  C_13
REMARK    6  A    between atoms: C_20  and  C_21
REMARK                            x       y       z     vdW  Elec       q    Type
REMARK                         _______ _______ _______ _____ _____    ______ ____
ROOT
ATOM      1  C   UNL     1       7.930  -1.186  23.596  0.00  0.00    +0.104 A 
ATOM      2  C   UNL     1       7.911  -2.088  24.709  0.00  0.00    +0.028 A 
ATOM      3  C   UNL     1       8.569  -2.117  25.957  0.00  0.00    +0.012 A 
ATOM      4  C   UNL     1       8.449  -3.212  26.796  0.00  0.00    +0.001 A 
ATOM      5  C   UNL     1       7.618  -4.255  26.434  0.00  0.00    +0.014 A 
ATOM      6  C   UNL     1       6.840  -4.250  25.242  0.00  0.00    +0.080 A 
ATOM      7  C   UNL     1       7.019  -3.130  24.374  0.00  0.00    +0.081 A 
ATOM      8  N   UNL     1       6.494  -2.723  23.159  0.00  0.00    -0.259 N 
ATOM      9  N   UNL     1       7.034  -1.579  22.681  0.00  0.00    -0.170 NA
ENDROOT
BRANCH   1  13
ATOM     10  C   UNL     1      10.192   2.428  23.022  0.00  0.00    +0.120 A 
ATOM     11  C   UNL     1       9.484   2.215  24.195  0.00  0.00    +0.046 A 
ATOM     12  C   UNL     1       8.763   1.027  24.365  0.00  0.00    +0.017 A 
ATOM     13  C   UNL     1       8.729   0.035  23.361  0.00  0.00    +0.044 A 
ATOM     14  C   UNL     1       9.438   0.300  22.174  0.00  0.00    +0.130 A 
ATOM     15  C   UNL     1      10.179   1.479  22.009  0.00  0.00    +0.091 A 
BRANCH  10  16
ATOM     16  O   UNL     1      10.881   3.597  22.893  0.00  0.00    -0.507 OA
ATOM     17  H   UNL     1      11.636   3.592  23.504  0.00  0.00    +0.292 HD
ENDBRANCH  10  16
BRANCH  14  18
ATOM     18  O   UNL     1       9.383  -0.566  21.115  0.00  0.00    -0.506 OA
ATOM     19  H   UNL     1       8.585  -1.113  21.180  0.00  0.00    +0.292 HD
ENDBRANCH  14  18
ENDBRANCH   1  13
BRANCH   6  20
ATOM     20  C   UNL     1       5.939  -5.463  25.095  0.00  0.00    +0.419 C 
ATOM     21  F   UNL     1       6.033  -6.287  26.180  0.00  0.00    -0.166 F 
ATOM     22  F   UNL     1       6.287  -6.234  24.025  0.00  0.00    -0.166 F 
ATOM     23  F   UNL     1       4.618  -5.216  24.946  0.00  0.00    -0.166 F 
ENDBRANCH   6  20
BRANCH   8  24
ATOM     24  C   UNL     1       5.425  -3.290  22.340  0.00  0.00    +0.171 C 
BRANCH  24  25
ATOM     25  C   UNL     1       5.951  -4.057  21.158  0.00  0.00    -0.012 C 
ATOM     26  C   UNL     1       6.234  -5.366  21.132  0.00  0.00    +0.006 C 
ENDBRANCH  24  25
ENDBRANCH   8  24
TORSDOF 6
ENDMDL
MODEL 4
REMARK VINA RESULT:      -6.4      1.722      3.065
REMARK  Name = 
REMARK  6 active torsions:
REMARK  status: ('A' for Active; 'I' for Inactive)
REMARK    1  A    between atoms: O_1  and  C_2
REMARK    2  A    between atoms: C_4  and  O_5
REMARK    3  A    between atoms: C_6  and  C_9
REMARK    4  A    between atoms: N_11  and  C_12
REMARK    5  A    between atoms: C_12  and  C_13
REMARK    6  A    between atoms: C_20  and  C_21
REMARK                            x       y       z     vdW  Elec       q    Type
REMARK                         _______ _______ _______ _____ _____    ______ ____
ROOT
ATOM      1  C   UNL     1       7.897  -2.056  23.583  0.00  0.00    +0.104 A 
ATOM      2  C   UNL     1       6.714  -2.238  24.371  0.00  0.00    +0.028 A 
ATOM      3  C   UNL     1       5.799  -1.355  24.982  0.00  0.00    +0.012 A 
ATOM      4  C   UNL     1       4.798  -1.833  25.811  0.00  0.00    +0.001 A 
ATOM      5  C   UNL     1       4.655  -3.197  25.982  0.00  0.00    +0.014 A 
ATOM      6  C   UNL     1       5.472  -4.154  25.316  0.00  0.00    +0.080 A 
ATOM      7  C   UNL     1       6.524  -3.630  24.504  0.00  0.00    +0.081 A 
ATOM      8  N   UNL     1       7.521  -4.167  23.706  0.00  0.00    -0.259 N 
ATOM      9  N   UNL     1       8.349  -3.246  23.165  0.00  0.00    -0.170 NA
ENDROOT
BRANCH   1  13
ATOM     10  C   UNL     1       9.955   1.496  22.294  0.00  0.00    +0.120 A 
ATOM     11  C   UNL     1       9.281   0.698  21.382  0.00  0.00    +0.046 A 
ATOM     12  C   UNL     1       8.609  -0.448  21.825  0.00  0.00    +0.017 A 
ATOM     13  C   UNL     1       8.608  -0.821  23.187  0.00  0.00    +0.044 A 
ATOM     14  C   UNL     1       9.325  -0.002  24.077  0.00  0.00    +0.130 A 
ATOM     15  C   UNL     1       9.982   1.159  23.641  0.00  0.00    +0.091 A 
BRANCH  10  16
ATOM     16  O   UNL     1      10.599   2.602  21.826  0.00  0.00    -0.507 OA
ATOM     17  H   UNL     1      11.543   2.538  22.041  0.00  0.00    +0.292 HD
ENDBRANCH  10  16
BRANCH  14  18
ATOM     18  O   UNL     1       9.453  -0.341  25.397  0.00  0.00    -0.506 OA
ATOM     19  H   UNL     1       9.689   0.445  25.916  0.00  0.00    +0.292 HD
ENDBRANCH  14  18
ENDBRANCH   1  13
BRANCH   6  20
ATOM     20  C   UNL     1       5.077  -5.593  25.592  0.00  0.00    +0.419 C 
ATOM     21  F   UNL     1       4.014  -5.663  26.447  0.00  0.00    -0.166 F 
ATOM     22  F   UNL     1       6.077  -6.291  26.203  0.00  0.00    -0.166 F 
ATOM     23  F   UNL     1       4.722  -6.336  24.519  0.00  0.00    -0.166 F 
ENDBRANCH   6  20
BRANCH   8  24
ATOM     24  C   UNL     1       7.793  -5.548  23.313  0.00  0.00    +0.171 C 
BRANCH  24  25
ATOM     25  C   UNL     1       7.264  -5.870  21.942  0.00  0.00    -0.012 C 
ATOM     26  C   UNL     1       6.012  -5.666  21.513  0.00  0.00    +0.006 C 
ENDBRANCH  24  25
ENDBRANCH   8  24
TORSDOF 6
ENDMDL
MODEL 5
REMARK VINA RESULT:      -6.4      4.366      7.075
REMARK  Name = 
REMARK  6 active torsions:
REMARK  status: ('A' for Active; 'I' for Inactive)
REMARK    1  A    between atoms: O_1  and  C_2
REMARK    2  A    between atoms: C_4  and  O_5
REMARK    3  A    between atoms: C_6  and  C_9
REMARK    4  A    between atoms: N_11  and  C_12
REMARK    5  A    between atoms: C_12  and  C_13
REMARK    6  A    between atoms: C_20  and  C_21
REMARK                            x       y       z     vdW  Elec       q    Type
REMARK                         _______ _______ _______ _____ _____    ______ ____
ROOT
ATOM      1  C   UNL     1       6.777  -2.149  23.782  0.00  0.00    +0.104 A 
ATOM      2  C   UNL     1       8.116  -1.732  23.490  0.00  0.00    +0.028 A 
ATOM      3  C   UNL     1       9.279  -2.405  23.058  0.00  0.00    +0.012 A 
ATOM      4  C   UNL     1      10.494  -1.744  22.985  0.00  0.00    +0.001 A 
ATOM      5  C   UNL     1      10.548  -0.393  23.272  0.00  0.00    +0.014 A 
ATOM      6  C   UNL     1       9.400   0.376  23.611  0.00  0.00    +0.080 A 
ATOM      7  C   UNL     1       8.169  -0.341  23.723  0.00  0.00    +0.081 A 
ATOM      8  N   UNL     1       6.856  -0.016  24.021  0.00  0.00    -0.259 N 
ATOM      9  N   UNL     1       6.023  -1.079  24.071  0.00  0.00    -0.170 NA
ENDROOT
BRANCH   1  13
ATOM     10  C   UNL     1       5.076  -6.099  23.896  0.00  0.00    +0.120 A 
ATOM     11  C   UNL     1       5.748  -5.586  24.995  0.00  0.00    +0.046 A 
ATOM     12  C   UNL     1       6.285  -4.294  24.940  0.00  0.00    +0.017 A 
ATOM     13  C   UNL     1       6.167  -3.496  23.781  0.00  0.00    +0.044 A 
ATOM     14  C   UNL     1       5.502  -4.062  22.678  0.00  0.00    +0.130 A 
ATOM     15  C   UNL     1       4.944  -5.348  22.736  0.00  0.00    +0.091 A 
BRANCH  10  16
ATOM     16  O   UNL     1       4.568  -7.361  23.987  0.00  0.00    -0.507 OA
ATOM     17  H   UNL     1       3.901  -7.487  23.293  0.00  0.00    +0.292 HD
ENDBRANCH  10  16
BRANCH  14  18
ATOM     18  O   UNL     1       5.423  -3.393  21.486  0.00  0.00    -0.506 OA
ATOM     19  H   UNL     1       5.842  -2.522  21.571  0.00  0.00    +0.292 HD
ENDBRANCH  14  18
ENDBRANCH   1  13
BRANCH   6  20
ATOM     20  C   UNL     1       9.688   1.854  23.801  0.00  0.00    +0.419 C 
ATOM     21  F   UNL     1       9.299   2.581  22.711  0.00  0.00    -0.166 F 
ATOM     22  F   UNL     1      11.022   2.103  23.941  0.00  0.00    -0.166 F 
ATOM     23  F   UNL     1       9.096   2.452  24.859  0.00  0.00    -0.166 F 
ENDBRANCH   6  20
BRANCH   8  24
ATOM     24  C   UNL     1       6.216   1.280  24.235  0.00  0.00    +0.171 C 
BRANCH  24  25
ATOM     25  C   UNL     1       6.070   2.067  22.962  0.00  0.00    -0.012 C 
ATOM     26  C   UNL     1       6.031   3.402  22.861  0.00  0.00    +0.006 C 
ENDBRANCH  24  25
ENDBRANCH   8  24
TORSDOF 6
ENDMDL
MODEL 6
REMARK VINA RESULT:      -6.4      1.833      3.212
REMARK  Name = 
REMARK  6 active torsions:
REMARK  status: ('A' for Active; 'I' for Inactive)
REMARK    1  A    between atoms: O_1  and  C_2
REMARK    2  A    between atoms: C_4  and  O_5
REMARK    3  A    between atoms: C_6  and  C_9
REMARK    4  A    between atoms: N_11  and  C_12
REMARK    5  A    between atoms: C_12  and  C_13
REMARK    6  A    between atoms: C_20  and  C_21
REMARK                            x       y       z     vdW  Elec       q    Type
REMARK                         _______ _______ _______ _____ _____    ______ ____
ROOT
ATOM      1  C   UNL     1       8.145  -1.695  23.857  0.00  0.00    +0.104 A 
ATOM      2  C   UNL     1       6.900  -1.908  24.534  0.00  0.00    +0.028 A 
ATOM      3  C   UNL     1       5.903  -1.050  25.045  0.00  0.00    +0.012 A 
ATOM      4  C   UNL     1       4.846  -1.553  25.785  0.00  0.00    +0.001 A 
ATOM      5  C   UNL     1       4.732  -2.919  25.961  0.00  0.00    +0.014 A 
ATOM      6  C   UNL     1       5.638  -3.854  25.387  0.00  0.00    +0.080 A 
ATOM      7  C   UNL     1       6.744  -3.305  24.668  0.00  0.00    +0.081 A 
ATOM      8  N   UNL     1       7.827  -3.816  23.974  0.00  0.00    -0.259 N 
ATOM      9  N   UNL     1       8.672  -2.874  23.499  0.00  0.00    -0.170 NA
ENDROOT
BRANCH   1  13
ATOM     10  C   UNL     1      10.142   2.010  22.968  0.00  0.00    +0.120 A 
ATOM     11  C   UNL     1       9.604   1.780  24.225  0.00  0.00    +0.046 A 
ATOM     12  C   UNL     1       8.967   0.563  24.496  0.00  0.00    +0.017 A 
ATOM     13  C   UNL     1       8.849  -0.442  23.511  0.00  0.00    +0.044 A 
ATOM     14  C   UNL     1       9.383  -0.161  22.240  0.00  0.00    +0.130 A 
ATOM     15  C   UNL     1      10.041   1.049  21.971  0.00  0.00    +0.091 A 
BRANCH  10  16
ATOM     16  O   UNL     1      10.753   3.207  22.742  0.00  0.00    -0.507 OA
ATOM     17  H   UNL     1      10.426   3.859  23.382  0.00  0.00    +0.292 HD
ENDBRANCH  10  16
BRANCH  14  18
ATOM     18  O   UNL     1       9.232  -1.041  21.203  0.00  0.00    -0.506 OA
ATOM     19  H   UNL     1       9.610  -0.662  20.394  0.00  0.00    +0.292 HD
ENDBRANCH  14  18
ENDBRANCH   1  13
BRANCH   6  20
ATOM     20  C   UNL     1       5.265  -5.303  25.644  0.00  0.00    +0.419 C 
ATOM     21  F   UNL     1       4.283  -5.405  26.588  0.00  0.00    -0.166 F 
ATOM     22  F   UNL     1       6.314  -6.022  26.138  0.00  0.00    -0.166 F 
ATOM     23  F   UNL     1       4.814  -6.007  24.581  0.00  0.00    -0.166 F 
ENDBRANCH   6  20
BRANCH   8  24
ATOM     24  C   UNL     1       8.180  -5.191  23.627  0.00  0.00    +0.171 C 
BRANCH  24  25
ATOM     25  C   UNL     1       7.285  -5.763  22.562  0.00  0.00    -0.012 C 
ATOM     26  C   UNL     1       6.707  -5.077  21.567  0.00  0.00    +0.006 C 
ENDBRANCH  24  25
ENDBRANCH   8  24
TORSDOF 6
ENDMDL
MODEL 7
REMARK VINA RESULT:      -6.3      4.193      6.947
REMARK  Name = 
REMARK  6 active torsions:
REMARK  status: ('A' for Active; 'I' for Inactive)
REMARK    1  A    between atoms: O_1  and  C_2
REMARK    2  A    between atoms: C_4  and  O_5
REMARK    3  A    between atoms: C_6  and  C_9
REMARK    4  A    between atoms: N_11  and  C_12
REMARK    5  A    between atoms: C_12  and  C_13
REMARK    6  A    between atoms: C_20  and  C_21
REMARK                            x       y       z     vdW  Elec       q    Type
REMARK                         _______ _______ _______ _____ _____    ______ ____
ROOT
ATOM      1  C   UNL     1       6.815  -3.262  24.238  0.00  0.00    +0.104 A 
ATOM      2  C   UNL     1       6.583  -1.943  24.750  0.00  0.00    +0.028 A 
ATOM      3  C   UNL     1       5.487  -1.316  25.379  0.00  0.00    +0.012 A 
ATOM      4  C   UNL     1       5.509   0.042  25.652  0.00  0.00    +0.001 A 
ATOM      5  C   UNL     1       6.648   0.772  25.368  0.00  0.00    +0.014 A 
ATOM      6  C   UNL     1       7.830   0.189  24.832  0.00  0.00    +0.080 A 
ATOM      7  C   UNL     1       7.763  -1.203  24.518  0.00  0.00    +0.081 A 
ATOM      8  N   UNL     1       8.635  -2.146  23.999  0.00  0.00    -0.259 N 
ATOM      9  N   UNL     1       8.083  -3.366  23.816  0.00  0.00    -0.170 NA
ENDROOT
BRANCH   1  13
ATOM     10  C   UNL     1       4.258  -6.718  24.083  0.00  0.00    +0.120 A 
ATOM     11  C   UNL     1       5.049  -6.472  25.195  0.00  0.00    +0.046 A 
ATOM     12  C   UNL     1       5.866  -5.335  25.229  0.00  0.00    +0.017 A 
ATOM     13  C   UNL     1       5.914  -4.430  24.147  0.00  0.00    +0.044 A 
ATOM     14  C   UNL     1       5.117  -4.728  23.025  0.00  0.00    +0.130 A 
ATOM     15  C   UNL     1       4.281  -5.854  22.997  0.00  0.00    +0.091 A 
BRANCH  10  16
ATOM     16  O   UNL     1       3.477  -7.835  24.087  0.00  0.00    -0.507 OA
ATOM     17  H   UNL     1       2.546  -7.574  24.000  0.00  0.00    +0.292 HD
ENDBRANCH  10  16
BRANCH  14  18
ATOM     18  O   UNL     1       5.173  -3.954  21.898  0.00  0.00    -0.506 OA
ATOM     19  H   UNL     1       5.962  -3.389  21.926  0.00  0.00    +0.292 HD
ENDBRANCH  14  18
ENDBRANCH   1  13
BRANCH   6  20
ATOM     20  C   UNL     1       8.981   1.167  24.682  0.00  0.00    +0.419 C 
ATOM     21  F   UNL     1      10.130   0.673  25.230  0.00  0.00    -0.166 F 
ATOM     22  F   UNL     1       8.745   2.340  25.337  0.00  0.00    -0.166 F 
ATOM     23  F   UNL     1       9.310   1.520  23.419  0.00  0.00    -0.166 F 
ENDBRANCH   6  20
BRANCH   8  24
ATOM     24  C   UNL     1      10.055  -2.056  23.668  0.00  0.00    +0.171 C 
BRANCH  24  25
ATOM     25  C   UNL     1      10.297  -1.369  22.351  0.00  0.00    -0.012 C 
ATOM     26  C   UNL     1       9.365  -1.073  21.435  0.00  0.00    +0.006 C 
ENDBRANCH  24  25
ENDBRANCH   8  24
TORSDOF 6
ENDMDL
MODEL 8
REMARK VINA RESULT:      -6.2      4.488      6.768
REMARK  Name = 
REMARK  6 active torsions:
REMARK  status: ('A' for Active; 'I' for Inactive)
REMARK    1  A    between atoms: O_1  and  C_2
REMARK    2  A    between atoms: C_4  and  O_5
REMARK    3  A    between atoms: C_6  and  C_9
REMARK    4  A    between atoms: N_11  and  C_12
REMARK    5  A    between atoms: C_12  and  C_13
REMARK    6  A    between atoms: C_20  and  C_21
REMARK                            x       y       z     vdW  Elec       q    Type
REMARK                         _______ _______ _______ _____ _____    ______ ____
ROOT
ATOM      1  C   UNL     1       7.308  -2.889  24.658  0.00  0.00    +0.104 A 
ATOM      2  C   UNL     1       8.042  -2.129  23.690  0.00  0.00    +0.028 A 
ATOM      3  C   UNL     1       8.222  -2.233  22.295  0.00  0.00    +0.012 A 
ATOM      4  C   UNL     1       9.116  -1.409  21.631  0.00  0.00    +0.001 A 
ATOM      5  C   UNL     1       9.783  -0.427  22.338  0.00  0.00    +0.014 A 
ATOM      6  C   UNL     1       9.575  -0.191  23.726  0.00  0.00    +0.080 A 
ATOM      7  C   UNL     1       8.682  -1.085  24.393  0.00  0.00    +0.081 A 
ATOM      8  N   UNL     1       8.203  -1.227  25.684  0.00  0.00    -0.259 N 
ATOM      9  N   UNL     1       7.398  -2.299  25.858  0.00  0.00    -0.170 NA
ENDROOT
BRANCH   1  13
ATOM     10  C   UNL     1       4.919  -6.425  24.114  0.00  0.00    +0.120 A 
ATOM     11  C   UNL     1       4.916  -5.416  23.163  0.00  0.00    +0.046 A 
ATOM     12  C   UNL     1       5.709  -4.278  23.356  0.00  0.00    +0.017 A 
ATOM     13  C   UNL     1       6.512  -4.126  24.507  0.00  0.00    +0.044 A 
ATOM     14  C   UNL     1       6.468  -5.159  25.461  0.00  0.00    +0.130 A 
ATOM     15  C   UNL     1       5.692  -6.310  25.262  0.00  0.00    +0.091 A 
BRANCH  10  16
ATOM     16  O   UNL     1       4.134  -7.517  23.893  0.00  0.00    -0.507 OA
ATOM     17  H   UNL     1       4.608  -8.315  24.177  0.00  0.00    +0.292 HD
ENDBRANCH  10  16
BRANCH  14  18
ATOM     18  O   UNL     1       7.144  -5.050  26.647  0.00  0.00    -0.506 OA
ATOM     19  H   UNL     1       7.510  -4.156  26.734  0.00  0.00    +0.292 HD
ENDBRANCH  14  18
ENDBRANCH   1  13
BRANCH   6  20
ATOM     20  C   UNL     1      10.354   0.994  24.269  0.00  0.00    +0.419 C 
ATOM     21  F   UNL     1      11.250   0.605  25.224  0.00  0.00    -0.166 F 
ATOM     22  F   UNL     1       9.543   1.902  24.885  0.00  0.00    -0.166 F 
ATOM     23  F   UNL     1      11.073   1.704  23.371  0.00  0.00    -0.166 F 
ENDBRANCH   6  20
BRANCH   8  24
ATOM     24  C   UNL     1       8.378  -0.389  26.868  0.00  0.00    +0.171 C 
BRANCH  24  25
ATOM     25  C   UNL     1       7.194   0.505  27.120  0.00  0.00    -0.012 C 
ATOM     26  C   UNL     1       6.539   1.223  26.198  0.00  0.00    +0.006 C 
ENDBRANCH  24  25
ENDBRANCH   8  24
TORSDOF 6
ENDMDL
MODEL 9
REMARK VINA RESULT:      -6.1      4.451      7.038
REMARK  Name = 
REMARK  6 active torsions:
REMARK  status: ('A' for Active; 'I' for Inactive)
REMARK    1  A    between atoms: O_1  and  C_2
REMARK    2  A    between atoms: C_4  and  O_5
REMARK    3  A    between atoms: C_6  and  C_9
REMARK    4  A    between atoms: N_11  and  C_12
REMARK    5  A    between atoms: C_12  and  C_13
REMARK    6  A    between atoms: C_20  and  C_21
REMARK                            x       y       z     vdW  Elec       q    Type
REMARK                         _______ _______ _______ _____ _____    ______ ____
ROOT
ATOM      1  C   UNL     1       6.799  -1.890  23.867  0.00  0.00    +0.104 A 
ATOM      2  C   UNL     1       7.842  -1.281  23.097  0.00  0.00    +0.028 A 
ATOM      3  C   UNL     1       8.695  -1.736  22.069  0.00  0.00    +0.012 A 
ATOM      4  C   UNL     1       9.721  -0.937  21.593  0.00  0.00    +0.001 A 
ATOM      5  C   UNL     1       9.863   0.347  22.084  0.00  0.00    +0.014 A 
ATOM      6  C   UNL     1       8.978   0.913  23.044  0.00  0.00    +0.080 A 
ATOM      7  C   UNL     1       7.958   0.051  23.550  0.00  0.00    +0.081 A 
ATOM      8  N   UNL     1       6.920   0.171  24.459  0.00  0.00    -0.259 N 
ATOM      9  N   UNL     1       6.234  -0.975  24.666  0.00  0.00    -0.170 NA
ENDROOT
BRANCH   1  13
ATOM     10  C   UNL     1       5.258  -5.906  23.769  0.00  0.00    +0.120 A 
ATOM     11  C   UNL     1       5.129  -5.070  22.669  0.00  0.00    +0.046 A 
ATOM     12  C   UNL     1       5.646  -3.771  22.720  0.00  0.00    +0.017 A 
ATOM     13  C   UNL     1       6.295  -3.280  23.874  0.00  0.00    +0.044 A 
ATOM     14  C   UNL     1       6.383  -4.148  24.978  0.00  0.00    +0.130 A 
ATOM     15  C   UNL     1       5.885  -5.458  24.924  0.00  0.00    +0.091 A 
BRANCH  10  16
ATOM     16  O   UNL     1       4.740  -7.163  23.683  0.00  0.00    -0.507 OA
ATOM     17  H   UNL     1       3.824  -7.111  23.368  0.00  0.00    +0.292 HD
ENDBRANCH  10  16
BRANCH  14  18
ATOM     18  O   UNL     1       6.914  -3.722  26.166  0.00  0.00    -0.506 OA
ATOM     19  H   UNL     1       7.251  -2.818  26.069  0.00  0.00    +0.292 HD
ENDBRANCH  14  18
ENDBRANCH   1  13
BRANCH   6  20
ATOM     20  C   UNL     1       9.280   2.365  23.372  0.00  0.00    +0.419 C 
ATOM     21  F   UNL     1       8.400   3.207  22.754  0.00  0.00    -0.166 F 
ATOM     22  F   UNL     1      10.513   2.744  22.929  0.00  0.00    -0.166 F 
ATOM     23  F   UNL     1       9.245   2.707  24.679  0.00  0.00    -0.166 F 
ENDBRANCH   6  20
BRANCH   8  24
ATOM     24  C   UNL     1       6.414   1.333  25.187  0.00  0.00    +0.171 C 
BRANCH  24  25
ATOM     25  C   UNL     1       5.241   1.976  24.499  0.00  0.00    -0.012 C 
ATOM     26  C   UNL     1       5.270   2.608  23.319  0.00  0.00    +0.006 C 
ENDBRANCH  24  25
ENDBRANCH   8  24
TORSDOF 6
ENDMDL
