MODEL 1
REMARK VINA RESULT:      -6.7      0.000      0.000
REMARK  Name = 
REMARK  4 active torsions:
REMARK  status: ('A' for Active; 'I' for Inactive)
REMARK    1  A    between atoms: N_11  and  C1*_12
REMARK    2  A    between atoms: C3*_15  and  O3*_17
REMARK    3  A    between atoms: C4*_18  and  C5*_20
REMARK    4  A    between atoms: C5*_20  and  O5*_21
REMARK                            x       y       z     vdW  Elec       q    Type
REMARK                         _______ _______ _______ _____ _____    ______ ____
ROOT
ATOM      1  N   UNL     1      10.566   2.938  23.068  0.00  0.00    -0.341 N 
ATOM      2  H   UNL     1      10.454   3.280  24.016  0.00  0.00    +0.144 HD
ATOM      3  H   UNL     1      10.407   3.584  22.306  0.00  0.00    +0.144 HD
ATOM      4  C   UNL     1      10.016   1.684  22.845  0.00  0.00    +0.150 A 
ATOM      5  C   UNL     1       9.730   0.776  23.878  0.00  0.00    +0.147 A 
ATOM      6  N   UNL     1       9.863   0.847  25.249  0.00  0.00    -0.231 NA
ATOM      7  C   UNL     1       9.441  -0.322  25.690  0.00  0.00    +0.203 A 
ATOM      8  N   UNL     1       9.044  -1.142  24.668  0.00  0.00    -0.288 N 
ATOM      9  C   UNL     1       9.211  -0.451  23.499  0.00  0.00    +0.170 A 
ATOM     10  N   UNL     1       8.945  -0.870  22.253  0.00  0.00    -0.182 NA
ATOM     11  C   UNL     1       9.237   0.089  21.346  0.00  0.00    +0.313 A 
ATOM     12  F   UNL     1       8.994  -0.223  20.063  0.00  0.00    -0.161 F 
ATOM     13  N   UNL     1       9.742   1.322  21.573  0.00  0.00    -0.185 NA
ENDROOT
BRANCH   8  14
ATOM     14  C1* UNL     1       8.585  -2.511  24.770  0.00  0.00    +0.225 C 
ATOM     15  O4* UNL     1       8.105  -2.767  26.109  0.00  0.00    -0.348 OA
ATOM     16  C4* UNL     1       8.515  -4.102  26.484  0.00  0.00    +0.175 C 
ATOM     17  C3* UNL     1       9.155  -4.735  25.249  0.00  0.00    +0.150 C 
ATOM     18  C2* UNL     1       9.674  -3.532  24.500  0.00  0.00    +0.088 C 
BRANCH  17  19
ATOM     19  O3* UNL     1      10.193  -5.649  25.569  0.00  0.00    -0.389 OA
ATOM     20  H3* UNL     1      10.385  -6.206  24.795  0.00  0.00    +0.210 HD
ENDBRANCH  17  19
BRANCH  16  21
ATOM     21  C5* UNL     1       7.301  -4.878  26.995  0.00  0.00    +0.190 C 
BRANCH  21  22
ATOM     22  O5* UNL     1       7.716  -6.026  27.735  0.00  0.00    -0.392 OA
ATOM     23  H5* UNL     1       8.180  -6.605  27.101  0.00  0.00    +0.210 HD
ENDBRANCH  21  22
ENDBRANCH  16  21
ENDBRANCH   8  14
TORSDOF 4
ENDMDL
MODEL 2
REMARK VINA RESULT:      -6.5      1.619      1.631
REMARK  Name = 
REMARK  4 active torsions:
REMARK  status: ('A' for Active; 'I' for Inactive)
REMARK    1  A    between atoms: N_11  and  C1*_12
REMARK    2  A    between atoms: C3*_15  and  O3*_17
REMARK    3  A    between atoms: C4*_18  and  C5*_20
REMARK    4  A    between atoms: C5*_20  and  O5*_21
REMARK                            x       y       z     vdW  Elec       q    Type
REMARK                         _______ _______ _______ _____ _____    ______ ____
ROOT
ATOM      1  N   UNL     1      10.003   3.866  23.259  0.00  0.00    -0.341 N 
ATOM      2  H   UNL     1      10.742   3.865  23.954  0.00  0.00    +0.144 HD
ATOM      3  H   UNL     1       9.490   4.724  23.110  0.00  0.00    +0.144 HD
ATOM      4  C   UNL     1       9.192   2.741  23.286  0.00  0.00    +0.150 A 
ATOM      5  C   UNL     1       9.579   1.529  23.882  0.00  0.00    +0.147 A 
ATOM      6  N   UNL     1      10.718   1.139  24.555  0.00  0.00    -0.231 NA
ATOM      7  C   UNL     1      10.510  -0.124  24.869  0.00  0.00    +0.203 A 
ATOM      8  N   UNL     1       9.290  -0.567  24.429  0.00  0.00    -0.288 N 
ATOM      9  C   UNL     1       8.675   0.483  23.804  0.00  0.00    +0.170 A 
ATOM     10  N   UNL     1       7.464   0.499  23.226  0.00  0.00    -0.182 NA
ATOM     11  C   UNL     1       7.189   1.716  22.709  0.00  0.00    +0.313 A 
ATOM     12  F   UNL     1       5.991   1.845  22.117  0.00  0.00    -0.161 F 
ATOM     13  N   UNL     1       7.971   2.818  22.715  0.00  0.00    -0.185 NA
ENDROOT
BRANCH   8  14
ATOM     14  C1* UNL     1       8.752  -1.905  24.539  0.00  0.00    +0.225 C 
ATOM     15  O4* UNL     1       8.463  -2.204  25.923  0.00  0.00    -0.348 OA
ATOM     16  C4* UNL     1       8.824  -3.582  26.169  0.00  0.00    +0.175 C 
ATOM     17  C3* UNL     1       9.222  -4.186  24.822  0.00  0.00    +0.150 C 
ATOM     18  C2* UNL     1       9.708  -2.979  24.057  0.00  0.00    +0.088 C 
BRANCH  17  19
ATOM     19  O3* UNL     1      10.225  -5.183  24.936  0.00  0.00    -0.389 OA
ATOM     20  H3* UNL     1      10.255  -5.510  25.851  0.00  0.00    +0.210 HD
ENDBRANCH  17  19
BRANCH  16  21
ATOM     21  C5* UNL     1       7.647  -4.304  26.826  0.00  0.00    +0.190 C 
BRANCH  21  22
ATOM     22  O5* UNL     1       8.032  -5.615  27.240  0.00  0.00    -0.392 OA
ATOM     23  H5* UNL     1       8.985  -5.568  27.442  0.00  0.00    +0.210 HD
ENDBRANCH  21  22
ENDBRANCH  16  21
ENDBRANCH   8  14
TORSDOF 4
ENDMDL
MODEL 3
REMARK VINA RESULT:      -6.5      2.244      2.456
REMARK  Name = 
REMARK  4 active torsions:
REMARK  status: ('A' for Active; 'I' for Inactive)
REMARK    1  A    between atoms: N_11  and  C1*_12
REMARK    2  A    between atoms: C3*_15  and  O3*_17
REMARK    3  A    between atoms: C4*_18  and  C5*_20
REMARK    4  A    between atoms: C5*_20  and  O5*_21
REMARK                            x       y       z     vdW  Elec       q    Type
REMARK                         _______ _______ _______ _____ _____    ______ ____
ROOT
ATOM      1  N   UNL     1      10.387   2.389  21.713  0.00  0.00    -0.341 N 
ATOM      2  H   UNL     1      11.278   2.038  22.050  0.00  0.00    +0.144 HD
ATOM      3  H   UNL     1      10.221   3.385  21.756  0.00  0.00    +0.144 HD
ATOM      4  C   UNL     1       9.291   1.633  22.103  0.00  0.00    +0.150 A 
ATOM      5  C   UNL     1       9.391   0.299  22.532  0.00  0.00    +0.147 A 
ATOM      6  N   UNL     1      10.463  -0.552  22.700  0.00  0.00    -0.231 NA
ATOM      7  C   UNL     1       9.933  -1.686  23.113  0.00  0.00    +0.203 A 
ATOM      8  N   UNL     1       8.570  -1.606  23.218  0.00  0.00    -0.288 N 
ATOM      9  C   UNL     1       8.205  -0.337  22.861  0.00  0.00    +0.170 A 
ATOM     10  N   UNL     1       6.968   0.181  22.821  0.00  0.00    -0.182 NA
ATOM     11  C   UNL     1       6.995   1.471  22.418  0.00  0.00    +0.313 A 
ATOM     12  F   UNL     1       5.806   2.091  22.357  0.00  0.00    -0.161 F 
ATOM     13  N   UNL     1       8.072   2.211  22.071  0.00  0.00    -0.185 NA
ENDROOT
BRANCH   8  14
ATOM     14  C1* UNL     1       7.655  -2.667  23.580  0.00  0.00    +0.225 C 
ATOM     15  O4* UNL     1       8.192  -3.418  24.692  0.00  0.00    -0.348 OA
ATOM     16  C4* UNL     1       7.894  -4.816  24.474  0.00  0.00    +0.175 C 
ATOM     17  C3* UNL     1       7.005  -4.894  23.233  0.00  0.00    +0.150 C 
ATOM     18  C2* UNL     1       7.416  -3.663  22.462  0.00  0.00    +0.088 C 
BRANCH  17  19
ATOM     19  O3* UNL     1       7.203  -6.082  22.482  0.00  0.00    -0.389 OA
ATOM     20  H3* UNL     1       8.151  -6.193  22.296  0.00  0.00    +0.210 HD
ENDBRANCH  17  19
BRANCH  16  21
ATOM     21  C5* UNL     1       7.229  -5.391  25.725  0.00  0.00    +0.190 C 
BRANCH  21  22
ATOM     22  O5* UNL     1       8.215  -5.870  26.640  0.00  0.00    -0.392 OA
ATOM     23  H5* UNL     1       7.984  -5.495  27.510  0.00  0.00    +0.210 HD
ENDBRANCH  21  22
ENDBRANCH  16  21
ENDBRANCH   8  14
TORSDOF 4
ENDMDL
MODEL 4
REMARK VINA RESULT:      -6.5      3.764      6.495
REMARK  Name = 
REMARK  4 active torsions:
REMARK  status: ('A' for Active; 'I' for Inactive)
REMARK    1  A    between atoms: N_11  and  C1*_12
REMARK    2  A    between atoms: C3*_15  and  O3*_17
REMARK    3  A    between atoms: C4*_18  and  C5*_20
REMARK    4  A    between atoms: C5*_20  and  O5*_21
REMARK                            x       y       z     vdW  Elec       q    Type
REMARK                         _______ _______ _______ _____ _____    ______ ____
ROOT
ATOM      1  N   UNL     1       8.647  -5.687  26.121  0.00  0.00    -0.341 N 
ATOM      2  H   UNL     1       9.194  -6.018  25.333  0.00  0.00    +0.144 HD
ATOM      3  H   UNL     1       7.945  -6.304  26.506  0.00  0.00    +0.144 HD
ATOM      4  C   UNL     1       8.216  -4.373  26.007  0.00  0.00    +0.150 A 
ATOM      5  C   UNL     1       8.814  -3.442  25.140  0.00  0.00    +0.147 A 
ATOM      6  N   UNL     1       9.854  -3.536  24.239  0.00  0.00    -0.231 NA
ATOM      7  C   UNL     1       9.968  -2.326  23.728  0.00  0.00    +0.203 A 
ATOM      8  N   UNL     1       9.052  -1.457  24.258  0.00  0.00    -0.288 N 
ATOM      9  C   UNL     1       8.295  -2.158  25.157  0.00  0.00    +0.170 A 
ATOM     10  N   UNL     1       7.279  -1.703  25.906  0.00  0.00    -0.182 NA
ATOM     11  C   UNL     1       6.769  -2.686  26.680  0.00  0.00    +0.313 A 
ATOM     12  F   UNL     1       5.734  -2.340  27.462  0.00  0.00    -0.161 F 
ATOM     13  N   UNL     1       7.172  -3.974  26.763  0.00  0.00    -0.185 NA
ENDROOT
BRANCH   8  14
ATOM     14  C1* UNL     1       8.922  -0.043  23.982  0.00  0.00    +0.225 C 
ATOM     15  O4* UNL     1       7.832   0.177  23.058  0.00  0.00    -0.348 OA
ATOM     16  C4* UNL     1       8.229   1.219  22.137  0.00  0.00    +0.175 C 
ATOM     17  C3* UNL     1       9.577   1.753  22.621  0.00  0.00    +0.150 C 
ATOM     18  C2* UNL     1      10.158   0.560  23.342  0.00  0.00    +0.088 C 
BRANCH  17  19
ATOM     19  O3* UNL     1      10.413   2.192  21.562  0.00  0.00    -0.389 OA
ATOM     20  H3* UNL     1      10.895   1.433  21.193  0.00  0.00    +0.210 HD
ENDBRANCH  17  19
BRANCH  16  21
ATOM     21  C5* UNL     1       7.141   2.292  22.089  0.00  0.00    +0.190 C 
BRANCH  21  22
ATOM     22  O5* UNL     1       7.723   3.591  21.979  0.00  0.00    -0.392 OA
ATOM     23  H5* UNL     1       6.980   4.223  21.981  0.00  0.00    +0.210 HD
ENDBRANCH  21  22
ENDBRANCH  16  21
ENDBRANCH   8  14
TORSDOF 4
ENDMDL
MODEL 5
REMARK VINA RESULT:      -6.3      3.767      6.420
REMARK  Name = 
REMARK  4 active torsions:
REMARK  status: ('A' for Active; 'I' for Inactive)
REMARK    1  A    between atoms: N_11  and  C1*_12
REMARK    2  A    between atoms: C3*_15  and  O3*_17
REMARK    3  A    between atoms: C4*_18  and  C5*_20
REMARK    4  A    between atoms: C5*_20  and  O5*_21
REMARK                            x       y       z     vdW  Elec       q    Type
REMARK                         _______ _______ _______ _____ _____    ______ ____
ROOT
ATOM      1  N   UNL     1       6.614  -5.786  23.077  0.00  0.00    -0.341 N 
ATOM      2  H   UNL     1       5.729  -5.368  22.808  0.00  0.00    +0.144 HD
ATOM      3  H   UNL     1       6.593  -6.646  23.608  0.00  0.00    +0.144 HD
ATOM      4  C   UNL     1       7.556  -4.879  23.541  0.00  0.00    +0.150 A 
ATOM      5  C   UNL     1       7.496  -3.502  23.269  0.00  0.00    +0.147 A 
ATOM      6  N   UNL     1       6.594  -2.724  22.573  0.00  0.00    -0.231 NA
ATOM      7  C   UNL     1       7.076  -1.499  22.648  0.00  0.00    +0.203 A 
ATOM      8  N   UNL     1       8.246  -1.452  23.358  0.00  0.00    -0.288 N 
ATOM      9  C   UNL     1       8.525  -2.725  23.774  0.00  0.00    +0.170 A 
ATOM     10  N   UNL     1       9.574  -3.140  24.501  0.00  0.00    -0.182 NA
ATOM     11  C   UNL     1       9.516  -4.472  24.720  0.00  0.00    +0.313 A 
ATOM     12  F   UNL     1      10.514  -4.991  25.452  0.00  0.00    -0.161 F 
ATOM     13  N   UNL     1       8.576  -5.345  24.292  0.00  0.00    -0.185 NA
ENDROOT
BRANCH   8  14
ATOM     14  C1* UNL     1       9.084  -0.295  23.591  0.00  0.00    +0.225 C 
ATOM     15  O4* UNL     1       8.270   0.820  24.019  0.00  0.00    -0.348 OA
ATOM     16  C4* UNL     1       8.791   2.018  23.399  0.00  0.00    +0.175 C 
ATOM     17  C3* UNL     1      10.074   1.621  22.670  0.00  0.00    +0.150 C 
ATOM     18  C2* UNL     1       9.831   0.165  22.354  0.00  0.00    +0.088 C 
BRANCH  17  19
ATOM     19  O3* UNL     1      10.306   2.387  21.498  0.00  0.00    -0.389 OA
ATOM     20  H3* UNL     1      10.704   3.241  21.742  0.00  0.00    +0.210 HD
ENDBRANCH  17  19
BRANCH  16  21
ATOM     21  C5* UNL     1       9.014   3.085  24.470  0.00  0.00    +0.190 C 
BRANCH  21  22
ATOM     22  O5* UNL     1       9.826   4.143  23.961  0.00  0.00    -0.392 OA
ATOM     23  H5* UNL     1       9.808   4.056  22.990  0.00  0.00    +0.210 HD
ENDBRANCH  21  22
ENDBRANCH  16  21
ENDBRANCH   8  14
TORSDOF 4
ENDMDL
MODEL 6
REMARK VINA RESULT:      -6.3      4.482      7.138
REMARK  Name = 
REMARK  4 active torsions:
REMARK  status: ('A' for Active; 'I' for Inactive)
REMARK    1  A    between atoms: N_11  and  C1*_12
REMARK    2  A    between atoms: C3*_15  and  O3*_17
REMARK    3  A    between atoms: C4*_18  and  C5*_20
REMARK    4  A    between atoms: C5*_20  and  O5*_21
REMARK                            x       y       z     vdW  Elec       q    Type
REMARK                         _______ _______ _______ _____ _____    ______ ____
ROOT
ATOM      1  N   UNL     1       5.120  -7.261  28.265  0.00  0.00    -0.341 N 
ATOM      2  H   UNL     1       5.954  -7.251  28.843  0.00  0.00    +0.144 HD
ATOM      3  H   UNL     1       4.533  -8.083  28.289  0.00  0.00    +0.144 HD
ATOM      4  C   UNL     1       5.307  -6.760  26.985  0.00  0.00    +0.150 A 
ATOM      5  C   UNL     1       6.380  -5.922  26.637  0.00  0.00    +0.147 A 
ATOM      6  N   UNL     1       7.449  -5.425  27.353  0.00  0.00    -0.231 NA
ATOM      7  C   UNL     1       8.116  -4.682  26.492  0.00  0.00    +0.203 A 
ATOM      8  N   UNL     1       7.526  -4.676  25.256  0.00  0.00    -0.288 N 
ATOM      9  C   UNL     1       6.418  -5.475  25.327  0.00  0.00    +0.170 A 
ATOM     10  N   UNL     1       5.545  -5.757  24.348  0.00  0.00    -0.182 NA
ATOM     11  C   UNL     1       4.573  -6.585  24.788  0.00  0.00    +0.313 A 
ATOM     12  F   UNL     1       3.651  -6.943  23.880  0.00  0.00    -0.161 F 
ATOM     13  N   UNL     1       4.415  -7.097  26.029  0.00  0.00    -0.185 NA
ENDROOT
BRANCH   8  14
ATOM     14  C1* UNL     1       7.942  -3.926  24.090  0.00  0.00    +0.225 C 
ATOM     15  O4* UNL     1       9.236  -3.329  24.329  0.00  0.00    -0.348 OA
ATOM     16  C4* UNL     1       9.236  -2.009  23.738  0.00  0.00    +0.175 C 
ATOM     17  C3* UNL     1       7.917  -1.859  22.981  0.00  0.00    +0.150 C 
ATOM     18  C2* UNL     1       7.001  -2.790  23.739  0.00  0.00    +0.088 C 
BRANCH  17  19
ATOM     19  O3* UNL     1       7.430  -0.526  22.973  0.00  0.00    -0.389 OA
ATOM     20  H3* UNL     1       7.918  -0.007  22.310  0.00  0.00    +0.210 HD
ENDBRANCH  17  19
BRANCH  16  21
ATOM     21  C5* UNL     1      10.464  -1.857  22.840  0.00  0.00    +0.190 C 
BRANCH  21  22
ATOM     22  O5* UNL     1      10.073  -1.492  21.516  0.00  0.00    -0.392 OA
ATOM     23  H5* UNL     1       9.103  -1.391  21.537  0.00  0.00    +0.210 HD
ENDBRANCH  21  22
ENDBRANCH  16  21
ENDBRANCH   8  14
TORSDOF 4
ENDMDL
MODEL 7
REMARK VINA RESULT:      -6.3      1.899      2.311
REMARK  Name = 
REMARK  4 active torsions:
REMARK  status: ('A' for Active; 'I' for Inactive)
REMARK    1  A    between atoms: N_11  and  C1*_12
REMARK    2  A    between atoms: C3*_15  and  O3*_17
REMARK    3  A    between atoms: C4*_18  and  C5*_20
REMARK    4  A    between atoms: C5*_20  and  O5*_21
REMARK                            x       y       z     vdW  Elec       q    Type
REMARK                         _______ _______ _______ _____ _____    ______ ____
ROOT
ATOM      1  N   UNL     1       9.074   3.461  22.985  0.00  0.00    -0.341 N 
ATOM      2  H   UNL     1       8.304   3.518  22.327  0.00  0.00    +0.144 HD
ATOM      3  H   UNL     1       9.899   4.016  22.802  0.00  0.00    +0.144 HD
ATOM      4  C   UNL     1       9.365   2.175  23.415  0.00  0.00    +0.150 A 
ATOM      5  C   UNL     1       8.451   1.110  23.327  0.00  0.00    +0.147 A 
ATOM      6  N   UNL     1       7.168   1.018  22.831  0.00  0.00    -0.231 NA
ATOM      7  C   UNL     1       6.816  -0.236  23.037  0.00  0.00    +0.203 A 
ATOM      8  N   UNL     1       7.811  -0.954  23.642  0.00  0.00    -0.288 N 
ATOM      9  C   UNL     1       8.873  -0.111  23.826  0.00  0.00    +0.170 A 
ATOM     10  N   UNL     1      10.061  -0.395  24.380  0.00  0.00    -0.182 NA
ATOM     11  C   UNL     1      10.863   0.692  24.392  0.00  0.00    +0.313 A 
ATOM     12  F   UNL     1      12.086   0.513  24.915  0.00  0.00    -0.161 F 
ATOM     13  N   UNL     1      10.585   1.936  23.940  0.00  0.00    -0.185 NA
ENDROOT
BRANCH   8  14
ATOM     14  C1* UNL     1       7.758  -2.335  24.073  0.00  0.00    +0.225 C 
ATOM     15  O4* UNL     1       7.722  -2.396  25.516  0.00  0.00    -0.348 OA
ATOM     16  C4* UNL     1       8.540  -3.511  25.938  0.00  0.00    +0.175 C 
ATOM     17  C3* UNL     1       8.980  -4.246  24.672  0.00  0.00    +0.150 C 
ATOM     18  C2* UNL     1       8.963  -3.147  23.637  0.00  0.00    +0.088 C 
BRANCH  17  19
ATOM     19  O3* UNL     1      10.262  -4.842  24.793  0.00  0.00    -0.389 OA
ATOM     20  H3* UNL     1      10.224  -5.760  24.474  0.00  0.00    +0.210 HD
ENDBRANCH  17  19
BRANCH  16  21
ATOM     21  C5* UNL     1       7.739  -4.392  26.896  0.00  0.00    +0.190 C 
BRANCH  21  22
ATOM     22  O5* UNL     1       8.258  -5.722  26.906  0.00  0.00    -0.392 OA
ATOM     23  H5* UNL     1       8.293  -5.993  27.843  0.00  0.00    +0.210 HD
ENDBRANCH  21  22
ENDBRANCH  16  21
ENDBRANCH   8  14
TORSDOF 4
ENDMDL
MODEL 8
REMARK VINA RESULT:      -6.2      3.340      4.943
REMARK  Name = 
REMARK  4 active torsions:
REMARK  status: ('A' for Active; 'I' for Inactive)
REMARK    1  A    between atoms: N_11  and  C1*_12
REMARK    2  A    between atoms: C3*_15  and  O3*_17
REMARK    3  A    between atoms: C4*_18  and  C5*_20
REMARK    4  A    between atoms: C5*_20  and  O5*_21
REMARK                            x       y       z     vdW  Elec       q    Type
REMARK                         _______ _______ _______ _____ _____    ______ ____
ROOT
ATOM      1  N   UNL     1       9.482   7.092  24.423  0.00  0.00    -0.341 N 
ATOM      2  H   UNL     1       8.469   7.044  24.400  0.00  0.00    +0.144 HD
ATOM      3  H   UNL     1       9.929   7.913  24.038  0.00  0.00    +0.144 HD
ATOM      4  C   UNL     1      10.117   5.909  24.075  0.00  0.00    +0.150 A 
ATOM      5  C   UNL     1       9.483   4.655  24.115  0.00  0.00    +0.147 A 
ATOM      6  N   UNL     1       8.201   4.266  24.442  0.00  0.00    -0.231 NA
ATOM      7  C   UNL     1       8.202   2.954  24.305  0.00  0.00    +0.203 A 
ATOM      8  N   UNL     1       9.424   2.481  23.907  0.00  0.00    -0.288 N 
ATOM      9  C   UNL     1      10.255   3.559  23.768  0.00  0.00    +0.170 A 
ATOM     10  N   UNL     1      11.543   3.559  23.392  0.00  0.00    -0.182 NA
ATOM     11  C   UNL     1      12.041   4.815  23.368  0.00  0.00    +0.313 A 
ATOM     12  F   UNL     1      13.324   4.930  22.990  0.00  0.00    -0.161 F 
ATOM     13  N   UNL     1      11.406   5.968  23.677  0.00  0.00    -0.185 NA
ENDROOT
BRANCH   8  14
ATOM     14  C1* UNL     1       9.810   1.099  23.716  0.00  0.00    +0.225 C 
ATOM     15  O4* UNL     1       8.927   0.473  22.759  0.00  0.00    -0.348 OA
ATOM     16  C4* UNL     1       8.664  -0.876  23.207  0.00  0.00    +0.175 C 
ATOM     17  C3* UNL     1       9.550  -1.120  24.429  0.00  0.00    +0.150 C 
ATOM     18  C2* UNL     1       9.727   0.272  24.985  0.00  0.00    +0.088 C 
BRANCH  17  19
ATOM     19  O3* UNL     1       8.961  -1.999  25.375  0.00  0.00    -0.389 OA
ATOM     20  H3* UNL     1       8.908  -2.894  24.997  0.00  0.00    +0.210 HD
ENDBRANCH  17  19
BRANCH  16  21
ATOM     21  C5* UNL     1       8.939  -1.852  22.063  0.00  0.00    +0.190 C 
BRANCH  21  22
ATOM     22  O5* UNL     1      10.195  -1.564  21.450  0.00  0.00    -0.392 OA
ATOM     23  H5* UNL     1      10.009  -0.930  20.732  0.00  0.00    +0.210 HD
ENDBRANCH  21  22
ENDBRANCH  16  21
ENDBRANCH   8  14
TORSDOF 4
ENDMDL
MODEL 9
REMARK VINA RESULT:      -6.1      4.581      7.039
REMARK  Name = 
REMARK  4 active torsions:
REMARK  status: ('A' for Active; 'I' for Inactive)
REMARK    1  A    between atoms: N_11  and  C1*_12
REMARK    2  A    between atoms: C3*_15  and  O3*_17
REMARK    3  A    between atoms: C4*_18  and  C5*_20
REMARK    4  A    between atoms: C5*_20  and  O5*_21
REMARK                            x       y       z     vdW  Elec       q    Type
REMARK                         _______ _______ _______ _____ _____    ______ ____
ROOT
ATOM      1  N   UNL     1       3.852  -6.941  23.716  0.00  0.00    -0.341 N 
ATOM      2  H   UNL     1       3.285  -6.543  22.975  0.00  0.00    +0.144 HD
ATOM      3  H   UNL     1       3.390  -7.488  24.429  0.00  0.00    +0.144 HD
ATOM      4  C   UNL     1       4.813  -6.079  24.225  0.00  0.00    +0.150 A 
ATOM      5  C   UNL     1       5.275  -4.948  23.531  0.00  0.00    +0.147 A 
ATOM      6  N   UNL     1       4.947  -4.402  22.308  0.00  0.00    -0.231 NA
ATOM      7  C   UNL     1       5.728  -3.346  22.189  0.00  0.00    +0.203 A 
ATOM      8  N   UNL     1       6.544  -3.187  23.278  0.00  0.00    -0.288 N 
ATOM      9  C   UNL     1       6.259  -4.199  24.154  0.00  0.00    +0.170 A 
ATOM     10  N   UNL     1       6.819  -4.429  25.351  0.00  0.00    -0.182 NA
ATOM     11  C   UNL     1       6.284  -5.523  25.935  0.00  0.00    +0.313 A 
ATOM     12  F   UNL     1       6.765  -5.837  27.148  0.00  0.00    -0.161 F 
ATOM     13  N   UNL     1       5.323  -6.341  25.447  0.00  0.00    -0.185 NA
ENDROOT
BRANCH   8  14
ATOM     14  C1* UNL     1       7.566  -2.181  23.467  0.00  0.00    +0.225 C 
ATOM     15  O4* UNL     1       7.309  -1.053  22.601  0.00  0.00    -0.348 OA
ATOM     16  C4* UNL     1       8.578  -0.580  22.093  0.00  0.00    +0.175 C 
ATOM     17  C3* UNL     1       9.669  -1.380  22.805  0.00  0.00    +0.150 C 
ATOM     18  C2* UNL     1       8.962  -2.672  23.133  0.00  0.00    +0.088 C 
BRANCH  17  19
ATOM     19  O3* UNL     1      10.817  -1.592  21.998  0.00  0.00    -0.389 OA
ATOM     20  H3* UNL     1      11.573  -1.110  22.376  0.00  0.00    +0.210 HD
ENDBRANCH  17  19
BRANCH  16  21
ATOM     21  C5* UNL     1       8.686   0.926  22.330  0.00  0.00    +0.190 C 
BRANCH  21  22
ATOM     22  O5* UNL     1       9.701   1.492  21.501  0.00  0.00    -0.392 OA
ATOM     23  H5* UNL     1       9.644   2.458  21.621  0.00  0.00    +0.210 HD
ENDBRANCH  21  22
ENDBRANCH  16  21
ENDBRANCH   8  14
TORSDOF 4
ENDMDL
