MODEL 1
REMARK VINA RESULT:      -6.4      0.000      0.000
REMARK  Name = 
REMARK  5 active torsions:
REMARK  status: ('A' for Active; 'I' for Inactive)
REMARK    1  A    between atoms: C_1  and  C_2
REMARK    2  A    between atoms: C_2  and  C_3
REMARK    3  A    between atoms: C_2  and  C_4
REMARK    4  A    between atoms: C_2  and  C_10
REMARK    5  A    between atoms: C_13  and  O_14
REMARK                            x       y       z     vdW  Elec       q    Type
REMARK                         _______ _______ _______ _____ _____    ______ ____
ROOT
ATOM      1  C   UNL     1       8.266   3.221  25.189  0.00  0.00    +0.021 C 
ATOM      2  C   UNL     1       8.856   3.413  23.767  0.00  0.00    +0.015 C 
ATOM      3  C   UNL     1       7.751   4.110  22.923  0.00  0.00    +0.021 C 
ENDROOT
BRANCH   2   4
ATOM      4  C   UNL     1       9.171   1.984  23.258  0.00  0.00    -0.037 A 
ATOM      5  C   UNL     1       8.974   1.628  21.911  0.00  0.00    +0.008 A 
ATOM      6  C   UNL     1       9.384   0.381  21.424  0.00  0.00    +0.046 A 
ATOM      7  C   UNL     1      10.011  -0.523  22.271  0.00  0.00    +0.117 A 
ATOM      8  C   UNL     1      10.213  -0.210  23.607  0.00  0.00    +0.046 A 
ATOM      9  C   UNL     1       9.797   1.033  24.093  0.00  0.00    +0.008 A 
BRANCH   7  10
ATOM     10  O   UNL     1      10.435  -1.710  21.752  0.00  0.00    -0.507 OA
ATOM     11  H   UNL     1      10.863  -2.222  22.460  0.00  0.00    +0.292 HD
ENDBRANCH   7  10
ENDBRANCH   2   4
BRANCH   2  12
ATOM     12  C   UNL     1      10.060   4.392  23.745  0.00  0.00    -0.037 A 
ATOM     13  C   UNL     1       9.953   5.661  24.352  0.00  0.00    +0.004 A 
ATOM     14  C   UNL     1      11.074   6.480  24.528  0.00  0.00    +0.000 A 
ATOM     15  C   UNL     1      12.325   6.061  24.084  0.00  0.00    +0.000 A 
ATOM     16  C   UNL     1      12.447   4.840  23.431  0.00  0.00    +0.000 A 
ATOM     17  C   UNL     1      11.327   4.021  23.255  0.00  0.00    +0.004 A 
ENDBRANCH   2  12
TORSDOF 3
ENDMDL
MODEL 2
REMARK VINA RESULT:      -6.2      2.381      5.338
REMARK  Name = 
REMARK  5 active torsions:
REMARK  status: ('A' for Active; 'I' for Inactive)
REMARK    1  A    between atoms: C_1  and  C_2
REMARK    2  A    between atoms: C_2  and  C_3
REMARK    3  A    between atoms: C_2  and  C_4
REMARK    4  A    between atoms: C_2  and  C_10
REMARK    5  A    between atoms: C_13  and  O_14
REMARK                            x       y       z     vdW  Elec       q    Type
REMARK                         _______ _______ _______ _____ _____    ______ ____
ROOT
ATOM      1  C   UNL     1       7.810   3.239  22.517  0.00  0.00    +0.021 C 
ATOM      2  C   UNL     1       8.875   2.745  23.532  0.00  0.00    +0.015 C 
ATOM      3  C   UNL     1       8.137   2.561  24.889  0.00  0.00    +0.021 C 
ENDROOT
BRANCH   2   4
ATOM      4  C   UNL     1       9.940   3.869  23.588  0.00  0.00    -0.037 A 
ATOM      5  C   UNL     1       9.637   5.137  24.117  0.00  0.00    +0.008 A 
ATOM      6  C   UNL     1      10.633   6.106  24.290  0.00  0.00    +0.046 A 
ATOM      7  C   UNL     1      11.948   5.818  23.953  0.00  0.00    +0.117 A 
ATOM      8  C   UNL     1      12.282   4.581  23.420  0.00  0.00    +0.046 A 
ATOM      9  C   UNL     1      11.285   3.618  23.241  0.00  0.00    +0.008 A 
BRANCH   7  10
ATOM     10  O   UNL     1      12.898   6.770  24.176  0.00  0.00    -0.507 OA
ATOM     11  H   UNL     1      12.835   7.440  23.473  0.00  0.00    +0.292 HD
ENDBRANCH   7  10
ENDBRANCH   2   4
BRANCH   2  12
ATOM     12  C   UNL     1       9.430   1.339  23.180  0.00  0.00    -0.037 A 
ATOM     13  C   UNL     1       9.785   0.440  24.207  0.00  0.00    +0.004 A 
ATOM     14  C   UNL     1      10.092  -0.898  23.929  0.00  0.00    +0.000 A 
ATOM     15  C   UNL     1      10.072  -1.363  22.618  0.00  0.00    +0.000 A 
ATOM     16  C   UNL     1       9.782  -0.484  21.581  0.00  0.00    +0.000 A 
ATOM     17  C   UNL     1       9.474   0.853  21.859  0.00  0.00    +0.004 A 
ENDBRANCH   2  12
TORSDOF 3
ENDMDL
MODEL 3
REMARK VINA RESULT:      -6.1      3.953      7.710
REMARK  Name = 
REMARK  5 active torsions:
REMARK  status: ('A' for Active; 'I' for Inactive)
REMARK    1  A    between atoms: C_1  and  C_2
REMARK    2  A    between atoms: C_2  and  C_3
REMARK    3  A    between atoms: C_2  and  C_4
REMARK    4  A    between atoms: C_2  and  C_10
REMARK    5  A    between atoms: C_13  and  O_14
REMARK                            x       y       z     vdW  Elec       q    Type
REMARK                         _______ _______ _______ _____ _____    ______ ____
ROOT
ATOM      1  C   UNL     1       7.281  -2.333  25.174  0.00  0.00    +0.021 C 
ATOM      2  C   UNL     1       8.096  -2.755  23.923  0.00  0.00    +0.015 C 
ATOM      3  C   UNL     1       9.383  -3.451  24.451  0.00  0.00    +0.021 C 
ENDROOT
BRANCH   2   4
ATOM      4  C   UNL     1       8.406  -1.437  23.171  0.00  0.00    -0.037 A 
ATOM      5  C   UNL     1       7.858  -0.210  23.589  0.00  0.00    +0.008 A 
ATOM      6  C   UNL     1       8.244   0.996  22.993  0.00  0.00    +0.046 A 
ATOM      7  C   UNL     1       9.194   0.998  21.981  0.00  0.00    +0.117 A 
ATOM      8  C   UNL     1       9.749  -0.193  21.537  0.00  0.00    +0.046 A 
ATOM      9  C   UNL     1       9.357  -1.398  22.129  0.00  0.00    +0.008 A 
BRANCH   7  10
ATOM     10  O   UNL     1       9.577   2.195  21.454  0.00  0.00    -0.507 OA
ATOM     11  H   UNL     1       8.994   2.404  20.704  0.00  0.00    +0.292 HD
ENDBRANCH   7  10
ENDBRANCH   2   4
BRANCH   2  12
ATOM     12  C   UNL     1       7.372  -3.834  23.074  0.00  0.00    -0.037 A 
ATOM     13  C   UNL     1       6.388  -3.456  22.136  0.00  0.00    +0.004 A 
ATOM     14  C   UNL     1       5.868  -4.375  21.217  0.00  0.00    +0.000 A 
ATOM     15  C   UNL     1       6.301  -5.698  21.227  0.00  0.00    +0.000 A 
ATOM     16  C   UNL     1       7.227  -6.109  22.179  0.00  0.00    +0.000 A 
ATOM     17  C   UNL     1       7.748  -5.191  23.096  0.00  0.00    +0.004 A 
ENDBRANCH   2  12
TORSDOF 3
ENDMDL
MODEL 4
REMARK VINA RESULT:      -6.0      3.754      7.414
REMARK  Name = 
REMARK  5 active torsions:
REMARK  status: ('A' for Active; 'I' for Inactive)
REMARK    1  A    between atoms: C_1  and  C_2
REMARK    2  A    between atoms: C_2  and  C_3
REMARK    3  A    between atoms: C_2  and  C_4
REMARK    4  A    between atoms: C_2  and  C_10
REMARK    5  A    between atoms: C_13  and  O_14
REMARK                            x       y       z     vdW  Elec       q    Type
REMARK                         _______ _______ _______ _____ _____    ______ ____
ROOT
ATOM      1  C   UNL     1       8.193  -2.007  25.714  0.00  0.00    +0.021 C 
ATOM      2  C   UNL     1       8.600  -2.540  24.315  0.00  0.00    +0.015 C 
ATOM      3  C   UNL     1       9.683  -3.630  24.558  0.00  0.00    +0.021 C 
ENDROOT
BRANCH   2   4
ATOM      4  C   UNL     1       9.161  -1.312  23.555  0.00  0.00    -0.037 A 
ATOM      5  C   UNL     1       9.077  -1.219  22.154  0.00  0.00    +0.008 A 
ATOM      6  C   UNL     1       9.461  -0.053  21.482  0.00  0.00    +0.046 A 
ATOM      7  C   UNL     1       9.920   1.043  22.199  0.00  0.00    +0.117 A 
ATOM      8  C   UNL     1      10.025   0.984  23.581  0.00  0.00    +0.046 A 
ATOM      9  C   UNL     1       9.648  -0.184  24.250  0.00  0.00    +0.008 A 
BRANCH   7  10
ATOM     10  O   UNL     1      10.245   2.176  21.514  0.00  0.00    -0.507 OA
ATOM     11  H   UNL     1       9.703   2.909  21.854  0.00  0.00    +0.292 HD
ENDBRANCH   7  10
ENDBRANCH   2   4
BRANCH   2  12
ATOM     12  C   UNL     1       7.439  -3.277  23.595  0.00  0.00    -0.037 A 
ATOM     13  C   UNL     1       7.644  -4.564  23.054  0.00  0.00    +0.004 A 
ATOM     14  C   UNL     1       6.573  -5.334  22.584  0.00  0.00    +0.000 A 
ATOM     15  C   UNL     1       5.277  -4.830  22.623  0.00  0.00    +0.000 A 
ATOM     16  C   UNL     1       5.055  -3.542  23.098  0.00  0.00    +0.000 A 
ATOM     17  C   UNL     1       6.125  -2.773  23.569  0.00  0.00    +0.004 A 
ENDBRANCH   2  12
TORSDOF 3
ENDMDL
MODEL 5
REMARK VINA RESULT:      -5.8      3.908      5.763
REMARK  Name = 
REMARK  5 active torsions:
REMARK  status: ('A' for Active; 'I' for Inactive)
REMARK    1  A    between atoms: C_1  and  C_2
REMARK    2  A    between atoms: C_2  and  C_3
REMARK    3  A    between atoms: C_2  and  C_4
REMARK    4  A    between atoms: C_2  and  C_10
REMARK    5  A    between atoms: C_13  and  O_14
REMARK                            x       y       z     vdW  Elec       q    Type
REMARK                         _______ _______ _______ _____ _____    ______ ____
ROOT
ATOM      1  C   UNL     1       6.427  -1.481  23.442  0.00  0.00    +0.021 C 
ATOM      2  C   UNL     1       7.938  -1.791  23.605  0.00  0.00    +0.015 C 
ATOM      3  C   UNL     1       8.423  -2.348  22.235  0.00  0.00    +0.021 C 
ENDROOT
BRANCH   2   4
ATOM      4  C   UNL     1       8.021  -2.850  24.733  0.00  0.00    -0.037 A 
ATOM      5  C   UNL     1       7.172  -2.792  25.853  0.00  0.00    +0.008 A 
ATOM      6  C   UNL     1       7.156  -3.820  26.803  0.00  0.00    +0.046 A 
ATOM      7  C   UNL     1       7.975  -4.929  26.641  0.00  0.00    +0.117 A 
ATOM      8  C   UNL     1       8.832  -5.015  25.554  0.00  0.00    +0.046 A 
ATOM      9  C   UNL     1       8.852  -3.984  24.610  0.00  0.00    +0.008 A 
BRANCH   7  10
ATOM     10  O   UNL     1       7.901  -5.930  27.563  0.00  0.00    -0.507 OA
ATOM     11  H   UNL     1       7.193  -6.542  27.299  0.00  0.00    +0.292 HD
ENDBRANCH   7  10
ENDBRANCH   2   4
BRANCH   2  12
ATOM     12  C   UNL     1       8.788  -0.515  23.846  0.00  0.00    -0.037 A 
ATOM     13  C   UNL     1       9.890  -0.552  24.725  0.00  0.00    +0.004 A 
ATOM     14  C   UNL     1      10.793   0.515  24.807  0.00  0.00    +0.000 A 
ATOM     15  C   UNL     1      10.605   1.653  24.029  0.00  0.00    +0.000 A 
ATOM     16  C   UNL     1       9.495   1.739  23.197  0.00  0.00    +0.000 A 
ATOM     17  C   UNL     1       8.593   0.672  23.114  0.00  0.00    +0.004 A 
ENDBRANCH   2  12
TORSDOF 3
ENDMDL
MODEL 6
REMARK VINA RESULT:      -5.7      3.939      5.996
REMARK  Name = 
REMARK  5 active torsions:
REMARK  status: ('A' for Active; 'I' for Inactive)
REMARK    1  A    between atoms: C_1  and  C_2
REMARK    2  A    between atoms: C_2  and  C_3
REMARK    3  A    between atoms: C_2  and  C_4
REMARK    4  A    between atoms: C_2  and  C_10
REMARK    5  A    between atoms: C_13  and  O_14
REMARK                            x       y       z     vdW  Elec       q    Type
REMARK                         _______ _______ _______ _____ _____    ______ ____
ROOT
ATOM      1  C   UNL     1       9.904  -2.387  23.800  0.00  0.00    +0.021 C 
ATOM      2  C   UNL     1       8.418  -1.974  23.631  0.00  0.00    +0.015 C 
ATOM      3  C   UNL     1       7.882  -1.665  25.058  0.00  0.00    +0.021 C 
ENDROOT
BRANCH   2   4
ATOM      4  C   UNL     1       7.721  -3.203  22.994  0.00  0.00    -0.037 A 
ATOM      5  C   UNL     1       7.961  -4.506  23.467  0.00  0.00    +0.008 A 
ATOM      6  C   UNL     1       7.232  -5.598  22.981  0.00  0.00    +0.046 A 
ATOM      7  C   UNL     1       6.242  -5.404  22.028  0.00  0.00    +0.117 A 
ATOM      8  C   UNL     1       5.984  -4.134  21.532  0.00  0.00    +0.046 A 
ATOM      9  C   UNL     1       6.718  -3.045  22.013  0.00  0.00    +0.008 A 
BRANCH   7  10
ATOM     10  O   UNL     1       5.523  -6.484  21.610  0.00  0.00    -0.507 OA
ATOM     11  H   UNL     1       4.862  -6.698  22.290  0.00  0.00    +0.292 HD
ENDBRANCH   7  10
ENDBRANCH   2   4
BRANCH   2  12
ATOM     12  C   UNL     1       8.251  -0.649  22.840  0.00  0.00    -0.037 A 
ATOM     13  C   UNL     1       7.168   0.211  23.119  0.00  0.00    +0.004 A 
ATOM     14  C   UNL     1       7.102   1.499  22.574  0.00  0.00    +0.000 A 
ATOM     15  C   UNL     1       8.106   1.951  21.721  0.00  0.00    +0.000 A 
ATOM     16  C   UNL     1       9.154   1.102  21.385  0.00  0.00    +0.000 A 
ATOM     17  C   UNL     1       9.220  -0.184  21.930  0.00  0.00    +0.004 A 
ENDBRANCH   2  12
TORSDOF 3
ENDMDL
MODEL 7
REMARK VINA RESULT:      -5.7      4.609      8.168
REMARK  Name = 
REMARK  5 active torsions:
REMARK  status: ('A' for Active; 'I' for Inactive)
REMARK    1  A    between atoms: C_1  and  C_2
REMARK    2  A    between atoms: C_2  and  C_3
REMARK    3  A    between atoms: C_2  and  C_4
REMARK    4  A    between atoms: C_2  and  C_10
REMARK    5  A    between atoms: C_13  and  O_14
REMARK                            x       y       z     vdW  Elec       q    Type
REMARK                         _______ _______ _______ _____ _____    ______ ____
ROOT
ATOM      1  C   UNL     1       6.667  -3.805  26.543  0.00  0.00    +0.021 C 
ATOM      2  C   UNL     1       7.738  -4.025  25.443  0.00  0.00    +0.015 C 
ATOM      3  C   UNL     1       8.607  -5.228  25.909  0.00  0.00    +0.021 C 
ENDROOT
BRANCH   2   4
ATOM      4  C   UNL     1       8.545  -2.704  25.384  0.00  0.00    -0.037 A 
ATOM      5  C   UNL     1       9.343  -2.383  24.271  0.00  0.00    +0.008 A 
ATOM      6  C   UNL     1       9.962  -1.132  24.161  0.00  0.00    +0.046 A 
ATOM      7  C   UNL     1       9.783  -0.178  25.153  0.00  0.00    +0.117 A 
ATOM      8  C   UNL     1       9.012  -0.463  26.270  0.00  0.00    +0.046 A 
ATOM      9  C   UNL     1       8.399  -1.716  26.382  0.00  0.00    +0.008 A 
BRANCH   7  10
ATOM     10  O   UNL     1      10.368   1.043  24.992  0.00  0.00    -0.507 OA
ATOM     11  H   UNL     1       9.668   1.704  24.850  0.00  0.00    +0.292 HD
ENDBRANCH   7  10
ENDBRANCH   2   4
BRANCH   2  12
ATOM     12  C   UNL     1       7.123  -4.472  24.089  0.00  0.00    -0.037 A 
ATOM     13  C   UNL     1       6.050  -3.750  23.525  0.00  0.00    +0.004 A 
ATOM     14  C   UNL     1       5.611  -4.001  22.220  0.00  0.00    +0.000 A 
ATOM     15  C   UNL     1       6.218  -4.992  21.454  0.00  0.00    +0.000 A 
ATOM     16  C   UNL     1       7.238  -5.757  22.007  0.00  0.00    +0.000 A 
ATOM     17  C   UNL     1       7.679  -5.506  23.311  0.00  0.00    +0.004 A 
ENDBRANCH   2  12
TORSDOF 3
ENDMDL
MODEL 8
REMARK VINA RESULT:      -5.6      4.568      6.898
REMARK  Name = 
REMARK  5 active torsions:
REMARK  status: ('A' for Active; 'I' for Inactive)
REMARK    1  A    between atoms: C_1  and  C_2
REMARK    2  A    between atoms: C_2  and  C_3
REMARK    3  A    between atoms: C_2  and  C_4
REMARK    4  A    between atoms: C_2  and  C_10
REMARK    5  A    between atoms: C_13  and  O_14
REMARK                            x       y       z     vdW  Elec       q    Type
REMARK                         _______ _______ _______ _____ _____    ______ ____
ROOT
ATOM      1  C   UNL     1       9.723  -4.319  24.849  0.00  0.00    +0.021 C 
ATOM      2  C   UNL     1       8.561  -3.304  24.686  0.00  0.00    +0.015 C 
ATOM      3  C   UNL     1       8.278  -2.727  26.103  0.00  0.00    +0.021 C 
ENDROOT
BRANCH   2   4
ATOM      4  C   UNL     1       7.370  -4.129  24.137  0.00  0.00    -0.037 A 
ATOM      5  C   UNL     1       6.039  -3.737  24.374  0.00  0.00    +0.008 A 
ATOM      6  C   UNL     1       4.969  -4.405  23.767  0.00  0.00    +0.046 A 
ATOM      7  C   UNL     1       5.211  -5.464  22.903  0.00  0.00    +0.117 A 
ATOM      8  C   UNL     1       6.510  -5.884  22.654  0.00  0.00    +0.046 A 
ATOM      9  C   UNL     1       7.577  -5.220  23.266  0.00  0.00    +0.008 A 
BRANCH   7  10
ATOM     10  O   UNL     1       4.147  -6.063  22.297  0.00  0.00    -0.507 OA
ATOM     11  H   UNL     1       3.579  -6.453  22.984  0.00  0.00    +0.292 HD
ENDBRANCH   7  10
ENDBRANCH   2   4
BRANCH   2  12
ATOM     12  C   UNL     1       8.956  -2.076  23.821  0.00  0.00    -0.037 A 
ATOM     13  C   UNL     1       9.683  -1.011  24.393  0.00  0.00    +0.004 A 
ATOM     14  C   UNL     1      10.227   0.006  23.600  0.00  0.00    +0.000 A 
ATOM     15  C   UNL     1      10.041  -0.005  22.221  0.00  0.00    +0.000 A 
ATOM     16  C   UNL     1       9.280  -1.012  21.639  0.00  0.00    +0.000 A 
ATOM     17  C   UNL     1       8.736  -2.029  22.431  0.00  0.00    +0.004 A 
ENDBRANCH   2  12
TORSDOF 3
ENDMDL
MODEL 9
REMARK VINA RESULT:      -5.5      3.568      6.739
REMARK  Name = 
REMARK  5 active torsions:
REMARK  status: ('A' for Active; 'I' for Inactive)
REMARK    1  A    between atoms: C_1  and  C_2
REMARK    2  A    between atoms: C_2  and  C_3
REMARK    3  A    between atoms: C_2  and  C_4
REMARK    4  A    between atoms: C_2  and  C_10
REMARK    5  A    between atoms: C_13  and  O_14
REMARK                            x       y       z     vdW  Elec       q    Type
REMARK                         _______ _______ _______ _____ _____    ______ ____
ROOT
ATOM      1  C   UNL     1       6.303  -0.844  25.345  0.00  0.00    +0.021 C 
ATOM      2  C   UNL     1       7.814  -1.178  25.468  0.00  0.00    +0.015 C 
ATOM      3  C   UNL     1       8.249  -0.727  26.892  0.00  0.00    +0.021 C 
ENDROOT
BRANCH   2   4
ATOM      4  C   UNL     1       8.507  -0.357  24.352  0.00  0.00    -0.037 A 
ATOM      5  C   UNL     1       7.773   0.191  23.284  0.00  0.00    +0.008 A 
ATOM      6  C   UNL     1       8.378   1.043  22.352  0.00  0.00    +0.046 A 
ATOM      7  C   UNL     1       9.720   1.373  22.481  0.00  0.00    +0.117 A 
ATOM      8  C   UNL     1      10.477   0.845  23.516  0.00  0.00    +0.046 A 
ATOM      9  C   UNL     1       9.873  -0.012  24.442  0.00  0.00    +0.008 A 
BRANCH   7  10
ATOM     10  O   UNL     1      10.264   2.239  21.580  0.00  0.00    -0.507 OA
ATOM     11  H   UNL     1       9.561   2.545  20.981  0.00  0.00    +0.292 HD
ENDBRANCH   7  10
ENDBRANCH   2   4
BRANCH   2  12
ATOM     12  C   UNL     1       8.095  -2.704  25.424  0.00  0.00    -0.037 A 
ATOM     13  C   UNL     1       7.926  -3.421  24.221  0.00  0.00    +0.004 A 
ATOM     14  C   UNL     1       8.364  -4.745  24.096  0.00  0.00    +0.000 A 
ATOM     15  C   UNL     1       8.962  -5.391  25.174  0.00  0.00    +0.000 A 
ATOM     16  C   UNL     1       9.087  -4.725  26.388  0.00  0.00    +0.000 A 
ATOM     17  C   UNL     1       8.651  -3.401  26.513  0.00  0.00    +0.004 A 
ENDBRANCH   2  12
TORSDOF 3
ENDMDL
