MODEL 1
REMARK VINA RESULT:      -6.4      0.000      0.000
REMARK  Name = 
REMARK  12 active torsions:
REMARK  status: ('A' for Active; 'I' for Inactive)
REMARK    1  A    between atoms: C_3  and  O_30
REMARK    2  A    between atoms: C_6  and  C_8
REMARK    3  A    between atoms: C_13  and  C_15
REMARK    4  A    between atoms: C_16  and  C_18
REMARK    5  A    between atoms: C_18  and  C_19
REMARK    6  A    between atoms: C_19  and  C_20
REMARK    7  A    between atoms: C_23  and  O_25
REMARK    8  A    between atoms: O_30  and  C_31
REMARK    9  A    between atoms: C_31  and  C_33
REMARK   10  A    between atoms: C_33  and  C_35
REMARK   11  A    between atoms: C_33  and  C_36
REMARK   12  A    between atoms: C_36  and  C_37
REMARK                            x       y       z     vdW  Elec       q    Type
REMARK                         _______ _______ _______ _____ _____    ______ ____
ROOT
ATOM      1  C   UNL     1       5.338  -4.643  24.484  0.00  0.00    +0.063 C 
ATOM      2  C   UNL     1       6.513  -3.640  24.080  0.00  0.00    +0.007 C 
ATOM      3  C   UNL     1       7.711  -4.451  23.455  0.00  0.00    +0.012 C 
ATOM      4  C   UNL     1       8.645  -5.099  24.487  0.00  0.00    +0.012 C 
ATOM      5  C   UNL     1       7.298  -5.508  22.485  0.00  0.00    -0.023 C 
ATOM      6  C   UNL     1       6.076  -6.033  22.439  0.00  0.00    -0.000 C 
ATOM      7  C   UNL     1       5.014  -5.630  23.331  0.00  0.00    -0.044 C 
ATOM      8  C   UNL     1       3.790  -6.139  23.081  0.00  0.00    -0.020 C 
ATOM      9  C   UNL     1       2.555  -5.727  23.816  0.00  0.00    +0.012 C 
ATOM     10  C   UNL     1       1.309  -5.842  22.925  0.00  0.00    +0.012 C 
ATOM     11  C   UNL     1       2.733  -4.289  24.253  0.00  0.00    +0.052 C 
ATOM     12  C   UNL     1       4.012  -4.056  25.079  0.00  0.00    +0.185 C 
ENDROOT
BRANCH   2  13
ATOM     13  C   UNL     1       7.119  -2.628  25.140  0.00  0.00    +0.008 C 
BRANCH  13  14
ATOM     14  C   UNL     1       7.030  -1.175  24.605  0.00  0.00    +0.045 C 
BRANCH  14  15
ATOM     15  C   UNL     1       7.986  -0.645  23.530  0.00  0.00    +0.179 C 
ATOM     16  O   UNL     1       7.831   0.751  23.285  0.00  0.00    -0.461 OA
ATOM     17  C   UNL     1       8.408   1.174  22.121  0.00  0.00    +0.310 C 
ATOM     18  O   UNL     1       7.845   1.976  21.383  0.00  0.00    -0.251 OA
ATOM     19  C   UNL     1       9.840   0.742  21.900  0.00  0.00    +0.152 C 
ATOM     20  C   UNL     1      10.181  -0.652  22.407  0.00  0.00    +0.129 C 
ATOM     21  C   UNL     1       9.455  -0.977  23.714  0.00  0.00    +0.076 C 
BRANCH  20  22
ATOM     22  O   UNL     1       9.918  -1.638  21.406  0.00  0.00    -0.391 OA
ATOM     23  H   UNL     1       9.274  -2.297  21.713  0.00  0.00    +0.210 HD
ENDBRANCH  20  22
ENDBRANCH  14  15
ENDBRANCH  13  14
ENDBRANCH   2  13
BRANCH  12  24
ATOM     24  O   UNL     1       4.040  -2.633  25.202  0.00  0.00    -0.461 OA
BRANCH  24  25
ATOM     25  C   UNL     1       3.559  -2.095  26.347  0.00  0.00    +0.310 C 
ATOM     26  O   UNL     1       2.417  -1.681  26.492  0.00  0.00    -0.251 OA
BRANCH  25  27
ATOM     27  C   UNL     1       4.608  -2.148  27.450  0.00  0.00    +0.094 C 
ATOM     28  C   UNL     1       5.047  -0.741  27.907  0.00  0.00    +0.019 C 
BRANCH  27  29
ATOM     29  C   UNL     1       4.072  -2.949  28.638  0.00  0.00    +0.011 C 
ATOM     30  C   UNL     1       4.692  -4.334  28.749  0.00  0.00    +0.004 C 
ENDBRANCH  27  29
ENDBRANCH  25  27
ENDBRANCH  24  25
ENDBRANCH  12  24
TORSDOF 8
ENDMDL
MODEL 2
REMARK VINA RESULT:      -6.3      2.672      5.076
REMARK  Name = 
REMARK  12 active torsions:
REMARK  status: ('A' for Active; 'I' for Inactive)
REMARK    1  A    between atoms: C_3  and  O_30
REMARK    2  A    between atoms: C_6  and  C_8
REMARK    3  A    between atoms: C_13  and  C_15
REMARK    4  A    between atoms: C_16  and  C_18
REMARK    5  A    between atoms: C_18  and  C_19
REMARK    6  A    between atoms: C_19  and  C_20
REMARK    7  A    between atoms: C_23  and  O_25
REMARK    8  A    between atoms: O_30  and  C_31
REMARK    9  A    between atoms: C_31  and  C_33
REMARK   10  A    between atoms: C_33  and  C_35
REMARK   11  A    between atoms: C_33  and  C_36
REMARK   12  A    between atoms: C_36  and  C_37
REMARK                            x       y       z     vdW  Elec       q    Type
REMARK                         _______ _______ _______ _____ _____    ______ ____
ROOT
ATOM      1  C   UNL     1       5.904  -2.751  26.018  0.00  0.00    +0.063 C 
ATOM      2  C   UNL     1       6.944  -1.541  26.081  0.00  0.00    +0.007 C 
ATOM      3  C   UNL     1       6.207  -0.234  26.566  0.00  0.00    +0.012 C 
ATOM      4  C   UNL     1       5.439   0.507  25.463  0.00  0.00    +0.012 C 
ATOM      5  C   UNL     1       5.272  -0.445  27.712  0.00  0.00    -0.023 C 
ATOM      6  C   UNL     1       4.761  -1.628  28.040  0.00  0.00    -0.000 C 
ATOM      7  C   UNL     1       5.060  -2.842  27.317  0.00  0.00    -0.044 C 
ATOM      8  C   UNL     1       4.589  -3.991  27.844  0.00  0.00    -0.020 C 
ATOM      9  C   UNL     1       4.917  -5.347  27.305  0.00  0.00    +0.012 C 
ATOM     10  C   UNL     1       4.911  -6.407  28.417  0.00  0.00    +0.012 C 
ATOM     11  C   UNL     1       6.293  -5.277  26.679  0.00  0.00    +0.052 C 
ATOM     12  C   UNL     1       6.423  -4.174  25.612  0.00  0.00    +0.185 C 
ENDROOT
BRANCH   2  13
ATOM     13  C   UNL     1       7.822  -1.156  24.819  0.00  0.00    +0.008 C 
BRANCH  13  14
ATOM     14  C   UNL     1       8.958  -0.185  25.232  0.00  0.00    +0.045 C 
BRANCH  14  15
ATOM     15  C   UNL     1       9.185   1.152  24.517  0.00  0.00    +0.179 C 
ATOM     16  O   UNL     1       8.610   2.259  25.206  0.00  0.00    -0.461 OA
ATOM     17  C   UNL     1       8.496   3.386  24.443  0.00  0.00    +0.310 C 
ATOM     18  O   UNL     1       7.492   4.090  24.487  0.00  0.00    -0.251 OA
ATOM     19  C   UNL     1       9.742   3.804  23.694  0.00  0.00    +0.152 C 
ATOM     20  C   UNL     1      10.593   2.659  23.165  0.00  0.00    +0.129 C 
ATOM     21  C   UNL     1      10.617   1.472  24.130  0.00  0.00    +0.076 C 
BRANCH  20  22
ATOM     22  O   UNL     1      10.160   2.261  21.861  0.00  0.00    -0.391 OA
ATOM     23  H   UNL     1       9.663   1.428  21.888  0.00  0.00    +0.210 HD
ENDBRANCH  20  22
ENDBRANCH  14  15
ENDBRANCH  13  14
ENDBRANCH   2  13
BRANCH  12  24
ATOM     24  O   UNL     1       7.821  -4.194  25.321  0.00  0.00    -0.461 OA
BRANCH  24  25
ATOM     25  C   UNL     1       8.223  -4.884  24.228  0.00  0.00    +0.310 C 
ATOM     26  O   UNL     1       9.199  -5.619  24.192  0.00  0.00    -0.251 OA
BRANCH  25  27
ATOM     27  C   UNL     1       7.249  -4.679  23.075  0.00  0.00    +0.094 C 
ATOM     28  C   UNL     1       7.576  -3.416  22.251  0.00  0.00    +0.019 C 
BRANCH  27  29
ATOM     29  C   UNL     1       7.247  -5.914  22.173  0.00  0.00    +0.011 C 
ATOM     30  C   UNL     1       6.212  -5.837  21.061  0.00  0.00    +0.004 C 
ENDBRANCH  27  29
ENDBRANCH  25  27
ENDBRANCH  24  25
ENDBRANCH  12  24
TORSDOF 8
ENDMDL
MODEL 3
REMARK VINA RESULT:      -6.2      2.257      7.443
REMARK  Name = 
REMARK  12 active torsions:
REMARK  status: ('A' for Active; 'I' for Inactive)
REMARK    1  A    between atoms: C_3  and  O_30
REMARK    2  A    between atoms: C_6  and  C_8
REMARK    3  A    between atoms: C_13  and  C_15
REMARK    4  A    between atoms: C_16  and  C_18
REMARK    5  A    between atoms: C_18  and  C_19
REMARK    6  A    between atoms: C_19  and  C_20
REMARK    7  A    between atoms: C_23  and  O_25
REMARK    8  A    between atoms: O_30  and  C_31
REMARK    9  A    between atoms: C_31  and  C_33
REMARK   10  A    between atoms: C_33  and  C_35
REMARK   11  A    between atoms: C_33  and  C_36
REMARK   12  A    between atoms: C_36  and  C_37
REMARK                            x       y       z     vdW  Elec       q    Type
REMARK                         _______ _______ _______ _____ _____    ______ ____
ROOT
ATOM      1  C   UNL     1       7.764   0.006  25.440  0.00  0.00    +0.063 C 
ATOM      2  C   UNL     1       6.265  -0.537  25.506  0.00  0.00    +0.007 C 
ATOM      3  C   UNL     1       5.395   0.416  26.411  0.00  0.00    +0.012 C 
ATOM      4  C   UNL     1       5.533   0.161  27.918  0.00  0.00    +0.012 C 
ATOM      5  C   UNL     1       5.627   1.872  26.171  0.00  0.00    -0.023 C 
ATOM      6  C   UNL     1       6.720   2.360  25.591  0.00  0.00    -0.000 C 
ATOM      7  C   UNL     1       7.804   1.526  25.129  0.00  0.00    -0.044 C 
ATOM      8  C   UNL     1       8.783   2.138  24.432  0.00  0.00    -0.020 C 
ATOM      9  C   UNL     1       9.907   1.411  23.765  0.00  0.00    +0.012 C 
ATOM     10  C   UNL     1      10.394   2.159  22.516  0.00  0.00    +0.012 C 
ATOM     11  C   UNL     1       9.403   0.040  23.371  0.00  0.00    +0.052 C 
ATOM     12  C   UNL     1       8.806  -0.754  24.548  0.00  0.00    +0.185 C 
ENDROOT
BRANCH   2  13
ATOM     13  C   UNL     1       5.957  -2.029  25.946  0.00  0.00    +0.008 C 
BRANCH  13  14
ATOM     14  C   UNL     1       4.882  -2.652  25.019  0.00  0.00    +0.045 C 
BRANCH  14  15
ATOM     15  C   UNL     1       4.665  -4.167  24.928  0.00  0.00    +0.179 C 
ATOM     16  O   UNL     1       4.790  -4.824  26.187  0.00  0.00    -0.461 OA
ATOM     17  C   UNL     1       4.943  -6.178  26.089  0.00  0.00    +0.310 C 
ATOM     18  O   UNL     1       5.742  -6.785  26.795  0.00  0.00    -0.251 OA
ATOM     19  C   UNL     1       3.947  -6.893  25.201  0.00  0.00    +0.152 C 
ATOM     20  C   UNL     1       3.522  -6.124  23.959  0.00  0.00    +0.129 C 
ATOM     21  C   UNL     1       3.398  -4.623  24.230  0.00  0.00    +0.076 C 
BRANCH  20  22
ATOM     22  O   UNL     1       4.408  -6.385  22.868  0.00  0.00    -0.391 OA
ATOM     23  H   UNL     1       4.195  -7.222  22.426  0.00  0.00    +0.210 HD
ENDBRANCH  20  22
ENDBRANCH  14  15
ENDBRANCH  13  14
ENDBRANCH   2  13
BRANCH  12  24
ATOM     24  O   UNL     1       8.251  -1.896  23.896  0.00  0.00    -0.461 OA
BRANCH  24  25
ATOM     25  C   UNL     1       8.953  -3.053  23.954  0.00  0.00    +0.310 C 
ATOM     26  O   UNL     1      10.172  -3.128  23.882  0.00  0.00    -0.251 OA
BRANCH  25  27
ATOM     27  C   UNL     1       8.024  -4.234  24.200  0.00  0.00    +0.094 C 
ATOM     28  C   UNL     1       7.677  -4.985  22.899  0.00  0.00    +0.019 C 
BRANCH  27  29
ATOM     29  C   UNL     1       8.659  -5.190  25.212  0.00  0.00    +0.011 C 
ATOM     30  C   UNL     1       8.562  -4.690  26.645  0.00  0.00    +0.004 C 
ENDBRANCH  27  29
ENDBRANCH  25  27
ENDBRANCH  24  25
ENDBRANCH  12  24
TORSDOF 8
ENDMDL
MODEL 4
REMARK VINA RESULT:      -6.2      2.076      3.762
REMARK  Name = 
REMARK  12 active torsions:
REMARK  status: ('A' for Active; 'I' for Inactive)
REMARK    1  A    between atoms: C_3  and  O_30
REMARK    2  A    between atoms: C_6  and  C_8
REMARK    3  A    between atoms: C_13  and  C_15
REMARK    4  A    between atoms: C_16  and  C_18
REMARK    5  A    between atoms: C_18  and  C_19
REMARK    6  A    between atoms: C_19  and  C_20
REMARK    7  A    between atoms: C_23  and  O_25
REMARK    8  A    between atoms: O_30  and  C_31
REMARK    9  A    between atoms: C_31  and  C_33
REMARK   10  A    between atoms: C_33  and  C_35
REMARK   11  A    between atoms: C_33  and  C_36
REMARK   12  A    between atoms: C_36  and  C_37
REMARK                            x       y       z     vdW  Elec       q    Type
REMARK                         _______ _______ _______ _____ _____    ______ ____
ROOT
ATOM      1  C   UNL     1       6.495  -4.267  24.738  0.00  0.00    +0.063 C 
ATOM      2  C   UNL     1       5.707  -3.581  23.531  0.00  0.00    +0.007 C 
ATOM      3  C   UNL     1       5.365  -4.664  22.437  0.00  0.00    +0.012 C 
ATOM      4  C   UNL     1       6.519  -4.982  21.477  0.00  0.00    +0.012 C 
ATOM      5  C   UNL     1       4.859  -5.956  22.989  0.00  0.00    -0.023 C 
ATOM      6  C   UNL     1       5.059  -6.353  24.242  0.00  0.00    -0.000 C 
ATOM      7  C   UNL     1       5.791  -5.568  25.208  0.00  0.00    -0.044 C 
ATOM      8  C   UNL     1       5.794  -6.022  26.478  0.00  0.00    -0.020 C 
ATOM      9  C   UNL     1       6.383  -5.268  27.628  0.00  0.00    +0.012 C 
ATOM     10  C   UNL     1       5.648  -5.583  28.939  0.00  0.00    +0.012 C 
ATOM     11  C   UNL     1       6.265  -3.791  27.323  0.00  0.00    +0.052 C 
ATOM     12  C   UNL     1       6.895  -3.392  25.976  0.00  0.00    +0.185 C 
ENDROOT
BRANCH   2  13
ATOM     13  C   UNL     1       6.302  -2.316  22.784  0.00  0.00    +0.008 C 
BRANCH  13  14
ATOM     14  C   UNL     1       7.849  -2.301  22.903  0.00  0.00    +0.045 C 
BRANCH  14  15
ATOM     15  C   UNL     1       8.651  -0.995  22.910  0.00  0.00    +0.179 C 
ATOM     16  O   UNL     1       9.831  -1.069  23.706  0.00  0.00    -0.461 OA
ATOM     17  C   UNL     1      10.372   0.149  24.006  0.00  0.00    +0.310 C 
ATOM     18  O   UNL     1      10.808   0.397  25.125  0.00  0.00    -0.251 OA
ATOM     19  C   UNL     1      10.565   1.091  22.838  0.00  0.00    +0.152 C 
ATOM     20  C   UNL     1       9.483   1.027  21.771  0.00  0.00    +0.129 C 
ATOM     21  C   UNL     1       8.979  -0.402  21.553  0.00  0.00    +0.076 C 
BRANCH  20  22
ATOM     22  O   UNL     1       8.407   1.917  22.079  0.00  0.00    -0.391 OA
ATOM     23  H   UNL     1       7.814   1.543  22.750  0.00  0.00    +0.210 HD
ENDBRANCH  20  22
ENDBRANCH  14  15
ENDBRANCH  13  14
ENDBRANCH   2  13
BRANCH  12  24
ATOM     24  O   UNL     1       6.496  -2.028  25.844  0.00  0.00    -0.461 OA
BRANCH  24  25
ATOM     25  C   UNL     1       7.307  -1.084  26.377  0.00  0.00    +0.310 C 
ATOM     26  O   UNL     1       8.449  -1.291  26.764  0.00  0.00    -0.251 OA
BRANCH  25  27
ATOM     27  C   UNL     1       6.632   0.280  26.357  0.00  0.00    +0.094 C 
ATOM     28  C   UNL     1       7.632   1.423  26.087  0.00  0.00    +0.019 C 
BRANCH  27  29
ATOM     29  C   UNL     1       5.518   0.291  25.308  0.00  0.00    +0.011 C 
ATOM     30  C   UNL     1       5.700   1.379  24.259  0.00  0.00    +0.004 C 
ENDBRANCH  27  29
ENDBRANCH  25  27
ENDBRANCH  24  25
ENDBRANCH  12  24
TORSDOF 8
ENDMDL
MODEL 5
REMARK VINA RESULT:      -6.2      2.078      3.586
REMARK  Name = 
REMARK  12 active torsions:
REMARK  status: ('A' for Active; 'I' for Inactive)
REMARK    1  A    between atoms: C_3  and  O_30
REMARK    2  A    between atoms: C_6  and  C_8
REMARK    3  A    between atoms: C_13  and  C_15
REMARK    4  A    between atoms: C_16  and  C_18
REMARK    5  A    between atoms: C_18  and  C_19
REMARK    6  A    between atoms: C_19  and  C_20
REMARK    7  A    between atoms: C_23  and  O_25
REMARK    8  A    between atoms: O_30  and  C_31
REMARK    9  A    between atoms: C_31  and  C_33
REMARK   10  A    between atoms: C_33  and  C_35
REMARK   11  A    between atoms: C_33  and  C_36
REMARK   12  A    between atoms: C_36  and  C_37
REMARK                            x       y       z     vdW  Elec       q    Type
REMARK                         _______ _______ _______ _____ _____    ______ ____
ROOT
ATOM      1  C   UNL     1       6.199  -5.435  25.076  0.00  0.00    +0.063 C 
ATOM      2  C   UNL     1       5.770  -4.517  23.842  0.00  0.00    +0.007 C 
ATOM      3  C   UNL     1       5.071  -5.403  22.741  0.00  0.00    +0.012 C 
ATOM      4  C   UNL     1       6.043  -6.153  21.820  0.00  0.00    +0.012 C 
ATOM      5  C   UNL     1       4.093  -6.395  23.279  0.00  0.00    -0.023 C 
ATOM      6  C   UNL     1       4.089  -6.819  24.540  0.00  0.00    -0.000 C 
ATOM      7  C   UNL     1       5.037  -6.359  25.527  0.00  0.00    -0.044 C 
ATOM      8  C   UNL     1       4.829  -6.761  26.797  0.00  0.00    -0.020 C 
ATOM      9  C   UNL     1       5.628  -6.274  27.964  0.00  0.00    +0.012 C 
ATOM     10  C   UNL     1       4.790  -6.264  29.251  0.00  0.00    +0.012 C 
ATOM     11  C   UNL     1       6.094  -4.868  27.651  0.00  0.00    +0.052 C 
ATOM     12  C   UNL     1       6.868  -4.762  26.324  0.00  0.00    +0.185 C 
ENDROOT
BRANCH   2  13
ATOM     13  C   UNL     1       6.827  -3.588  23.112  0.00  0.00    +0.008 C 
BRANCH  13  14
ATOM     14  C   UNL     1       6.338  -2.117  23.112  0.00  0.00    +0.045 C 
BRANCH  14  15
ATOM     15  C   UNL     1       7.234  -0.963  22.648  0.00  0.00    +0.179 C 
ATOM     16  O   UNL     1       6.826   0.302  23.162  0.00  0.00    -0.461 OA
ATOM     17  C   UNL     1       7.377   1.368  22.508  0.00  0.00    +0.310 C 
ATOM     18  O   UNL     1       6.715   2.362  22.233  0.00  0.00    -0.251 OA
ATOM     19  C   UNL     1       8.877   1.320  22.316  0.00  0.00    +0.152 C 
ATOM     20  C   UNL     1       9.451  -0.064  22.050  0.00  0.00    +0.129 C 
ATOM     21  C   UNL     1       8.726  -1.147  22.852  0.00  0.00    +0.076 C 
BRANCH  20  22
ATOM     22  O   UNL     1       9.443  -0.359  20.651  0.00  0.00    -0.391 OA
ATOM     23  H   UNL     1       8.950  -1.174  20.459  0.00  0.00    +0.210 HD
ENDBRANCH  20  22
ENDBRANCH  14  15
ENDBRANCH  13  14
ENDBRANCH   2  13
BRANCH  12  24
ATOM     24  O   UNL     1       7.026  -3.350  26.176  0.00  0.00    -0.461 OA
BRANCH  24  25
ATOM     25  C   UNL     1       8.288  -2.860  26.170  0.00  0.00    +0.310 C 
ATOM     26  O   UNL     1       9.259  -3.449  25.715  0.00  0.00    -0.251 OA
BRANCH  25  27
ATOM     27  C   UNL     1       8.318  -1.446  26.735  0.00  0.00    +0.094 C 
ATOM     28  C   UNL     1       9.311  -0.537  25.982  0.00  0.00    +0.019 C 
BRANCH  27  29
ATOM     29  C   UNL     1       6.912  -0.842  26.696  0.00  0.00    +0.011 C 
ATOM     30  C   UNL     1       6.919   0.676  26.597  0.00  0.00    +0.004 C 
ENDBRANCH  27  29
ENDBRANCH  25  27
ENDBRANCH  24  25
ENDBRANCH  12  24
TORSDOF 8
ENDMDL
MODEL 6
REMARK VINA RESULT:      -6.1      3.419      7.223
REMARK  Name = 
REMARK  12 active torsions:
REMARK  status: ('A' for Active; 'I' for Inactive)
REMARK    1  A    between atoms: C_3  and  O_30
REMARK    2  A    between atoms: C_6  and  C_8
REMARK    3  A    between atoms: C_13  and  C_15
REMARK    4  A    between atoms: C_16  and  C_18
REMARK    5  A    between atoms: C_18  and  C_19
REMARK    6  A    between atoms: C_19  and  C_20
REMARK    7  A    between atoms: C_23  and  O_25
REMARK    8  A    between atoms: O_30  and  C_31
REMARK    9  A    between atoms: C_31  and  C_33
REMARK   10  A    between atoms: C_33  and  C_35
REMARK   11  A    between atoms: C_33  and  C_36
REMARK   12  A    between atoms: C_36  and  C_37
REMARK                            x       y       z     vdW  Elec       q    Type
REMARK                         _______ _______ _______ _____ _____    ______ ____
ROOT
ATOM      1  C   UNL     1       8.336   2.175  24.178  0.00  0.00    +0.063 C 
ATOM      2  C   UNL     1       8.921   0.874  24.896  0.00  0.00    +0.007 C 
ATOM      3  C   UNL     1      10.258   0.434  24.186  0.00  0.00    +0.012 C 
ATOM      4  C   UNL     1      10.056  -0.388  22.906  0.00  0.00    +0.012 C 
ATOM      5  C   UNL     1      11.184   1.561  23.865  0.00  0.00    -0.023 C 
ATOM      6  C   UNL     1      10.798   2.830  23.774  0.00  0.00    -0.000 C 
ATOM      7  C   UNL     1       9.432   3.254  23.977  0.00  0.00    -0.044 C 
ATOM      8  C   UNL     1       9.209   4.584  23.996  0.00  0.00    -0.020 C 
ATOM      9  C   UNL     1       7.887   5.199  24.328  0.00  0.00    +0.012 C 
ATOM     10  C   UNL     1       8.059   6.576  24.985  0.00  0.00    +0.012 C 
ATOM     11  C   UNL     1       7.170   4.269  25.283  0.00  0.00    +0.052 C 
ATOM     12  C   UNL     1       7.031   2.831  24.747  0.00  0.00    +0.185 C 
ENDROOT
BRANCH   2  13
ATOM     13  C   UNL     1       8.028  -0.422  25.085  0.00  0.00    +0.008 C 
BRANCH  13  14
ATOM     14  C   UNL     1       8.646  -1.346  26.167  0.00  0.00    +0.045 C 
BRANCH  14  15
ATOM     15  C   UNL     1       8.592  -2.874  26.059  0.00  0.00    +0.179 C 
ATOM     16  O   UNL     1       7.445  -3.437  26.692  0.00  0.00    -0.461 OA
ATOM     17  C   UNL     1       7.540  -4.782  26.910  0.00  0.00    +0.310 C 
ATOM     18  O   UNL     1       7.159  -5.289  27.960  0.00  0.00    -0.251 OA
ATOM     19  C   UNL     1       7.966  -5.615  25.721  0.00  0.00    +0.152 C 
ATOM     20  C   UNL     1       8.990  -4.959  24.806  0.00  0.00    +0.129 C 
ATOM     21  C   UNL     1       8.750  -3.454  24.666  0.00  0.00    +0.076 C 
BRANCH  20  22
ATOM     22  O   UNL     1      10.321  -5.237  25.248  0.00  0.00    -0.391 OA
ATOM     23  H   UNL     1      10.338  -5.525  26.175  0.00  0.00    +0.210 HD
ENDBRANCH  20  22
ENDBRANCH  14  15
ENDBRANCH  13  14
ENDBRANCH   2  13
BRANCH  12  24
ATOM     24  O   UNL     1       6.505   2.134  25.877  0.00  0.00    -0.461 OA
BRANCH  24  25
ATOM     25  C   UNL     1       5.269   1.596  25.761  0.00  0.00    +0.310 C 
ATOM     26  O   UNL     1       4.541   1.736  24.788  0.00  0.00    -0.251 OA
BRANCH  25  27
ATOM     27  C   UNL     1       4.943   0.730  26.970  0.00  0.00    +0.094 C 
ATOM     28  C   UNL     1       4.653  -0.734  26.579  0.00  0.00    +0.019 C 
BRANCH  27  29
ATOM     29  C   UNL     1       6.092   0.792  27.977  0.00  0.00    +0.011 C 
ATOM     30  C   UNL     1       5.708   1.485  29.276  0.00  0.00    +0.004 C 
ENDBRANCH  27  29
ENDBRANCH  25  27
ENDBRANCH  24  25
ENDBRANCH  12  24
TORSDOF 8
ENDMDL
MODEL 7
REMARK VINA RESULT:      -6.1      2.482      3.308
REMARK  Name = 
REMARK  12 active torsions:
REMARK  status: ('A' for Active; 'I' for Inactive)
REMARK    1  A    between atoms: C_3  and  O_30
REMARK    2  A    between atoms: C_6  and  C_8
REMARK    3  A    between atoms: C_13  and  C_15
REMARK    4  A    between atoms: C_16  and  C_18
REMARK    5  A    between atoms: C_18  and  C_19
REMARK    6  A    between atoms: C_19  and  C_20
REMARK    7  A    between atoms: C_23  and  O_25
REMARK    8  A    between atoms: O_30  and  C_31
REMARK    9  A    between atoms: C_31  and  C_33
REMARK   10  A    between atoms: C_33  and  C_35
REMARK   11  A    between atoms: C_33  and  C_36
REMARK   12  A    between atoms: C_36  and  C_37
REMARK                            x       y       z     vdW  Elec       q    Type
REMARK                         _______ _______ _______ _____ _____    ______ ____
ROOT
ATOM      1  C   UNL     1       6.426  -4.759  24.486  0.00  0.00    +0.063 C 
ATOM      2  C   UNL     1       6.720  -3.204  24.690  0.00  0.00    +0.007 C 
ATOM      3  C   UNL     1       6.972  -2.524  23.290  0.00  0.00    +0.012 C 
ATOM      4  C   UNL     1       8.396  -2.702  22.746  0.00  0.00    +0.012 C 
ATOM      5  C   UNL     1       6.017  -2.945  22.222  0.00  0.00    -0.023 C 
ATOM      6  C   UNL     1       5.301  -4.065  22.271  0.00  0.00    -0.000 C 
ATOM      7  C   UNL     1       5.372  -4.996  23.372  0.00  0.00    -0.044 C 
ATOM      8  C   UNL     1       4.488  -6.015  23.360  0.00  0.00    -0.020 C 
ATOM      9  C   UNL     1       4.329  -6.990  24.483  0.00  0.00    +0.012 C 
ATOM     10  C   UNL     1       2.888  -7.512  24.571  0.00  0.00    +0.012 C 
ATOM     11  C   UNL     1       4.690  -6.278  25.769  0.00  0.00    +0.052 C 
ATOM     12  C   UNL     1       6.090  -5.637  25.741  0.00  0.00    +0.185 C 
ENDROOT
BRANCH   2  13
ATOM     13  C   UNL     1       7.862  -2.713  25.674  0.00  0.00    +0.008 C 
BRANCH  13  14
ATOM     14  C   UNL     1       7.525  -1.304  26.227  0.00  0.00    +0.045 C 
BRANCH  14  15
ATOM     15  C   UNL     1       8.195  -0.036  25.684  0.00  0.00    +0.179 C 
ATOM     16  O   UNL     1       9.370  -0.308  24.925  0.00  0.00    -0.461 OA
ATOM     17  C   UNL     1      10.162   0.787  24.725  0.00  0.00    +0.310 C 
ATOM     18  O   UNL     1      11.384   0.717  24.813  0.00  0.00    -0.251 OA
ATOM     19  C   UNL     1       9.461   2.025  24.211  0.00  0.00    +0.152 C 
ATOM     20  C   UNL     1       8.055   2.242  24.753  0.00  0.00    +0.129 C 
ATOM     21  C   UNL     1       7.298   0.923  24.924  0.00  0.00    +0.076 C 
BRANCH  20  22
ATOM     22  O   UNL     1       8.088   2.986  25.973  0.00  0.00    -0.391 OA
ATOM     23  H   UNL     1       7.976   3.938  25.816  0.00  0.00    +0.210 HD
ENDBRANCH  20  22
ENDBRANCH  14  15
ENDBRANCH  13  14
ENDBRANCH   2  13
BRANCH  12  24
ATOM     24  O   UNL     1       6.110  -4.895  26.961  0.00  0.00    -0.461 OA
BRANCH  24  25
ATOM     25  C   UNL     1       6.314  -5.582  28.109  0.00  0.00    +0.310 C 
ATOM     26  O   UNL     1       7.224  -6.380  28.285  0.00  0.00    -0.251 OA
BRANCH  25  27
ATOM     27  C   UNL     1       5.306  -5.167  29.172  0.00  0.00    +0.094 C 
ATOM     28  C   UNL     1       4.492  -3.925  28.752  0.00  0.00    +0.019 C 
BRANCH  27  29
ATOM     29  C   UNL     1       4.369  -6.336  29.482  0.00  0.00    +0.011 C 
ATOM     30  C   UNL     1       2.958  -5.890  29.832  0.00  0.00    +0.004 C 
ENDBRANCH  27  29
ENDBRANCH  25  27
ENDBRANCH  24  25
ENDBRANCH  12  24
TORSDOF 8
ENDMDL
MODEL 8
REMARK VINA RESULT:      -6.0      2.789      6.565
REMARK  Name = 
REMARK  12 active torsions:
REMARK  status: ('A' for Active; 'I' for Inactive)
REMARK    1  A    between atoms: C_3  and  O_30
REMARK    2  A    between atoms: C_6  and  C_8
REMARK    3  A    between atoms: C_13  and  C_15
REMARK    4  A    between atoms: C_16  and  C_18
REMARK    5  A    between atoms: C_18  and  C_19
REMARK    6  A    between atoms: C_19  and  C_20
REMARK    7  A    between atoms: C_23  and  O_25
REMARK    8  A    between atoms: O_30  and  C_31
REMARK    9  A    between atoms: C_31  and  C_33
REMARK   10  A    between atoms: C_33  and  C_35
REMARK   11  A    between atoms: C_33  and  C_36
REMARK   12  A    between atoms: C_36  and  C_37
REMARK                            x       y       z     vdW  Elec       q    Type
REMARK                         _______ _______ _______ _____ _____    ______ ____
ROOT
ATOM      1  C   UNL     1       8.266   1.564  24.841  0.00  0.00    +0.063 C 
ATOM      2  C   UNL     1       9.644   0.824  24.524  0.00  0.00    +0.007 C 
ATOM      3  C   UNL     1      10.395   1.576  23.359  0.00  0.00    +0.012 C 
ATOM      4  C   UNL     1       9.901   1.217  21.951  0.00  0.00    +0.012 C 
ATOM      5  C   UNL     1      10.385   3.064  23.482  0.00  0.00    -0.023 C 
ATOM      6  C   UNL     1       9.508   3.739  24.220  0.00  0.00    -0.000 C 
ATOM      7  C   UNL     1       8.465   3.096  24.985  0.00  0.00    -0.044 C 
ATOM      8  C   UNL     1       7.738   3.889  25.799  0.00  0.00    -0.020 C 
ATOM      9  C   UNL     1       6.715   3.374  26.761  0.00  0.00    +0.012 C 
ATOM     10  C   UNL     1       6.601   4.280  27.995  0.00  0.00    +0.012 C 
ATOM     11  C   UNL     1       7.137   1.985  27.189  0.00  0.00    +0.052 C 
ATOM     12  C   UNL     1       7.368   1.025  26.007  0.00  0.00    +0.185 C 
ENDROOT
BRANCH   2  13
ATOM     13  C   UNL     1       9.679  -0.727  24.194  0.00  0.00    +0.008 C 
BRANCH  13  14
ATOM     14  C   UNL     1       8.452  -1.119  23.331  0.00  0.00    +0.045 C 
BRANCH  14  15
ATOM     15  C   UNL     1       7.896  -2.548  23.311  0.00  0.00    +0.179 C 
ATOM     16  O   UNL     1       7.431  -2.948  22.024  0.00  0.00    -0.461 OA
ATOM     17  C   UNL     1       6.634  -4.056  22.046  0.00  0.00    +0.310 C 
ATOM     18  O   UNL     1       5.622  -4.130  21.356  0.00  0.00    -0.251 OA
ATOM     19  C   UNL     1       7.170  -5.241  22.819  0.00  0.00    +0.152 C 
ATOM     20  C   UNL     1       7.951  -4.890  24.077  0.00  0.00    +0.129 C 
ATOM     21  C   UNL     1       8.792  -3.625  23.895  0.00  0.00    +0.076 C 
BRANCH  20  22
ATOM     22  O   UNL     1       7.079  -4.779  25.205  0.00  0.00    -0.391 OA
ATOM     23  H   UNL     1       7.530  -5.015  26.031  0.00  0.00    +0.210 HD
ENDBRANCH  20  22
ENDBRANCH  14  15
ENDBRANCH  13  14
ENDBRANCH   2  13
BRANCH  12  24
ATOM     24  O   UNL     1       7.922  -0.123  26.650  0.00  0.00    -0.461 OA
BRANCH  24  25
ATOM     25  C   UNL     1       7.181  -1.256  26.654  0.00  0.00    +0.310 C 
ATOM     26  O   UNL     1       7.629  -2.376  26.859  0.00  0.00    -0.251 OA
BRANCH  25  27
ATOM     27  C   UNL     1       5.707  -0.936  26.447  0.00  0.00    +0.094 C 
ATOM     28  C   UNL     1       5.049  -1.861  25.402  0.00  0.00    +0.019 C 
BRANCH  27  29
ATOM     29  C   UNL     1       4.964  -1.031  27.781  0.00  0.00    +0.011 C 
ATOM     30  C   UNL     1       4.237  -2.354  27.965  0.00  0.00    +0.004 C 
ENDBRANCH  27  29
ENDBRANCH  25  27
ENDBRANCH  24  25
ENDBRANCH  12  24
TORSDOF 8
ENDMDL
MODEL 9
REMARK VINA RESULT:      -6.0      3.485      7.233
REMARK  Name = 
REMARK  12 active torsions:
REMARK  status: ('A' for Active; 'I' for Inactive)
REMARK    1  A    between atoms: C_3  and  O_30
REMARK    2  A    between atoms: C_6  and  C_8
REMARK    3  A    between atoms: C_13  and  C_15
REMARK    4  A    between atoms: C_16  and  C_18
REMARK    5  A    between atoms: C_18  and  C_19
REMARK    6  A    between atoms: C_19  and  C_20
REMARK    7  A    between atoms: C_23  and  O_25
REMARK    8  A    between atoms: O_30  and  C_31
REMARK    9  A    between atoms: C_31  and  C_33
REMARK   10  A    between atoms: C_33  and  C_35
REMARK   11  A    between atoms: C_33  and  C_36
REMARK   12  A    between atoms: C_36  and  C_37
REMARK                            x       y       z     vdW  Elec       q    Type
REMARK                         _______ _______ _______ _____ _____    ______ ____
ROOT
ATOM      1  C   UNL     1       8.418   1.776  23.241  0.00  0.00    +0.063 C 
ATOM      2  C   UNL     1       8.334   0.332  23.917  0.00  0.00    +0.007 C 
ATOM      3  C   UNL     1       9.718  -0.407  23.763  0.00  0.00    +0.012 C 
ATOM      4  C   UNL     1       9.930  -1.079  22.399  0.00  0.00    +0.012 C 
ATOM      5  C   UNL     1      10.908   0.453  24.039  0.00  0.00    -0.023 C 
ATOM      6  C   UNL     1      10.884   1.782  24.001  0.00  0.00    -0.000 C 
ATOM      7  C   UNL     1       9.694   2.538  23.688  0.00  0.00    -0.044 C 
ATOM      8  C   UNL     1       9.776   3.877  23.826  0.00  0.00    -0.020 C 
ATOM      9  C   UNL     1       8.608   4.800  23.676  0.00  0.00    +0.012 C 
ATOM     10  C   UNL     1       8.764   6.048  24.558  0.00  0.00    +0.012 C 
ATOM     11  C   UNL     1       7.363   4.042  24.087  0.00  0.00    +0.052 C 
ATOM     12  C   UNL     1       7.171   2.722  23.318  0.00  0.00    +0.185 C 
ENDROOT
BRANCH   2  13
ATOM     13  C   UNL     1       7.195  -0.693  23.510  0.00  0.00    +0.008 C 
BRANCH  13  14
ATOM     14  C   UNL     1       6.782  -1.550  24.735  0.00  0.00    +0.045 C 
BRANCH  14  15
ATOM     15  C   UNL     1       7.463  -2.883  25.061  0.00  0.00    +0.179 C 
ATOM     16  O   UNL     1       8.042  -3.508  23.918  0.00  0.00    -0.461 OA
ATOM     17  C   UNL     1       8.345  -4.827  24.105  0.00  0.00    +0.310 C 
ATOM     18  O   UNL     1       8.122  -5.665  23.237  0.00  0.00    -0.251 OA
ATOM     19  C   UNL     1       9.133  -5.152  25.355  0.00  0.00    +0.152 C 
ATOM     20  C   UNL     1       8.782  -4.314  26.575  0.00  0.00    +0.129 C 
ATOM     21  C   UNL     1       8.464  -2.864  26.201  0.00  0.00    +0.076 C 
BRANCH  20  22
ATOM     22  O   UNL     1       7.710  -4.908  27.312  0.00  0.00    -0.391 OA
ATOM     23  H   UNL     1       7.821  -5.869  27.393  0.00  0.00    +0.210 HD
ENDBRANCH  20  22
ENDBRANCH  14  15
ENDBRANCH  13  14
ENDBRANCH   2  13
BRANCH  12  24
ATOM     24  O   UNL     1       6.065   2.130  24.002  0.00  0.00    -0.461 OA
BRANCH  24  25
ATOM     25  C   UNL     1       4.843   2.678  23.808  0.00  0.00    +0.310 C 
ATOM     26  O   UNL     1       4.428   3.081  22.730  0.00  0.00    -0.251 OA
BRANCH  25  27
ATOM     27  C   UNL     1       4.030   2.650  25.095  0.00  0.00    +0.094 C 
ATOM     28  C   UNL     1       4.556   1.600  26.096  0.00  0.00    +0.019 C 
BRANCH  27  29
ATOM     29  C   UNL     1       4.028   4.040  25.736  0.00  0.00    +0.011 C 
ATOM     30  C   UNL     1       4.310   4.006  27.231  0.00  0.00    +0.004 C 
ENDBRANCH  27  29
ENDBRANCH  25  27
ENDBRANCH  24  25
ENDBRANCH  12  24
TORSDOF 8
ENDMDL
