MODEL 1
REMARK VINA RESULT:      -5.7      0.000      0.000
REMARK  Name = 
REMARK  6 active torsions:
REMARK  status: ('A' for Active; 'I' for Inactive)
REMARK    1  A    between atoms: C_1  and  C_2
REMARK    2  A    between atoms: C_2  and  C_3
REMARK    3  A    between atoms: C_3  and  O_4
REMARK    4  A    between atoms: P_6  and  O_7
REMARK    5  A    between atoms: P_10  and  O_11
REMARK    6  A    between atoms: C_15  and  O_17
REMARK                            x       y       z     vdW  Elec       q    Type
REMARK                         _______ _______ _______ _____ _____    ______ ____
ROOT
ATOM      1  C   UNL     1       5.728  -3.925  24.715  0.00  0.00    +0.047 C 
ATOM      2  C   UNL     1       6.416  -4.849  23.690  0.00  0.00    +0.129 C 
ATOM      3  C   UNL     1       6.659  -4.146  22.327  0.00  0.00    +0.175 C 
ATOM      4  C   UNL     1       7.729  -3.036  22.307  0.00  0.00    +0.206 C 
ATOM      5  O   UNL     1       7.788  -2.222  23.457  0.00  0.00    -0.284 OA
ATOM      6  P   UNL     1       8.962  -2.339  24.546  0.00  0.00    +0.483 P 
ATOM      7  O   UNL     1       9.344  -1.042  25.167  0.00  0.00    -0.227 OA
ATOM      8  O   UNL     1       8.551  -3.472  25.568  0.00  0.00    -0.186 OA
ATOM      9  P   UNL     1       8.472  -5.042  25.405  0.00  0.00    +0.484 P 
ATOM     10  O   UNL     1       7.927  -5.757  26.598  0.00  0.00    -0.227 OA
ATOM     11  O   UNL     1       7.717  -5.332  24.032  0.00  0.00    -0.275 OA
ENDROOT
BRANCH   3  12
ATOM     12  O   UNL     1       7.120  -5.126  21.371  0.00  0.00    -0.387 OA
ATOM     13  H   UNL     1       7.960  -5.484  21.717  0.00  0.00    +0.210 HD
ENDBRANCH   3  12
BRANCH   6  14
ATOM     14  O   UNL     1      10.202  -2.981  23.749  0.00  0.00    -0.302 OA
ATOM     15  H   UNL     1       9.859  -3.705  23.181  0.00  0.00    +0.222 HD
ENDBRANCH   6  14
BRANCH   9  16
ATOM     16  O   UNL     1       9.988  -5.415  25.046  0.00  0.00    -0.302 OA
ATOM     17  H   UNL     1      10.343  -6.127  25.617  0.00  0.00    +0.222 HD
ENDBRANCH   9  16
BRANCH   2  18
ATOM     18  C   UNL     1       5.467  -6.065  23.464  0.00  0.00    +0.193 C 
BRANCH  18  19
ATOM     19  O   UNL     1       4.647  -5.922  22.309  0.00  0.00    -0.392 OA
ATOM     20  H   UNL     1       5.024  -6.423  21.568  0.00  0.00    +0.210 HD
ENDBRANCH  18  19
ENDBRANCH   2  18
TORSDOF 5
ENDMDL
MODEL 2
REMARK VINA RESULT:      -5.7      3.684      5.891
REMARK  Name = 
REMARK  6 active torsions:
REMARK  status: ('A' for Active; 'I' for Inactive)
REMARK    1  A    between atoms: C_1  and  C_2
REMARK    2  A    between atoms: C_2  and  C_3
REMARK    3  A    between atoms: C_3  and  O_4
REMARK    4  A    between atoms: P_6  and  O_7
REMARK    5  A    between atoms: P_10  and  O_11
REMARK    6  A    between atoms: C_15  and  O_17
REMARK                            x       y       z     vdW  Elec       q    Type
REMARK                         _______ _______ _______ _____ _____    ______ ____
ROOT
ATOM      1  C   UNL     1      10.828   0.758  24.468  0.00  0.00    +0.047 C 
ATOM      2  C   UNL     1       9.713   1.154  23.480  0.00  0.00    +0.129 C 
ATOM      3  C   UNL     1       9.987   0.642  22.040  0.00  0.00    +0.175 C 
ATOM      4  C   UNL     1       9.883  -0.880  21.819  0.00  0.00    +0.206 C 
ATOM      5  O   UNL     1      10.355  -1.685  22.876  0.00  0.00    -0.284 OA
ATOM      6  P   UNL     1       9.375  -2.487  23.863  0.00  0.00    +0.483 P 
ATOM      7  O   UNL     1       9.914  -3.796  24.320  0.00  0.00    -0.227 OA
ATOM      8  O   UNL     1       8.955  -1.498  25.022  0.00  0.00    -0.186 OA
ATOM      9  P   UNL     1       8.005  -0.234  25.018  0.00  0.00    +0.484 P 
ATOM     10  O   UNL     1       7.955   0.501  26.317  0.00  0.00    -0.227 OA
ATOM     11  O   UNL     1       8.404   0.646  23.751  0.00  0.00    -0.275 OA
ENDROOT
BRANCH   3  12
ATOM     12  O   UNL     1       9.009   1.217  21.145  0.00  0.00    -0.387 OA
ATOM     13  H   UNL     1       8.198   0.680  21.232  0.00  0.00    +0.210 HD
ENDBRANCH   3  12
BRANCH   6  14
ATOM     14  O   UNL     1       8.017  -2.687  23.025  0.00  0.00    -0.302 OA
ATOM     15  H   UNL     1       7.638  -3.561  23.263  0.00  0.00    +0.222 HD
ENDBRANCH   6  14
BRANCH   9  16
ATOM     16  O   UNL     1       6.608  -0.871  24.564  0.00  0.00    -0.302 OA
ATOM     17  H   UNL     1       6.670  -1.340  23.707  0.00  0.00    +0.222 HD
ENDBRANCH   9  16
BRANCH   2  18
ATOM     18  C   UNL     1       9.657   2.711  23.456  0.00  0.00    +0.193 C 
BRANCH  18  19
ATOM     19  O   UNL     1      10.631   3.288  22.592  0.00  0.00    -0.392 OA
ATOM     20  H   UNL     1      11.013   2.605  22.018  0.00  0.00    +0.210 HD
ENDBRANCH  18  19
ENDBRANCH   2  18
TORSDOF 5
ENDMDL
MODEL 3
REMARK VINA RESULT:      -5.7      2.787      5.456
REMARK  Name = 
REMARK  6 active torsions:
REMARK  status: ('A' for Active; 'I' for Inactive)
REMARK    1  A    between atoms: C_1  and  C_2
REMARK    2  A    between atoms: C_2  and  C_3
REMARK    3  A    between atoms: C_3  and  O_4
REMARK    4  A    between atoms: P_6  and  O_7
REMARK    5  A    between atoms: P_10  and  O_11
REMARK    6  A    between atoms: C_15  and  O_17
REMARK                            x       y       z     vdW  Elec       q    Type
REMARK                         _______ _______ _______ _____ _____    ______ ____
ROOT
ATOM      1  C   UNL     1       9.486  -0.261  21.706  0.00  0.00    +0.047 C 
ATOM      2  C   UNL     1       8.454   0.478  22.581  0.00  0.00    +0.129 C 
ATOM      3  C   UNL     1       7.060  -0.205  22.559  0.00  0.00    +0.175 C 
ATOM      4  C   UNL     1       6.950  -1.567  23.272  0.00  0.00    +0.206 C 
ATOM      5  O   UNL     1       8.069  -2.415  23.149  0.00  0.00    -0.284 OA
ATOM      6  P   UNL     1       9.098  -2.678  24.354  0.00  0.00    +0.483 P 
ATOM      7  O   UNL     1       9.658  -4.056  24.382  0.00  0.00    -0.227 OA
ATOM      8  O   UNL     1      10.174  -1.521  24.320  0.00  0.00    -0.186 OA
ATOM      9  P   UNL     1      10.063   0.014  24.679  0.00  0.00    +0.484 P 
ATOM     10  O   UNL     1      11.304   0.800  24.408  0.00  0.00    -0.227 OA
ATOM     11  O   UNL     1       8.741   0.563  23.979  0.00  0.00    -0.275 OA
ENDROOT
BRANCH   3  12
ATOM     12  O   UNL     1       6.110   0.649  23.236  0.00  0.00    -0.387 OA
ATOM     13  H   UNL     1       5.804   0.161  24.024  0.00  0.00    +0.210 HD
ENDBRANCH   3  12
BRANCH   6  14
ATOM     14  O   UNL     1       8.256  -2.373  25.689  0.00  0.00    -0.302 OA
ATOM     15  H   UNL     1       8.024  -1.418  25.693  0.00  0.00    +0.222 HD
ENDBRANCH   6  14
BRANCH   9  16
ATOM     16  O   UNL     1       9.636  -0.036  26.222  0.00  0.00    -0.302 OA
ATOM     17  H   UNL     1       9.836  -0.899  26.638  0.00  0.00    +0.222 HD
ENDBRANCH   9  16
BRANCH   2  18
ATOM     18  C   UNL     1       8.315   1.919  22.003  0.00  0.00    +0.193 C 
BRANCH  18  19
ATOM     19  O   UNL     1       9.545   2.441  21.511  0.00  0.00    -0.392 OA
ATOM     20  H   UNL     1      10.216   1.740  21.481  0.00  0.00    +0.210 HD
ENDBRANCH  18  19
ENDBRANCH   2  18
TORSDOF 5
ENDMDL
MODEL 4
REMARK VINA RESULT:      -5.6      2.007      3.862
REMARK  Name = 
REMARK  6 active torsions:
REMARK  status: ('A' for Active; 'I' for Inactive)
REMARK    1  A    between atoms: C_1  and  C_2
REMARK    2  A    between atoms: C_2  and  C_3
REMARK    3  A    between atoms: C_3  and  O_4
REMARK    4  A    between atoms: P_6  and  O_7
REMARK    5  A    between atoms: P_10  and  O_11
REMARK    6  A    between atoms: C_15  and  O_17
REMARK                            x       y       z     vdW  Elec       q    Type
REMARK                         _______ _______ _______ _____ _____    ______ ____
ROOT
ATOM      1  C   UNL     1       6.520  -2.529  23.836  0.00  0.00    +0.047 C 
ATOM      2  C   UNL     1       8.044  -2.348  23.688  0.00  0.00    +0.129 C 
ATOM      3  C   UNL     1       8.639  -1.415  24.778  0.00  0.00    +0.175 C 
ATOM      4  C   UNL     1       8.668  -1.970  26.216  0.00  0.00    +0.206 C 
ATOM      5  O   UNL     1       7.557  -2.752  26.593  0.00  0.00    -0.284 OA
ATOM      6  P   UNL     1       7.629  -4.349  26.744  0.00  0.00    +0.483 P 
ATOM      7  O   UNL     1       6.768  -4.895  27.827  0.00  0.00    -0.227 OA
ATOM      8  O   UNL     1       7.379  -4.973  25.314  0.00  0.00    -0.186 OA
ATOM      9  P   UNL     1       8.282  -5.001  24.018  0.00  0.00    +0.484 P 
ATOM     10  O   UNL     1       7.624  -5.610  22.823  0.00  0.00    -0.227 OA
ATOM     11  O   UNL     1       8.845  -3.525  23.809  0.00  0.00    -0.275 OA
ENDROOT
BRANCH   3  12
ATOM     12  O   UNL     1      10.020  -1.142  24.456  0.00  0.00    -0.387 OA
ATOM     13  H   UNL     1      10.276  -0.347  24.962  0.00  0.00    +0.210 HD
ENDBRANCH   3  12
BRANCH   6  14
ATOM     14  O   UNL     1       9.180  -4.667  27.029  0.00  0.00    -0.302 OA
ATOM     15  H   UNL     1       9.485  -4.076  27.752  0.00  0.00    +0.222 HD
ENDBRANCH   6  14
BRANCH   9  16
ATOM     16  O   UNL     1       9.577  -5.791  24.533  0.00  0.00    -0.302 OA
ATOM     17  H   UNL     1       9.967  -5.388  25.335  0.00  0.00    +0.222 HD
ENDBRANCH   9  16
BRANCH   2  18
ATOM     18  C   UNL     1       8.293  -1.706  22.290  0.00  0.00    +0.193 C 
BRANCH  18  19
ATOM     19  O   UNL     1       9.593  -1.979  21.777  0.00  0.00    -0.392 OA
ATOM     20  H   UNL     1      10.213  -1.285  22.054  0.00  0.00    +0.210 HD
ENDBRANCH  18  19
ENDBRANCH   2  18
TORSDOF 5
ENDMDL
MODEL 5
REMARK VINA RESULT:      -5.5      3.261      5.358
REMARK  Name = 
REMARK  6 active torsions:
REMARK  status: ('A' for Active; 'I' for Inactive)
REMARK    1  A    between atoms: C_1  and  C_2
REMARK    2  A    between atoms: C_2  and  C_3
REMARK    3  A    between atoms: C_3  and  O_4
REMARK    4  A    between atoms: P_6  and  O_7
REMARK    5  A    between atoms: P_10  and  O_11
REMARK    6  A    between atoms: C_15  and  O_17
REMARK                            x       y       z     vdW  Elec       q    Type
REMARK                         _______ _______ _______ _____ _____    ______ ____
ROOT
ATOM      1  C   UNL     1       9.315   0.945  24.287  0.00  0.00    +0.047 C 
ATOM      2  C   UNL     1       8.924   0.465  22.876  0.00  0.00    +0.129 C 
ATOM      3  C   UNL     1       9.960  -0.525  22.277  0.00  0.00    +0.175 C 
ATOM      4  C   UNL     1      10.029  -1.922  22.923  0.00  0.00    +0.206 C 
ATOM      5  O   UNL     1       9.857  -1.959  24.322  0.00  0.00    -0.284 OA
ATOM      6  P   UNL     1       8.513  -2.493  25.019  0.00  0.00    +0.483 P 
ATOM      7  O   UNL     1       8.739  -3.199  26.309  0.00  0.00    -0.227 OA
ATOM      8  O   UNL     1       7.500  -1.283  25.090  0.00  0.00    -0.186 OA
ATOM      9  P   UNL     1       6.683  -0.542  23.958  0.00  0.00    +0.484 P 
ATOM     10  O   UNL     1       5.906   0.641  24.434  0.00  0.00    -0.227 OA
ATOM     11  O   UNL     1       7.695  -0.257  22.760  0.00  0.00    -0.275 OA
ENDROOT
BRANCH   3  12
ATOM     12  O   UNL     1       9.626  -0.770  20.892  0.00  0.00    -0.387 OA
ATOM     13  H   UNL     1      10.387  -0.468  20.361  0.00  0.00    +0.210 HD
ENDBRANCH   3  12
BRANCH   6  14
ATOM     14  O   UNL     1       7.849  -3.479  23.935  0.00  0.00    -0.302 OA
ATOM     15  H   UNL     1       7.290  -2.940  23.334  0.00  0.00    +0.222 HD
ENDBRANCH   6  14
BRANCH   9  16
ATOM     16  O   UNL     1       5.783  -1.729  23.368  0.00  0.00    -0.302 OA
ATOM     17  H   UNL     1       5.074  -2.003  23.985  0.00  0.00    +0.222 HD
ENDBRANCH   9  16
BRANCH   2  18
ATOM     18  C   UNL     1       8.856   1.729  21.967  0.00  0.00    +0.193 C 
BRANCH  18  19
ATOM     19  O   UNL     1      10.136   2.159  21.516  0.00  0.00    -0.392 OA
ATOM     20  H   UNL     1      10.138   2.242  20.549  0.00  0.00    +0.210 HD
ENDBRANCH  18  19
ENDBRANCH   2  18
TORSDOF 5
ENDMDL
MODEL 6
REMARK VINA RESULT:      -5.4      3.164      4.752
REMARK  Name = 
REMARK  6 active torsions:
REMARK  status: ('A' for Active; 'I' for Inactive)
REMARK    1  A    between atoms: C_1  and  C_2
REMARK    2  A    between atoms: C_2  and  C_3
REMARK    3  A    between atoms: C_3  and  O_4
REMARK    4  A    between atoms: P_6  and  O_7
REMARK    5  A    between atoms: P_10  and  O_11
REMARK    6  A    between atoms: C_15  and  O_17
REMARK                            x       y       z     vdW  Elec       q    Type
REMARK                         _______ _______ _______ _____ _____    ______ ____
ROOT
ATOM      1  C   UNL     1       7.066  -0.931  23.296  0.00  0.00    +0.047 C 
ATOM      2  C   UNL     1       8.502  -1.454  23.093  0.00  0.00    +0.129 C 
ATOM      3  C   UNL     1       9.070  -1.098  21.692  0.00  0.00    +0.175 C 
ATOM      4  C   UNL     1       9.388   0.388  21.436  0.00  0.00    +0.206 C 
ATOM      5  O   UNL     1       8.489   1.313  22.005  0.00  0.00    -0.284 OA
ATOM      6  P   UNL     1       8.855   2.200  23.293  0.00  0.00    +0.483 P 
ATOM      7  O   UNL     1       8.254   3.561  23.281  0.00  0.00    -0.227 OA
ATOM      8  O   UNL     1       8.524   1.337  24.574  0.00  0.00    -0.186 OA
ATOM      9  P   UNL     1       9.235   0.063  25.183  0.00  0.00    +0.484 P 
ATOM     10  O   UNL     1       8.535  -0.525  26.364  0.00  0.00    -0.227 OA
ATOM     11  O   UNL     1       9.502  -0.944  23.977  0.00  0.00    -0.275 OA
ENDROOT
BRANCH   3  12
ATOM     12  O   UNL     1      10.328  -1.786  21.509  0.00  0.00    -0.387 OA
ATOM     13  H   UNL     1      10.740  -1.858  22.391  0.00  0.00    +0.210 HD
ENDBRANCH   3  12
BRANCH   6  14
ATOM     14  O   UNL     1      10.461   2.282  23.296  0.00  0.00    -0.302 OA
ATOM     15  H   UNL     1      10.784   1.901  24.142  0.00  0.00    +0.222 HD
ENDBRANCH   6  14
BRANCH   9  16
ATOM     16  O   UNL     1      10.704   0.621  25.495  0.00  0.00    -0.302 OA
ATOM     17  H   UNL     1      10.704   1.576  25.708  0.00  0.00    +0.222 HD
ENDBRANCH   9  16
BRANCH   2  18
ATOM     18  C   UNL     1       8.446  -3.005  23.232  0.00  0.00    +0.193 C 
BRANCH  18  19
ATOM     19  O   UNL     1       9.544  -3.537  23.965  0.00  0.00    -0.392 OA
ATOM     20  H   UNL     1       9.788  -4.409  23.614  0.00  0.00    +0.210 HD
ENDBRANCH  18  19
ENDBRANCH   2  18
TORSDOF 5
ENDMDL
MODEL 7
REMARK VINA RESULT:      -5.4      3.615      5.220
REMARK  Name = 
REMARK  6 active torsions:
REMARK  status: ('A' for Active; 'I' for Inactive)
REMARK    1  A    between atoms: C_1  and  C_2
REMARK    2  A    between atoms: C_2  and  C_3
REMARK    3  A    between atoms: C_3  and  O_4
REMARK    4  A    between atoms: P_6  and  O_7
REMARK    5  A    between atoms: P_10  and  O_11
REMARK    6  A    between atoms: C_15  and  O_17
REMARK                            x       y       z     vdW  Elec       q    Type
REMARK                         _______ _______ _______ _____ _____    ______ ____
ROOT
ATOM      1  C   UNL     1       9.300  -0.468  25.411  0.00  0.00    +0.047 C 
ATOM      2  C   UNL     1       8.088  -0.673  24.481  0.00  0.00    +0.129 C 
ATOM      3  C   UNL     1       7.073   0.500  24.560  0.00  0.00    +0.175 C 
ATOM      4  C   UNL     1       7.528   1.844  23.959  0.00  0.00    +0.206 C 
ATOM      5  O   UNL     1       8.887   2.170  24.148  0.00  0.00    -0.284 OA
ATOM      6  P   UNL     1       9.972   2.096  22.966  0.00  0.00    +0.483 P 
ATOM      7  O   UNL     1      11.028   3.140  23.048  0.00  0.00    -0.227 OA
ATOM      8  O   UNL     1      10.506   0.610  22.905  0.00  0.00    -0.186 OA
ATOM      9  P   UNL     1       9.812  -0.726  22.424  0.00  0.00    +0.484 P 
ATOM     10  O   UNL     1      10.636  -1.955  22.629  0.00  0.00    -0.227 OA
ATOM     11  O   UNL     1       8.360  -0.761  23.081  0.00  0.00    -0.275 OA
ENDROOT
BRANCH   3  12
ATOM     12  O   UNL     1       5.886   0.141  23.819  0.00  0.00    -0.387 OA
ATOM     13  H   UNL     1       5.415  -0.531  24.348  0.00  0.00    +0.210 HD
ENDBRANCH   3  12
BRANCH   6  14
ATOM     14  O   UNL     1       9.118   2.248  21.612  0.00  0.00    -0.302 OA
ATOM     15  H   UNL     1       9.570   1.734  20.907  0.00  0.00    +0.222 HD
ENDBRANCH   6  14
BRANCH   9  16
ATOM     16  O   UNL     1       9.485  -0.397  20.891  0.00  0.00    -0.302 OA
ATOM     17  H   UNL     1       9.975  -0.976  20.271  0.00  0.00    +0.222 HD
ENDBRANCH   9  16
BRANCH   2  18
ATOM     18  C   UNL     1       7.377  -1.982  24.942  0.00  0.00    +0.193 C 
BRANCH  18  19
ATOM     19  O   UNL     1       6.722  -2.662  23.876  0.00  0.00    -0.392 OA
ATOM     20  H   UNL     1       5.811  -2.882  24.132  0.00  0.00    +0.210 HD
ENDBRANCH  18  19
ENDBRANCH   2  18
TORSDOF 5
ENDMDL
MODEL 8
REMARK VINA RESULT:      -5.3      2.369      5.010
REMARK  Name = 
REMARK  6 active torsions:
REMARK  status: ('A' for Active; 'I' for Inactive)
REMARK    1  A    between atoms: C_1  and  C_2
REMARK    2  A    between atoms: C_2  and  C_3
REMARK    3  A    between atoms: C_3  and  O_4
REMARK    4  A    between atoms: P_6  and  O_7
REMARK    5  A    between atoms: P_10  and  O_11
REMARK    6  A    between atoms: C_15  and  O_17
REMARK                            x       y       z     vdW  Elec       q    Type
REMARK                         _______ _______ _______ _____ _____    ______ ____
ROOT
ATOM      1  C   UNL     1       6.135  -3.142  24.721  0.00  0.00    +0.047 C 
ATOM      2  C   UNL     1       7.167  -4.274  24.891  0.00  0.00    +0.129 C 
ATOM      3  C   UNL     1       6.934  -5.100  26.185  0.00  0.00    +0.175 C 
ATOM      4  C   UNL     1       5.683  -5.999  26.211  0.00  0.00    +0.206 C 
ATOM      5  O   UNL     1       4.536  -5.470  25.586  0.00  0.00    -0.284 OA
ATOM      6  P   UNL     1       4.000  -5.994  24.165  0.00  0.00    +0.483 P 
ATOM      7  O   UNL     1       2.519  -5.978  24.033  0.00  0.00    -0.227 OA
ATOM      8  O   UNL     1       4.779  -5.202  23.042  0.00  0.00    -0.186 OA
ATOM      9  P   UNL     1       6.284  -5.282  22.565  0.00  0.00    +0.484 P 
ATOM     10  O   UNL     1       6.655  -4.272  21.529  0.00  0.00    -0.227 OA
ATOM     11  O   UNL     1       7.190  -5.280  23.875  0.00  0.00    -0.275 OA
ENDROOT
BRANCH   3  12
ATOM     12  O   UNL     1       8.047  -6.003  26.370  0.00  0.00    -0.387 OA
ATOM     13  H   UNL     1       8.570  -5.979  25.546  0.00  0.00    +0.210 HD
ENDBRANCH   3  12
BRANCH   6  14
ATOM     14  O   UNL     1       4.571  -7.492  24.036  0.00  0.00    -0.302 OA
ATOM     15  H   UNL     1       5.164  -7.661  24.801  0.00  0.00    +0.222 HD
ENDBRANCH   6  14
BRANCH   9  16
ATOM     16  O   UNL     1       6.396  -6.803  22.075  0.00  0.00    -0.302 OA
ATOM     17  H   UNL     1       6.765  -6.879  21.172  0.00  0.00    +0.222 HD
ENDBRANCH   9  16
BRANCH   2  18
ATOM     18  C   UNL     1       8.571  -3.602  24.971  0.00  0.00    +0.193 C 
BRANCH  18  19
ATOM     19  O   UNL     1       9.616  -4.441  24.490  0.00  0.00    -0.392 OA
ATOM     20  H   UNL     1      10.472  -4.138  24.834  0.00  0.00    +0.210 HD
ENDBRANCH  18  19
ENDBRANCH   2  18
TORSDOF 5
ENDMDL
MODEL 9
REMARK VINA RESULT:      -5.2      2.876      5.454
REMARK  Name = 
REMARK  6 active torsions:
REMARK  status: ('A' for Active; 'I' for Inactive)
REMARK    1  A    between atoms: C_1  and  C_2
REMARK    2  A    between atoms: C_2  and  C_3
REMARK    3  A    between atoms: C_3  and  O_4
REMARK    4  A    between atoms: P_6  and  O_7
REMARK    5  A    between atoms: P_10  and  O_11
REMARK    6  A    between atoms: C_15  and  O_17
REMARK                            x       y       z     vdW  Elec       q    Type
REMARK                         _______ _______ _______ _____ _____    ______ ____
ROOT
ATOM      1  C   UNL     1       6.853  -0.153  23.617  0.00  0.00    +0.047 C 
ATOM      2  C   UNL     1       8.172   0.130  24.362  0.00  0.00    +0.129 C 
ATOM      3  C   UNL     1       8.186  -0.470  25.794  0.00  0.00    +0.175 C 
ATOM      4  C   UNL     1       8.255  -2.006  25.895  0.00  0.00    +0.206 C 
ATOM      5  O   UNL     1       7.526  -2.717  24.920  0.00  0.00    -0.284 OA
ATOM      6  P   UNL     1       8.230  -3.485  23.697  0.00  0.00    +0.483 P 
ATOM      7  O   UNL     1       7.538  -4.737  23.290  0.00  0.00    -0.227 OA
ATOM      8  O   UNL     1       8.443  -2.434  22.536  0.00  0.00    -0.186 OA
ATOM      9  P   UNL     1       9.437  -1.211  22.410  0.00  0.00    +0.484 P 
ATOM     10  O   UNL     1       9.247  -0.389  21.177  0.00  0.00    -0.227 OA
ATOM     11  O   UNL     1       9.364  -0.406  23.784  0.00  0.00    -0.275 OA
ENDROOT
BRANCH   3  12
ATOM     12  O   UNL     1       9.361   0.004  26.488  0.00  0.00    -0.387 OA
ATOM     13  H   UNL     1       9.092   0.795  26.992  0.00  0.00    +0.210 HD
ENDBRANCH   3  12
BRANCH   6  14
ATOM     14  O   UNL     1       9.723  -3.794  24.207  0.00  0.00    -0.302 OA
ATOM     15  H   UNL     1       9.913  -4.743  24.040  0.00  0.00    +0.222 HD
ENDBRANCH   6  14
BRANCH   9  16
ATOM     16  O   UNL     1      10.864  -1.931  22.511  0.00  0.00    -0.302 OA
ATOM     17  H   UNL     1      11.592  -1.367  22.178  0.00  0.00    +0.222 HD
ENDBRANCH   9  16
BRANCH   2  18
ATOM     18  C   UNL     1       8.313   1.679  24.467  0.00  0.00    +0.193 C 
BRANCH  18  19
ATOM     19  O   UNL     1       9.668   2.113  24.490  0.00  0.00    -0.392 OA
ATOM     20  H   UNL     1       9.745   2.990  24.079  0.00  0.00    +0.210 HD
ENDBRANCH  18  19
ENDBRANCH   2  18
TORSDOF 5
ENDMDL
