MODEL 1
REMARK VINA RESULT:      -5.7      0.000      0.000
REMARK  Name = 
REMARK  8 active torsions:
REMARK  status: ('A' for Active; 'I' for Inactive)
REMARK    1  A    between atoms: C_1  and  C_2
REMARK    2  A    between atoms: C_2  and  S_3
REMARK    3  A    between atoms: C_2  and  C_11
REMARK    4  A    between atoms: S_3  and  C_4
REMARK    5  A    between atoms: C_4  and  C_6
REMARK    6  A    between atoms: N_13  and  C_14
REMARK    7  A    between atoms: C_14  and  C_15
REMARK    8  A    between atoms: C_15  and  O_16
REMARK                            x       y       z     vdW  Elec       q    Type
REMARK                         _______ _______ _______ _____ _____    ______ ____
ROOT
ATOM      1  C   UNL     1       6.367  -3.828  21.860  0.00  0.00    +0.029 C 
ATOM      2  C   UNL     1       7.647  -3.617  22.667  0.00  0.00    +0.137 C 
ENDROOT
BRANCH   2   3
ATOM      3  C   UNL     1       7.704  -4.618  23.834  0.00  0.00    +0.227 C 
ATOM      4  N   UNL     1       6.604  -4.604  24.678  0.00  0.00    -0.304 N 
ATOM      5  H   UNL     1       5.738  -4.283  24.253  0.00  0.00    +0.149 HD
ATOM      6  O   UNL     1       8.682  -5.317  24.081  0.00  0.00    -0.275 OA
BRANCH   4   7
ATOM      7  C   UNL     1       6.471  -5.638  25.715  0.00  0.00    +0.224 C 
BRANCH   7   8
ATOM      8  C   UNL     1       7.137  -5.271  27.042  0.00  0.00    +0.322 C 
ATOM      9  O   UNL     1       6.602  -4.592  27.908  0.00  0.00    -0.249 OA
BRANCH   8  10
ATOM     10  O   UNL     1       8.409  -5.720  27.154  0.00  0.00    -0.480 OA
ATOM     11  H   UNL     1       8.479  -6.284  27.950  0.00  0.00    +0.295 HD
ENDBRANCH   8  10
ENDBRANCH   7   8
ENDBRANCH   4   7
ENDBRANCH   2   3
BRANCH   2  12
ATOM     12  S   UNL     1       7.736  -1.918  23.342  0.00  0.00    -0.070 S 
BRANCH  12  13
ATOM     13  C   UNL     1       9.449  -1.561  23.078  0.00  0.00    +0.227 C 
ATOM     14  O   UNL     1      10.242  -2.486  22.946  0.00  0.00    -0.279 OA
BRANCH  13  15
ATOM     15  C   UNL     1       9.840  -0.151  23.059  0.00  0.00    +0.066 A 
ATOM     16  S   UNL     1      10.489   0.691  24.409  0.00  0.00    -0.093 S 
ATOM     17  C   UNL     1      10.655   2.146  23.536  0.00  0.00    +0.046 A 
ATOM     18  C   UNL     1      10.217   2.018  22.239  0.00  0.00    +0.008 A 
ATOM     19  C   UNL     1       9.745   0.701  21.966  0.00  0.00    +0.020 A 
ENDBRANCH  13  15
ENDBRANCH  12  13
ENDBRANCH   2  12
TORSDOF 7
ENDMDL
MODEL 2
REMARK VINA RESULT:      -5.6      2.206      3.354
REMARK  Name = 
REMARK  8 active torsions:
REMARK  status: ('A' for Active; 'I' for Inactive)
REMARK    1  A    between atoms: C_1  and  C_2
REMARK    2  A    between atoms: C_2  and  S_3
REMARK    3  A    between atoms: C_2  and  C_11
REMARK    4  A    between atoms: S_3  and  C_4
REMARK    5  A    between atoms: C_4  and  C_6
REMARK    6  A    between atoms: N_13  and  C_14
REMARK    7  A    between atoms: C_14  and  C_15
REMARK    8  A    between atoms: C_15  and  O_16
REMARK                            x       y       z     vdW  Elec       q    Type
REMARK                         _______ _______ _______ _____ _____    ______ ____
ROOT
ATOM      1  C   UNL     1       7.275  -2.405  25.845  0.00  0.00    +0.029 C 
ATOM      2  C   UNL     1       7.705  -2.626  24.396  0.00  0.00    +0.137 C 
ENDROOT
BRANCH   2   3
ATOM      3  C   UNL     1       7.222  -4.003  23.909  0.00  0.00    +0.227 C 
ATOM      4  N   UNL     1       7.553  -4.317  22.599  0.00  0.00    -0.304 N 
ATOM      5  H   UNL     1       8.384  -3.852  22.242  0.00  0.00    +0.149 HD
ATOM      6  O   UNL     1       6.509  -4.748  24.575  0.00  0.00    -0.275 OA
BRANCH   4   7
ATOM      7  C   UNL     1       7.301  -5.672  22.089  0.00  0.00    +0.224 C 
BRANCH   7   8
ATOM      8  C   UNL     1       6.011  -5.797  21.279  0.00  0.00    +0.322 C 
ATOM      9  O   UNL     1       5.955  -5.675  20.063  0.00  0.00    -0.249 OA
BRANCH   8  10
ATOM     10  O   UNL     1       4.909  -6.000  22.039  0.00  0.00    -0.480 OA
ATOM     11  H   UNL     1       4.533  -5.133  22.293  0.00  0.00    +0.295 HD
ENDBRANCH   8  10
ENDBRANCH   7   8
ENDBRANCH   4   7
ENDBRANCH   2   3
BRANCH   2  12
ATOM     12  S   UNL     1       9.525  -2.542  24.221  0.00  0.00    -0.070 S 
BRANCH  12  13
ATOM     13  C   UNL     1       9.658  -1.527  22.777  0.00  0.00    +0.227 C 
ATOM     14  O   UNL     1       9.522  -2.036  21.670  0.00  0.00    -0.279 OA
BRANCH  13  15
ATOM     15  C   UNL     1       9.957  -0.111  22.986  0.00  0.00    +0.066 A 
ATOM     16  S   UNL     1      10.473   0.559  24.481  0.00  0.00    -0.093 S 
ATOM     17  C   UNL     1      10.594   2.133  23.838  0.00  0.00    +0.046 A 
ATOM     18  C   UNL     1      10.241   2.173  22.510  0.00  0.00    +0.008 A 
ATOM     19  C   UNL     1       9.870   0.886  22.022  0.00  0.00    +0.020 A 
ENDBRANCH  13  15
ENDBRANCH  12  13
ENDBRANCH   2  12
TORSDOF 7
ENDMDL
MODEL 3
REMARK VINA RESULT:      -5.6      4.580      8.139
REMARK  Name = 
REMARK  8 active torsions:
REMARK  status: ('A' for Active; 'I' for Inactive)
REMARK    1  A    between atoms: C_1  and  C_2
REMARK    2  A    between atoms: C_2  and  S_3
REMARK    3  A    between atoms: C_2  and  C_11
REMARK    4  A    between atoms: S_3  and  C_4
REMARK    5  A    between atoms: C_4  and  C_6
REMARK    6  A    between atoms: N_13  and  C_14
REMARK    7  A    between atoms: C_14  and  C_15
REMARK    8  A    between atoms: C_15  and  O_16
REMARK                            x       y       z     vdW  Elec       q    Type
REMARK                         _______ _______ _______ _____ _____    ______ ____
ROOT
ATOM      1  C   UNL     1       9.642   1.653  21.857  0.00  0.00    +0.029 C 
ATOM      2  C   UNL     1       9.583   1.962  23.351  0.00  0.00    +0.137 C 
ENDROOT
BRANCH   2   3
ATOM      3  C   UNL     1      10.022   3.415  23.605  0.00  0.00    +0.227 C 
ATOM      4  N   UNL     1      11.363   3.678  23.366  0.00  0.00    -0.304 N 
ATOM      5  H   UNL     1      11.808   3.065  22.688  0.00  0.00    +0.149 HD
ATOM      6  O   UNL     1       9.286   4.274  24.080  0.00  0.00    -0.275 OA
BRANCH   4   7
ATOM      7  C   UNL     1      11.850   5.064  23.402  0.00  0.00    +0.224 C 
BRANCH   7   8
ATOM      8  C   UNL     1      13.152   5.281  22.630  0.00  0.00    +0.322 C 
ATOM      9  O   UNL     1      13.200   5.648  21.464  0.00  0.00    -0.249 OA
BRANCH   8  10
ATOM     10  O   UNL     1      14.263   4.972  23.340  0.00  0.00    -0.480 OA
ATOM     11  H   UNL     1      14.232   5.440  24.199  0.00  0.00    +0.295 HD
ENDBRANCH   8  10
ENDBRANCH   7   8
ENDBRANCH   4   7
ENDBRANCH   2   3
BRANCH   2  12
ATOM     12  S   UNL     1      10.671   0.841  24.306  0.00  0.00    -0.070 S 
BRANCH  12  13
ATOM     13  C   UNL     1       9.466  -0.251  25.004  0.00  0.00    +0.227 C 
ATOM     14  O   UNL     1       9.378  -0.349  26.223  0.00  0.00    -0.279 OA
BRANCH  13  15
ATOM     15  C   UNL     1       8.641  -1.016  24.069  0.00  0.00    +0.066 A 
ATOM     16  S   UNL     1       9.261  -2.147  22.934  0.00  0.00    -0.093 S 
ATOM     17  C   UNL     1       7.711  -2.536  22.339  0.00  0.00    +0.046 A 
ATOM     18  C   UNL     1       6.724  -1.818  22.972  0.00  0.00    +0.008 A 
ATOM     19  C   UNL     1       7.258  -0.942  23.961  0.00  0.00    +0.020 A 
ENDBRANCH  13  15
ENDBRANCH  12  13
ENDBRANCH   2  12
TORSDOF 7
ENDMDL
MODEL 4
REMARK VINA RESULT:      -5.5      1.276      1.360
REMARK  Name = 
REMARK  8 active torsions:
REMARK  status: ('A' for Active; 'I' for Inactive)
REMARK    1  A    between atoms: C_1  and  C_2
REMARK    2  A    between atoms: C_2  and  S_3
REMARK    3  A    between atoms: C_2  and  C_11
REMARK    4  A    between atoms: S_3  and  C_4
REMARK    5  A    between atoms: C_4  and  C_6
REMARK    6  A    between atoms: N_13  and  C_14
REMARK    7  A    between atoms: C_14  and  C_15
REMARK    8  A    between atoms: C_15  and  O_16
REMARK                            x       y       z     vdW  Elec       q    Type
REMARK                         _______ _______ _______ _____ _____    ______ ____
ROOT
ATOM      1  C   UNL     1       7.161  -5.660  21.965  0.00  0.00    +0.029 C 
ATOM      2  C   UNL     1       7.642  -4.745  23.089  0.00  0.00    +0.137 C 
ENDROOT
BRANCH   2   3
ATOM      3  C   UNL     1       6.763  -4.941  24.337  0.00  0.00    +0.227 C 
ATOM      4  N   UNL     1       7.232  -4.330  25.491  0.00  0.00    -0.304 N 
ATOM      5  H   UNL     1       7.822  -3.516  25.339  0.00  0.00    +0.149 HD
ATOM      6  O   UNL     1       5.771  -5.662  24.363  0.00  0.00    -0.275 OA
BRANCH   4   7
ATOM      7  C   UNL     1       6.386  -4.300  26.693  0.00  0.00    +0.224 C 
BRANCH   7   8
ATOM      8  C   UNL     1       6.834  -5.268  27.788  0.00  0.00    +0.322 C 
ATOM      9  O   UNL     1       6.272  -5.381  28.870  0.00  0.00    -0.249 OA
BRANCH   8  10
ATOM     10  O   UNL     1       7.957  -5.958  27.478  0.00  0.00    -0.480 OA
ATOM     11  H   UNL     1       8.660  -5.326  27.223  0.00  0.00    +0.295 HD
ENDBRANCH   8  10
ENDBRANCH   7   8
ENDBRANCH   4   7
ENDBRANCH   2   3
BRANCH   2  12
ATOM     12  S   UNL     1       7.576  -2.986  22.591  0.00  0.00    -0.070 S 
BRANCH  12  13
ATOM     13  C   UNL     1       9.110  -2.409  23.258  0.00  0.00    +0.227 C 
ATOM     14  O   UNL     1       9.814  -3.181  23.899  0.00  0.00    -0.279 OA
BRANCH  13  15
ATOM     15  C   UNL     1       9.450  -1.005  23.027  0.00  0.00    +0.066 A 
ATOM     16  S   UNL     1       9.756   0.134  24.277  0.00  0.00    -0.093 S 
ATOM     17  C   UNL     1      10.065   1.397  23.173  0.00  0.00    +0.046 A 
ATOM     18  C   UNL     1       9.931   0.983  21.869  0.00  0.00    +0.008 A 
ATOM     19  C   UNL     1       9.573  -0.395  21.786  0.00  0.00    +0.020 A 
ENDBRANCH  13  15
ENDBRANCH  12  13
ENDBRANCH   2  12
TORSDOF 7
ENDMDL
MODEL 5
REMARK VINA RESULT:      -5.2      3.035      6.869
REMARK  Name = 
REMARK  8 active torsions:
REMARK  status: ('A' for Active; 'I' for Inactive)
REMARK    1  A    between atoms: C_1  and  C_2
REMARK    2  A    between atoms: C_2  and  S_3
REMARK    3  A    between atoms: C_2  and  C_11
REMARK    4  A    between atoms: S_3  and  C_4
REMARK    5  A    between atoms: C_4  and  C_6
REMARK    6  A    between atoms: N_13  and  C_14
REMARK    7  A    between atoms: C_14  and  C_15
REMARK    8  A    between atoms: C_15  and  O_16
REMARK                            x       y       z     vdW  Elec       q    Type
REMARK                         _______ _______ _______ _____ _____    ______ ____
ROOT
ATOM      1  C   UNL     1       8.779  -0.779  26.572  0.00  0.00    +0.029 C 
ATOM      2  C   UNL     1       9.116  -1.452  25.244  0.00  0.00    +0.137 C 
ENDROOT
BRANCH   2   3
ATOM      3  C   UNL     1       9.833  -0.456  24.317  0.00  0.00    +0.227 C 
ATOM      4  N   UNL     1       9.906   0.846  24.791  0.00  0.00    -0.304 N 
ATOM      5  H   UNL     1       9.878   0.937  25.803  0.00  0.00    +0.149 HD
ATOM      6  O   UNL     1      10.232  -0.741  23.192  0.00  0.00    -0.275 OA
BRANCH   4   7
ATOM      7  C   UNL     1      10.723   1.836  24.075  0.00  0.00    +0.224 C 
BRANCH   7   8
ATOM      8  C   UNL     1       9.958   2.602  22.995  0.00  0.00    +0.322 C 
ATOM      9  O   UNL     1       9.180   3.517  23.231  0.00  0.00    -0.249 OA
BRANCH   8  10
ATOM     10  O   UNL     1      10.174   2.137  21.743  0.00  0.00    -0.480 OA
ATOM     11  H   UNL     1       9.381   1.648  21.443  0.00  0.00    +0.295 HD
ENDBRANCH   8  10
ENDBRANCH   7   8
ENDBRANCH   4   7
ENDBRANCH   2   3
BRANCH   2  12
ATOM     12  S   UNL     1       7.608  -2.060  24.403  0.00  0.00    -0.070 S 
BRANCH  12  13
ATOM     13  C   UNL     1       8.127  -3.694  23.963  0.00  0.00    +0.227 C 
ATOM     14  O   UNL     1       9.279  -4.041  24.196  0.00  0.00    -0.279 OA
BRANCH  13  15
ATOM     15  C   UNL     1       7.140  -4.550  23.306  0.00  0.00    +0.066 A 
ATOM     16  S   UNL     1       5.479  -4.624  23.742  0.00  0.00    -0.093 S 
ATOM     17  C   UNL     1       5.119  -5.769  22.530  0.00  0.00    +0.046 A 
ATOM     18  C   UNL     1       6.234  -6.112  21.802  0.00  0.00    +0.008 A 
ATOM     19  C   UNL     1       7.394  -5.417  22.250  0.00  0.00    +0.020 A 
ENDBRANCH  13  15
ENDBRANCH  12  13
ENDBRANCH   2  12
TORSDOF 7
ENDMDL
MODEL 6
REMARK VINA RESULT:      -5.1      1.896      2.273
REMARK  Name = 
REMARK  8 active torsions:
REMARK  status: ('A' for Active; 'I' for Inactive)
REMARK    1  A    between atoms: C_1  and  C_2
REMARK    2  A    between atoms: C_2  and  S_3
REMARK    3  A    between atoms: C_2  and  C_11
REMARK    4  A    between atoms: S_3  and  C_4
REMARK    5  A    between atoms: C_4  and  C_6
REMARK    6  A    between atoms: N_13  and  C_14
REMARK    7  A    between atoms: C_14  and  C_15
REMARK    8  A    between atoms: C_15  and  O_16
REMARK                            x       y       z     vdW  Elec       q    Type
REMARK                         _______ _______ _______ _____ _____    ______ ____
ROOT
ATOM      1  C   UNL     1       6.731  -2.336  22.932  0.00  0.00    +0.029 C 
ATOM      2  C   UNL     1       7.866  -3.197  23.483  0.00  0.00    +0.137 C 
ENDROOT
BRANCH   2   3
ATOM      3  C   UNL     1       7.293  -4.316  24.370  0.00  0.00    +0.227 C 
ATOM      4  N   UNL     1       5.909  -4.413  24.380  0.00  0.00    -0.304 N 
ATOM      5  H   UNL     1       5.447  -4.063  23.545  0.00  0.00    +0.149 HD
ATOM      6  O   UNL     1       7.981  -5.021  25.103  0.00  0.00    -0.275 OA
BRANCH   4   7
ATOM      7  C   UNL     1       5.265  -5.554  25.046  0.00  0.00    +0.224 C 
BRANCH   7   8
ATOM      8  C   UNL     1       4.737  -6.616  24.080  0.00  0.00    +0.322 C 
ATOM      9  O   UNL     1       4.149  -7.628  24.436  0.00  0.00    -0.249 OA
BRANCH   8  10
ATOM     10  O   UNL     1       5.032  -6.365  22.783  0.00  0.00    -0.480 OA
ATOM     11  H   UNL     1       5.337  -5.438  22.699  0.00  0.00    +0.295 HD
ENDBRANCH   8  10
ENDBRANCH   7   8
ENDBRANCH   4   7
ENDBRANCH   2   3
BRANCH   2  12
ATOM     12  S   UNL     1       9.037  -2.200  24.475  0.00  0.00    -0.070 S 
BRANCH  12  13
ATOM     13  C   UNL     1      10.036  -1.510  23.186  0.00  0.00    +0.227 C 
ATOM     14  O   UNL     1      10.619  -2.260  22.411  0.00  0.00    -0.279 OA
BRANCH  13  15
ATOM     15  C   UNL     1      10.136  -0.052  23.131  0.00  0.00    +0.066 A 
ATOM     16  S   UNL     1      10.579   0.938  24.464  0.00  0.00    -0.093 S 
ATOM     17  C   UNL     1      10.466   2.374  23.551  0.00  0.00    +0.046 A 
ATOM     18  C   UNL     1      10.086   2.128  22.253  0.00  0.00    +0.008 A 
ATOM     19  C   UNL     1       9.892   0.736  22.013  0.00  0.00    +0.020 A 
ENDBRANCH  13  15
ENDBRANCH  12  13
ENDBRANCH   2  12
TORSDOF 7
ENDMDL
MODEL 7
REMARK VINA RESULT:      -5.1      2.070      2.536
REMARK  Name = 
REMARK  8 active torsions:
REMARK  status: ('A' for Active; 'I' for Inactive)
REMARK    1  A    between atoms: C_1  and  C_2
REMARK    2  A    between atoms: C_2  and  S_3
REMARK    3  A    between atoms: C_2  and  C_11
REMARK    4  A    between atoms: S_3  and  C_4
REMARK    5  A    between atoms: C_4  and  C_6
REMARK    6  A    between atoms: N_13  and  C_14
REMARK    7  A    between atoms: C_14  and  C_15
REMARK    8  A    between atoms: C_15  and  O_16
REMARK                            x       y       z     vdW  Elec       q    Type
REMARK                         _______ _______ _______ _____ _____    ______ ____
ROOT
ATOM      1  C   UNL     1       9.650  -1.615  22.583  0.00  0.00    +0.029 C 
ATOM      2  C   UNL     1       9.838  -1.853  24.080  0.00  0.00    +0.137 C 
ENDROOT
BRANCH   2   3
ATOM      3  C   UNL     1       9.220  -3.205  24.478  0.00  0.00    +0.227 C 
ATOM      4  N   UNL     1       7.967  -3.131  25.069  0.00  0.00    -0.304 N 
ATOM      5  H   UNL     1       7.419  -2.314  24.815  0.00  0.00    +0.149 HD
ATOM      6  O   UNL     1       9.812  -4.276  24.384  0.00  0.00    -0.275 OA
BRANCH   4   7
ATOM      7  C   UNL     1       7.209  -4.365  25.323  0.00  0.00    +0.224 C 
BRANCH   7   8
ATOM      8  C   UNL     1       7.489  -4.990  26.690  0.00  0.00    +0.322 C 
ATOM      9  O   UNL     1       6.904  -4.671  27.717  0.00  0.00    -0.249 OA
BRANCH   8  10
ATOM     10  O   UNL     1       8.492  -5.898  26.678  0.00  0.00    -0.480 OA
ATOM     11  H   UNL     1       8.584  -6.260  25.773  0.00  0.00    +0.295 HD
ENDBRANCH   8  10
ENDBRANCH   7   8
ENDBRANCH   4   7
ENDBRANCH   2   3
BRANCH   2  12
ATOM     12  S   UNL     1       9.052  -0.530  25.070  0.00  0.00    -0.070 S 
BRANCH  12  13
ATOM     13  C   UNL     1       9.884   0.890  24.419  0.00  0.00    +0.227 C 
ATOM     14  O   UNL     1      11.106   0.954  24.486  0.00  0.00    -0.279 OA
BRANCH  13  15
ATOM     15  C   UNL     1       9.048   1.947  23.848  0.00  0.00    +0.066 A 
ATOM     16  S   UNL     1       8.470   3.305  24.728  0.00  0.00    -0.093 S 
ATOM     17  C   UNL     1       7.671   3.958  23.371  0.00  0.00    +0.046 A 
ATOM     18  C   UNL     1       7.819   3.164  22.258  0.00  0.00    +0.008 A 
ATOM     19  C   UNL     1       8.605   2.007  22.533  0.00  0.00    +0.020 A 
ENDBRANCH  13  15
ENDBRANCH  12  13
ENDBRANCH   2  12
TORSDOF 7
ENDMDL
MODEL 8
REMARK VINA RESULT:      -5.0      2.622      6.329
REMARK  Name = 
REMARK  8 active torsions:
REMARK  status: ('A' for Active; 'I' for Inactive)
REMARK    1  A    between atoms: C_1  and  C_2
REMARK    2  A    between atoms: C_2  and  S_3
REMARK    3  A    between atoms: C_2  and  C_11
REMARK    4  A    between atoms: S_3  and  C_4
REMARK    5  A    between atoms: C_4  and  C_6
REMARK    6  A    between atoms: N_13  and  C_14
REMARK    7  A    between atoms: C_14  and  C_15
REMARK    8  A    between atoms: C_15  and  O_16
REMARK                            x       y       z     vdW  Elec       q    Type
REMARK                         _______ _______ _______ _____ _____    ______ ____
ROOT
ATOM      1  C   UNL     1       7.117  -2.241  25.572  0.00  0.00    +0.029 C 
ATOM      2  C   UNL     1       8.521  -2.791  25.812  0.00  0.00    +0.137 C 
ENDROOT
BRANCH   2   3
ATOM      3  C   UNL     1       9.457  -2.361  24.669  0.00  0.00    +0.227 C 
ATOM      4  N   UNL     1       9.398  -1.017  24.331  0.00  0.00    -0.304 N 
ATOM      5  H   UNL     1       9.101  -0.397  25.080  0.00  0.00    +0.149 HD
ATOM      6  O   UNL     1      10.140  -3.146  24.019  0.00  0.00    -0.275 OA
BRANCH   4   7
ATOM      7  C   UNL     1      10.372  -0.462  23.380  0.00  0.00    +0.224 C 
BRANCH   7   8
ATOM      8  C   UNL     1       9.856  -0.382  21.943  0.00  0.00    +0.322 C 
ATOM      9  O   UNL     1       9.368   0.626  21.450  0.00  0.00    -0.249 OA
BRANCH   8  10
ATOM     10  O   UNL     1       9.935  -1.555  21.271  0.00  0.00    -0.480 OA
ATOM     11  H   UNL     1       9.990  -1.370  20.312  0.00  0.00    +0.295 HD
ENDBRANCH   8  10
ENDBRANCH   7   8
ENDBRANCH   4   7
ENDBRANCH   2   3
BRANCH   2  12
ATOM     12  S   UNL     1       8.513  -4.619  25.912  0.00  0.00    -0.070 S 
BRANCH  12  13
ATOM     13  C   UNL     1       6.853  -4.957  25.399  0.00  0.00    +0.227 C 
ATOM     14  O   UNL     1       5.954  -4.948  26.232  0.00  0.00    -0.279 OA
BRANCH  13  15
ATOM     15  C   UNL     1       6.644  -5.263  23.984  0.00  0.00    +0.066 A 
ATOM     16  S   UNL     1       5.124  -5.676  23.298  0.00  0.00    -0.093 S 
ATOM     17  C   UNL     1       5.773  -5.829  21.728  0.00  0.00    +0.046 A 
ATOM     18  C   UNL     1       7.126  -5.585  21.706  0.00  0.00    +0.008 A 
ATOM     19  C   UNL     1       7.627  -5.265  23.002  0.00  0.00    +0.020 A 
ENDBRANCH  13  15
ENDBRANCH  12  13
ENDBRANCH   2  12
TORSDOF 7
ENDMDL
MODEL 9
REMARK VINA RESULT:      -5.0      2.616      3.914
REMARK  Name = 
REMARK  8 active torsions:
REMARK  status: ('A' for Active; 'I' for Inactive)
REMARK    1  A    between atoms: C_1  and  C_2
REMARK    2  A    between atoms: C_2  and  S_3
REMARK    3  A    between atoms: C_2  and  C_11
REMARK    4  A    between atoms: S_3  and  C_4
REMARK    5  A    between atoms: C_4  and  C_6
REMARK    6  A    between atoms: N_13  and  C_14
REMARK    7  A    between atoms: C_14  and  C_15
REMARK    8  A    between atoms: C_15  and  O_16
REMARK                            x       y       z     vdW  Elec       q    Type
REMARK                         _______ _______ _______ _____ _____    ______ ____
ROOT
ATOM      1  C   UNL     1       9.517  -0.771  21.725  0.00  0.00    +0.029 C 
ATOM      2  C   UNL     1       9.758  -1.142  23.187  0.00  0.00    +0.137 C 
ENDROOT
BRANCH   2   3
ATOM      3  C   UNL     1       9.283  -2.582  23.449  0.00  0.00    +0.227 C 
ATOM      4  N   UNL     1       8.027  -2.890  22.945  0.00  0.00    -0.304 N 
ATOM      5  H   UNL     1       7.738  -2.338  22.142  0.00  0.00    +0.149 HD
ATOM      6  O   UNL     1       9.903  -3.388  24.136  0.00  0.00    -0.275 OA
BRANCH   4   7
ATOM      7  C   UNL     1       7.552  -4.281  22.979  0.00  0.00    +0.224 C 
BRANCH   7   8
ATOM      8  C   UNL     1       6.636  -4.649  21.811  0.00  0.00    +0.322 C 
ATOM      9  O   UNL     1       5.740  -3.927  21.394  0.00  0.00    -0.249 OA
BRANCH   8  10
ATOM     10  O   UNL     1       6.868  -5.884  21.307  0.00  0.00    -0.480 OA
ATOM     11  H   UNL     1       7.815  -6.103  21.422  0.00  0.00    +0.295 HD
ENDBRANCH   8  10
ENDBRANCH   7   8
ENDBRANCH   4   7
ENDBRANCH   2   3
BRANCH   2  12
ATOM     12  S   UNL     1       8.867  -0.011  24.317  0.00  0.00    -0.070 S 
BRANCH  12  13
ATOM     13  C   UNL     1       9.735   1.499  24.003  0.00  0.00    +0.227 C 
ATOM     14  O   UNL     1      10.942   1.552  24.208  0.00  0.00    -0.279 OA
BRANCH  13  15
ATOM     15  C   UNL     1       8.943   2.636  23.534  0.00  0.00    +0.066 A 
ATOM     16  S   UNL     1       9.100   4.238  24.134  0.00  0.00    -0.093 S 
ATOM     17  C   UNL     1       7.901   4.845  23.084  0.00  0.00    +0.046 A 
ATOM     18  C   UNL     1       7.368   3.858  22.290  0.00  0.00    +0.008 A 
ATOM     19  C   UNL     1       7.962   2.589  22.551  0.00  0.00    +0.020 A 
ENDBRANCH  13  15
ENDBRANCH  12  13
ENDBRANCH   2  12
TORSDOF 7
ENDMDL
