MODEL 1
REMARK VINA RESULT:      -4.0      0.000      0.000
REMARK  Name = 
REMARK  8 active torsions:
REMARK  status: ('A' for Active; 'I' for Inactive)
REMARK    1  A    between atoms: C_1  and  C_2
REMARK    2  A    between atoms: C_2  and  C_3
REMARK    3  A    between atoms: C_3  and  C_4
REMARK    4  A    between atoms: C_3  and  O_5
REMARK    5  A    between atoms: C_3  and  C_6
REMARK    6  A    between atoms: C_6  and  O_8
REMARK    7  A    between atoms: C_6  and  C_9
REMARK    8  A    between atoms: C_9  and  O_10
REMARK                            x       y       z     vdW  Elec       q    Type
REMARK                         _______ _______ _______ _____ _____    ______ ____
ROOT
ATOM      1  C   UNL     1       9.847   0.805  21.912  0.00  0.00    +0.254 C 
ENDROOT
BRANCH   1   2
ATOM      2  C   UNL     1       9.886   1.415  23.338  0.00  0.00    +0.099 C 
ATOM      3  C   UNL     1      10.538   2.807  23.322  0.00  0.00    +0.044 C 
BRANCH   2   5
ATOM      4  C   UNL     1       9.810  -0.095  25.437  0.00  0.00    +0.007 C 
ATOM      5  C   UNL     1      10.663   0.518  24.332  0.00  0.00    +0.034 C 
ENDBRANCH   2   5
BRANCH   2   6
ATOM      6  O   UNL     1       8.531   1.561  23.811  0.00  0.00    -0.386 OA
ATOM      7  H   UNL     1       7.993   0.892  23.338  0.00  0.00    +0.210 HD
ENDBRANCH   2   6
ENDBRANCH   1   2
BRANCH   1   8
ATOM      8  C   UNL     1       9.359  -0.651  21.917  0.00  0.00    +0.337 C 
ATOM      9  O   UNL     1       8.230  -0.962  22.280  0.00  0.00    -0.248 OA
BRANCH   8  10
ATOM     10  O   UNL     1      10.246  -1.545  21.430  0.00  0.00    -0.479 OA
ATOM     11  H   UNL     1       9.962  -1.880  20.543  0.00  0.00    +0.295 HD
ENDBRANCH   8  10
ENDBRANCH   1   8
BRANCH   1  12
ATOM     12  O   UNL     1       9.039   1.612  21.049  0.00  0.00    -0.378 OA
ATOM     13  H   UNL     1       9.603   1.835  20.278  0.00  0.00    +0.211 HD
ENDBRANCH   1  12
TORSDOF 6
ENDMDL
MODEL 2
REMARK VINA RESULT:      -4.0      4.767      6.352
REMARK  Name = 
REMARK  8 active torsions:
REMARK  status: ('A' for Active; 'I' for Inactive)
REMARK    1  A    between atoms: C_1  and  C_2
REMARK    2  A    between atoms: C_2  and  C_3
REMARK    3  A    between atoms: C_3  and  C_4
REMARK    4  A    between atoms: C_3  and  O_5
REMARK    5  A    between atoms: C_3  and  C_6
REMARK    6  A    between atoms: C_6  and  O_8
REMARK    7  A    between atoms: C_6  and  C_9
REMARK    8  A    between atoms: C_9  and  O_10
REMARK                            x       y       z     vdW  Elec       q    Type
REMARK                         _______ _______ _______ _____ _____    ______ ____
ROOT
ATOM      1  C   UNL     1       9.134  -4.689  24.915  0.00  0.00    +0.254 C 
ENDROOT
BRANCH   1   2
ATOM      2  C   UNL     1       7.978  -4.265  23.971  0.00  0.00    +0.099 C 
ATOM      3  C   UNL     1       7.637  -5.389  22.981  0.00  0.00    +0.044 C 
BRANCH   2   5
ATOM      4  C   UNL     1       9.627  -2.311  23.578  0.00  0.00    +0.007 C 
ATOM      5  C   UNL     1       8.325  -2.988  23.167  0.00  0.00    +0.034 C 
ENDBRANCH   2   5
BRANCH   2   6
ATOM      6  O   UNL     1       6.807  -4.001  24.771  0.00  0.00    -0.386 OA
ATOM      7  H   UNL     1       6.975  -4.389  25.654  0.00  0.00    +0.210 HD
ENDBRANCH   2   6
ENDBRANCH   1   2
BRANCH   1   8
ATOM      8  C   UNL     1       8.706  -4.696  26.390  0.00  0.00    +0.337 C 
ATOM      9  O   UNL     1       8.723  -3.684  27.082  0.00  0.00    -0.248 OA
BRANCH   8  10
ATOM     10  O   UNL     1       8.248  -5.884  26.839  0.00  0.00    -0.479 OA
ATOM     11  H   UNL     1       7.956  -6.460  26.089  0.00  0.00    +0.295 HD
ENDBRANCH   8  10
ENDBRANCH   1   8
BRANCH   1  12
ATOM     12  O   UNL     1       9.648  -5.966  24.526  0.00  0.00    -0.378 OA
ATOM     13  H   UNL     1      10.337  -6.194  25.187  0.00  0.00    +0.211 HD
ENDBRANCH   1  12
TORSDOF 6
ENDMDL
MODEL 3
REMARK VINA RESULT:      -4.0      1.610      3.244
REMARK  Name = 
REMARK  8 active torsions:
REMARK  status: ('A' for Active; 'I' for Inactive)
REMARK    1  A    between atoms: C_1  and  C_2
REMARK    2  A    between atoms: C_2  and  C_3
REMARK    3  A    between atoms: C_3  and  C_4
REMARK    4  A    between atoms: C_3  and  O_5
REMARK    5  A    between atoms: C_3  and  C_6
REMARK    6  A    between atoms: C_6  and  O_8
REMARK    7  A    between atoms: C_6  and  C_9
REMARK    8  A    between atoms: C_9  and  O_10
REMARK                            x       y       z     vdW  Elec       q    Type
REMARK                         _______ _______ _______ _____ _____    ______ ____
ROOT
ATOM      1  C   UNL     1       9.274   0.493  22.963  0.00  0.00    +0.254 C 
ENDROOT
BRANCH   1   2
ATOM      2  C   UNL     1       9.248  -0.938  22.364  0.00  0.00    +0.099 C 
ATOM      3  C   UNL     1       7.864  -1.582  22.543  0.00  0.00    +0.044 C 
BRANCH   2   5
ATOM      4  C   UNL     1       9.764  -2.799  24.085  0.00  0.00    +0.007 C 
ATOM      5  C   UNL     1      10.308  -1.859  23.015  0.00  0.00    +0.034 C 
ENDBRANCH   2   5
BRANCH   2   6
ATOM      6  O   UNL     1       9.521  -0.848  20.951  0.00  0.00    -0.386 OA
ATOM      7  H   UNL     1      10.219  -0.170  20.841  0.00  0.00    +0.210 HD
ENDBRANCH   2   6
ENDBRANCH   1   2
BRANCH   1   8
ATOM      8  C   UNL     1       9.102   1.575  21.887  0.00  0.00    +0.337 C 
ATOM      9  O   UNL     1       8.008   1.861  21.414  0.00  0.00    -0.248 OA
BRANCH   8  10
ATOM     10  O   UNL     1      10.237   2.228  21.557  0.00  0.00    -0.479 OA
ATOM     11  H   UNL     1      10.352   3.043  22.107  0.00  0.00    +0.295 HD
ENDBRANCH   8  10
ENDBRANCH   1   8
BRANCH   1  12
ATOM     12  O   UNL     1       8.278   0.623  23.982  0.00  0.00    -0.378 OA
ATOM     13  H   UNL     1       8.682   0.269  24.803  0.00  0.00    +0.211 HD
ENDBRANCH   1  12
TORSDOF 6
ENDMDL
MODEL 4
REMARK VINA RESULT:      -3.9      2.107      3.989
REMARK  Name = 
REMARK  8 active torsions:
REMARK  status: ('A' for Active; 'I' for Inactive)
REMARK    1  A    between atoms: C_1  and  C_2
REMARK    2  A    between atoms: C_2  and  C_3
REMARK    3  A    between atoms: C_3  and  C_4
REMARK    4  A    between atoms: C_3  and  O_5
REMARK    5  A    between atoms: C_3  and  C_6
REMARK    6  A    between atoms: C_6  and  O_8
REMARK    7  A    between atoms: C_6  and  C_9
REMARK    8  A    between atoms: C_9  and  O_10
REMARK                            x       y       z     vdW  Elec       q    Type
REMARK                         _______ _______ _______ _____ _____    ______ ____
ROOT
ATOM      1  C   UNL     1      10.164   2.210  23.882  0.00  0.00    +0.254 C 
ENDROOT
BRANCH   1   2
ATOM      2  C   UNL     1       9.585   1.453  22.658  0.00  0.00    +0.099 C 
ATOM      3  C   UNL     1       8.050   1.421  22.708  0.00  0.00    +0.044 C 
BRANCH   2   5
ATOM      4  C   UNL     1       9.405  -0.873  21.540  0.00  0.00    +0.007 C 
ATOM      5  C   UNL     1      10.106  -0.003  22.577  0.00  0.00    +0.034 C 
ENDBRANCH   2   5
BRANCH   2   6
ATOM      6  O   UNL     1       9.980   2.151  21.459  0.00  0.00    -0.386 OA
ATOM      7  H   UNL     1       9.436   1.788  20.729  0.00  0.00    +0.210 HD
ENDBRANCH   2   6
ENDBRANCH   1   2
BRANCH   1   8
ATOM      8  C   UNL     1      10.631   3.628  23.519  0.00  0.00    +0.337 C 
ATOM      9  O   UNL     1      11.815   3.907  23.362  0.00  0.00    -0.248 OA
BRANCH   8  10
ATOM     10  O   UNL     1       9.635   4.518  23.323  0.00  0.00    -0.479 OA
ATOM     11  H   UNL     1       8.948   4.154  22.712  0.00  0.00    +0.295 HD
ENDBRANCH   8  10
ENDBRANCH   1   8
BRANCH   1  12
ATOM     12  O   UNL     1       9.205   2.245  24.943  0.00  0.00    -0.378 OA
ATOM     13  H   UNL     1       9.722   2.289  25.775  0.00  0.00    +0.211 HD
ENDBRANCH   1  12
TORSDOF 6
ENDMDL
MODEL 5
REMARK VINA RESULT:      -3.9      1.884      3.278
REMARK  Name = 
REMARK  8 active torsions:
REMARK  status: ('A' for Active; 'I' for Inactive)
REMARK    1  A    between atoms: C_1  and  C_2
REMARK    2  A    between atoms: C_2  and  C_3
REMARK    3  A    between atoms: C_3  and  C_4
REMARK    4  A    between atoms: C_3  and  O_5
REMARK    5  A    between atoms: C_3  and  C_6
REMARK    6  A    between atoms: C_6  and  O_8
REMARK    7  A    between atoms: C_6  and  C_9
REMARK    8  A    between atoms: C_9  and  O_10
REMARK                            x       y       z     vdW  Elec       q    Type
REMARK                         _______ _______ _______ _____ _____    ______ ____
ROOT
ATOM      1  C   UNL     1       8.394  -1.301  23.116  0.00  0.00    +0.254 C 
ENDROOT
BRANCH   1   2
ATOM      2  C   UNL     1       9.684  -0.674  22.525  0.00  0.00    +0.099 C 
ATOM      3  C   UNL     1      10.604  -0.155  23.641  0.00  0.00    +0.044 C 
BRANCH   2   5
ATOM      4  C   UNL     1       9.944   1.843  21.986  0.00  0.00    +0.007 C 
ATOM      5  C   UNL     1       9.371   0.496  21.560  0.00  0.00    +0.034 C 
ENDBRANCH   2   5
BRANCH   2   6
ATOM      6  O   UNL     1      10.397  -1.694  21.796  0.00  0.00    -0.386 OA
ATOM      7  H   UNL     1      11.291  -1.751  22.191  0.00  0.00    +0.210 HD
ENDBRANCH   2   6
ENDBRANCH   1   2
BRANCH   1   8
ATOM      8  C   UNL     1       8.405  -2.835  23.036  0.00  0.00    +0.337 C 
ATOM      9  O   UNL     1       7.709  -3.454  22.238  0.00  0.00    -0.248 OA
BRANCH   8  10
ATOM     10  O   UNL     1       9.287  -3.438  23.862  0.00  0.00    -0.479 OA
ATOM     11  H   UNL     1      10.217  -3.290  23.558  0.00  0.00    +0.295 HD
ENDBRANCH   8  10
ENDBRANCH   1   8
BRANCH   1  12
ATOM     12  O   UNL     1       8.202  -0.862  24.465  0.00  0.00    -0.378 OA
ATOM     13  H   UNL     1       7.746  -1.598  24.927  0.00  0.00    +0.211 HD
ENDBRANCH   1  12
TORSDOF 6
ENDMDL
MODEL 6
REMARK VINA RESULT:      -3.9      1.907      3.417
REMARK  Name = 
REMARK  8 active torsions:
REMARK  status: ('A' for Active; 'I' for Inactive)
REMARK    1  A    between atoms: C_1  and  C_2
REMARK    2  A    between atoms: C_2  and  C_3
REMARK    3  A    between atoms: C_3  and  C_4
REMARK    4  A    between atoms: C_3  and  O_5
REMARK    5  A    between atoms: C_3  and  C_6
REMARK    6  A    between atoms: C_6  and  O_8
REMARK    7  A    between atoms: C_6  and  C_9
REMARK    8  A    between atoms: C_9  and  O_10
REMARK                            x       y       z     vdW  Elec       q    Type
REMARK                         _______ _______ _______ _____ _____    ______ ____
ROOT
ATOM      1  C   UNL     1       8.364   1.890  22.983  0.00  0.00    +0.254 C 
ENDROOT
BRANCH   1   2
ATOM      2  C   UNL     1       9.677   1.296  22.407  0.00  0.00    +0.099 C 
ATOM      3  C   UNL     1       9.379   0.127  21.455  0.00  0.00    +0.044 C 
BRANCH   2   5
ATOM      4  C   UNL     1       9.929   0.411  24.825  0.00  0.00    +0.007 C 
ATOM      5  C   UNL     1      10.625   0.793  23.524  0.00  0.00    +0.034 C 
ENDBRANCH   2   5
BRANCH   2   6
ATOM      6  O   UNL     1      10.354   2.324  21.656  0.00  0.00    -0.386 OA
ATOM      7  H   UNL     1       9.780   3.117  21.682  0.00  0.00    +0.210 HD
ENDBRANCH   2   6
ENDBRANCH   1   2
BRANCH   1   8
ATOM      8  C   UNL     1       8.424   3.420  23.102  0.00  0.00    +0.337 C 
ATOM      9  O   UNL     1       9.001   3.983  24.026  0.00  0.00    -0.248 OA
BRANCH   8  10
ATOM     10  O   UNL     1       7.850   4.089  22.079  0.00  0.00    -0.479 OA
ATOM     11  H   UNL     1       6.872   3.937  22.059  0.00  0.00    +0.295 HD
ENDBRANCH   8  10
ENDBRANCH   1   8
BRANCH   1  12
ATOM     12  O   UNL     1       7.246   1.482  22.190  0.00  0.00    -0.378 OA
ATOM     13  H   UNL     1       7.467   1.722  21.264  0.00  0.00    +0.211 HD
ENDBRANCH   1  12
TORSDOF 6
ENDMDL
MODEL 7
REMARK VINA RESULT:      -3.9      1.629      2.509
REMARK  Name = 
REMARK  8 active torsions:
REMARK  status: ('A' for Active; 'I' for Inactive)
REMARK    1  A    between atoms: C_1  and  C_2
REMARK    2  A    between atoms: C_2  and  C_3
REMARK    3  A    between atoms: C_3  and  C_4
REMARK    4  A    between atoms: C_3  and  O_5
REMARK    5  A    between atoms: C_3  and  C_6
REMARK    6  A    between atoms: C_6  and  O_8
REMARK    7  A    between atoms: C_6  and  C_9
REMARK    8  A    between atoms: C_9  and  O_10
REMARK                            x       y       z     vdW  Elec       q    Type
REMARK                         _______ _______ _______ _____ _____    ______ ____
ROOT
ATOM      1  C   UNL     1      10.178  -1.349  22.868  0.00  0.00    +0.254 C 
ENDROOT
BRANCH   1   2
ATOM      2  C   UNL     1       9.661   0.100  23.073  0.00  0.00    +0.099 C 
ATOM      3  C   UNL     1       9.528   0.830  21.728  0.00  0.00    +0.044 C 
BRANCH   2   5
ATOM      4  C   UNL     1      10.628   2.418  23.690  0.00  0.00    +0.007 C 
ATOM      5  C   UNL     1      10.596   0.924  23.991  0.00  0.00    +0.034 C 
ENDBRANCH   2   5
BRANCH   2   6
ATOM      6  O   UNL     1       8.355   0.039  23.681  0.00  0.00    -0.386 OA
ATOM      7  H   UNL     1       7.702   0.085  22.952  0.00  0.00    +0.210 HD
ENDBRANCH   2   6
ENDBRANCH   1   2
BRANCH   1   8
ATOM      8  C   UNL     1       9.250  -2.391  23.510  0.00  0.00    +0.337 C 
ATOM      9  O   UNL     1       9.352  -2.722  24.687  0.00  0.00    -0.248 OA
BRANCH   8  10
ATOM     10  O   UNL     1       8.279  -2.860  22.698  0.00  0.00    -0.479 OA
ATOM     11  H   UNL     1       7.866  -2.126  22.178  0.00  0.00    +0.295 HD
ENDBRANCH   8  10
ENDBRANCH   1   8
BRANCH   1  12
ATOM     12  O   UNL     1      10.361  -1.618  21.475  0.00  0.00    -0.378 OA
ATOM     13  H   UNL     1      10.418  -0.743  21.035  0.00  0.00    +0.211 HD
ENDBRANCH   1  12
TORSDOF 6
ENDMDL
MODEL 8
REMARK VINA RESULT:      -3.9      4.973      6.420
REMARK  Name = 
REMARK  8 active torsions:
REMARK  status: ('A' for Active; 'I' for Inactive)
REMARK    1  A    between atoms: C_1  and  C_2
REMARK    2  A    between atoms: C_2  and  C_3
REMARK    3  A    between atoms: C_3  and  C_4
REMARK    4  A    between atoms: C_3  and  O_5
REMARK    5  A    between atoms: C_3  and  C_6
REMARK    6  A    between atoms: C_6  and  O_8
REMARK    7  A    between atoms: C_6  and  C_9
REMARK    8  A    between atoms: C_9  and  O_10
REMARK                            x       y       z     vdW  Elec       q    Type
REMARK                         _______ _______ _______ _____ _____    ______ ____
ROOT
ATOM      1  C   UNL     1       7.780  -3.889  25.636  0.00  0.00    +0.254 C 
ENDROOT
BRANCH   1   2
ATOM      2  C   UNL     1       8.459  -4.088  24.256  0.00  0.00    +0.099 C 
ATOM      3  C   UNL     1       9.467  -2.963  23.972  0.00  0.00    +0.044 C 
BRANCH   2   5
ATOM      4  C   UNL     1       7.285  -5.486  22.423  0.00  0.00    +0.007 C 
ATOM      5  C   UNL     1       7.428  -4.129  23.102  0.00  0.00    +0.034 C 
ENDBRANCH   2   5
BRANCH   2   6
ATOM      6  O   UNL     1       9.178  -5.339  24.275  0.00  0.00    -0.386 OA
ATOM      7  H   UNL     1       9.309  -5.574  25.217  0.00  0.00    +0.210 HD
ENDBRANCH   2   6
ENDBRANCH   1   2
BRANCH   1   8
ATOM      8  C   UNL     1       8.189  -4.971  26.646  0.00  0.00    +0.337 C 
ATOM      9  O   UNL     1       7.450  -5.904  26.943  0.00  0.00    -0.248 OA
BRANCH   8  10
ATOM     10  O   UNL     1       9.446  -4.850  27.125  0.00  0.00    -0.479 OA
ATOM     11  H   UNL     1      10.109  -4.854  26.391  0.00  0.00    +0.295 HD
ENDBRANCH   8  10
ENDBRANCH   1   8
BRANCH   1  12
ATOM     12  O   UNL     1       8.064  -2.582  26.145  0.00  0.00    -0.378 OA
ATOM     13  H   UNL     1       8.429  -2.071  25.391  0.00  0.00    +0.211 HD
ENDBRANCH   1  12
TORSDOF 6
ENDMDL
MODEL 9
REMARK VINA RESULT:      -3.8      1.881      3.450
REMARK  Name = 
REMARK  8 active torsions:
REMARK  status: ('A' for Active; 'I' for Inactive)
REMARK    1  A    between atoms: C_1  and  C_2
REMARK    2  A    between atoms: C_2  and  C_3
REMARK    3  A    between atoms: C_3  and  C_4
REMARK    4  A    between atoms: C_3  and  O_5
REMARK    5  A    between atoms: C_3  and  C_6
REMARK    6  A    between atoms: C_6  and  O_8
REMARK    7  A    between atoms: C_6  and  C_9
REMARK    8  A    between atoms: C_9  and  O_10
REMARK                            x       y       z     vdW  Elec       q    Type
REMARK                         _______ _______ _______ _____ _____    ______ ____
ROOT
ATOM      1  C   UNL     1       9.145  -0.821  21.808  0.00  0.00    +0.254 C 
ENDROOT
BRANCH   1   2
ATOM      2  C   UNL     1       8.631  -1.268  23.203  0.00  0.00    +0.099 C 
ATOM      3  C   UNL     1       9.682  -2.127  23.925  0.00  0.00    +0.044 C 
BRANCH   2   5
ATOM      4  C   UNL     1       7.469  -3.470  22.500  0.00  0.00    +0.007 C 
ATOM      5  C   UNL     1       7.316  -2.079  23.104  0.00  0.00    +0.034 C 
ENDBRANCH   2   5
BRANCH   2   6
ATOM      6  O   UNL     1       8.389  -0.092  24.001  0.00  0.00    -0.386 OA
ATOM      7  H   UNL     1       8.327   0.663  23.379  0.00  0.00    +0.210 HD
ENDBRANCH   2   6
ENDBRANCH   1   2
BRANCH   1   8
ATOM      8  C   UNL     1       9.440   0.685  21.755  0.00  0.00    +0.337 C 
ATOM      9  O   UNL     1      10.301   1.209  22.454  0.00  0.00    -0.248 OA
BRANCH   8  10
ATOM     10  O   UNL     1       8.728   1.368  20.833  0.00  0.00    -0.479 OA
ATOM     11  H   UNL     1       9.223   2.166  20.522  0.00  0.00    +0.295 HD
ENDBRANCH   8  10
ENDBRANCH   1   8
BRANCH   1  12
ATOM     12  O   UNL     1      10.298  -1.582  21.437  0.00  0.00    -0.378 OA
ATOM     13  H   UNL     1       9.963  -2.356  20.935  0.00  0.00    +0.211 HD
ENDBRANCH   1  12
TORSDOF 6
ENDMDL
