MODEL 1
REMARK VINA RESULT:      -3.7      0.000      0.000
REMARK  Name = 
REMARK  6 active torsions:
REMARK  status: ('A' for Active; 'I' for Inactive)
REMARK    1  A    between atoms: C_1  and  C_2
REMARK    2  A    between atoms: C_2  and  C_3
REMARK    3  A    between atoms: C_3  and  C_4
REMARK    4  A    between atoms: C_4  and  CA_5
REMARK    5  A    between atoms: CA_5  and  N_7
REMARK    6  A    between atoms: CA_5  and  C_8
REMARK                            x       y       z     vdW  Elec       q    Type
REMARK                         _______ _______ _______ _____ _____    ______ ____
ROOT
ATOM      1  CA  UNL     1       8.805  -5.367  25.292  0.00  0.00    +0.114 C 
ENDROOT
BRANCH   1   2
ATOM      2  N   UNL     1      10.269  -5.462  25.388  0.00  0.00    -0.322 NA
ATOM      3  H1  UNL     1      10.671  -4.606  24.997  0.00  0.00    +0.119 HD
ATOM      4  H2  UNL     1      10.543  -5.462  26.370  0.00  0.00    +0.119 HD
ENDBRANCH   1   2
BRANCH   1   5
ATOM      5  C   UNL     1       8.274  -4.894  26.640  0.00  0.00    +0.241 C 
ATOM      6  O   UNL     1       7.688  -5.635  27.427  0.00  0.00    -0.299 OA
ENDBRANCH   1   5
BRANCH   1   7
ATOM      7  C   UNL     1       8.362  -4.396  24.188  0.00  0.00    +0.026 C 
BRANCH   7   8
ATOM      8  C   UNL     1       7.081  -4.840  23.473  0.00  0.00    +0.002 C 
BRANCH   8  10
ATOM      9  C   UNL     1       6.268  -5.800  21.295  0.00  0.00    +0.004 C 
ATOM     10  C   UNL     1       7.382  -5.810  22.330  0.00  0.00    -0.003 C 
ENDBRANCH   8  10
ENDBRANCH   7   8
ENDBRANCH   1   7
TORSDOF 5
ENDMDL
MODEL 2
REMARK VINA RESULT:      -3.6      5.265      6.246
REMARK  Name = 
REMARK  6 active torsions:
REMARK  status: ('A' for Active; 'I' for Inactive)
REMARK    1  A    between atoms: C_1  and  C_2
REMARK    2  A    between atoms: C_2  and  C_3
REMARK    3  A    between atoms: C_3  and  C_4
REMARK    4  A    between atoms: C_4  and  CA_5
REMARK    5  A    between atoms: CA_5  and  N_7
REMARK    6  A    between atoms: CA_5  and  C_8
REMARK                            x       y       z     vdW  Elec       q    Type
REMARK                         _______ _______ _______ _____ _____    ______ ____
ROOT
ATOM      1  CA  UNL     1       9.049  -1.443  22.424  0.00  0.00    +0.114 C 
ENDROOT
BRANCH   1   2
ATOM      2  N   UNL     1      10.201  -1.611  21.524  0.00  0.00    -0.322 NA
ATOM      3  H1  UNL     1       9.957  -2.316  20.823  0.00  0.00    +0.119 HD
ATOM      4  H2  UNL     1      10.345  -0.749  20.998  0.00  0.00    +0.119 HD
ENDBRANCH   1   2
BRANCH   1   5
ATOM      5  C   UNL     1       9.397  -2.091  23.759  0.00  0.00    +0.241 C 
ATOM      6  O   UNL     1      10.192  -3.023  23.865  0.00  0.00    -0.299 OA
ENDBRANCH   1   5
BRANCH   1   7
ATOM      7  C   UNL     1       8.696   0.036  22.638  0.00  0.00    +0.026 C 
BRANCH   7   8
ATOM      8  C   UNL     1       9.503   0.984  21.745  0.00  0.00    +0.002 C 
BRANCH   8  10
ATOM      9  C   UNL     1      10.552   1.609  23.944  0.00  0.00    +0.004 C 
ATOM     10  C   UNL     1      10.161   2.098  22.557  0.00  0.00    -0.003 C 
ENDBRANCH   8  10
ENDBRANCH   7   8
ENDBRANCH   1   7
TORSDOF 5
ENDMDL
MODEL 3
REMARK VINA RESULT:      -3.4      1.760      3.047
REMARK  Name = 
REMARK  6 active torsions:
REMARK  status: ('A' for Active; 'I' for Inactive)
REMARK    1  A    between atoms: C_1  and  C_2
REMARK    2  A    between atoms: C_2  and  C_3
REMARK    3  A    between atoms: C_3  and  C_4
REMARK    4  A    between atoms: C_4  and  CA_5
REMARK    5  A    between atoms: CA_5  and  N_7
REMARK    6  A    between atoms: CA_5  and  C_8
REMARK                            x       y       z     vdW  Elec       q    Type
REMARK                         _______ _______ _______ _____ _____    ______ ____
ROOT
ATOM      1  CA  UNL     1       8.878  -5.283  25.359  0.00  0.00    +0.114 C 
ENDROOT
BRANCH   1   2
ATOM      2  N   UNL     1      10.331  -5.514  25.390  0.00  0.00    -0.322 NA
ATOM      3  H1  UNL     1      10.494  -6.523  25.337  0.00  0.00    +0.119 HD
ATOM      4  H2  UNL     1      10.751  -5.130  24.544  0.00  0.00    +0.119 HD
ENDBRANCH   1   2
BRANCH   1   5
ATOM      5  C   UNL     1       8.482  -4.608  26.667  0.00  0.00    +0.241 C 
ATOM      6  O   UNL     1       7.668  -5.092  27.452  0.00  0.00    -0.299 OA
ENDBRANCH   1   5
BRANCH   1   7
ATOM      7  C   UNL     1       8.460  -4.406  24.171  0.00  0.00    +0.026 C 
BRANCH   7   8
ATOM      8  C   UNL     1       8.607  -2.906  24.448  0.00  0.00    +0.002 C 
BRANCH   8  10
ATOM      9  C   UNL     1      10.023  -0.855  24.108  0.00  0.00    +0.004 C 
ATOM     10  C   UNL     1       9.854  -2.331  23.777  0.00  0.00    -0.003 C 
ENDBRANCH   8  10
ENDBRANCH   7   8
ENDBRANCH   1   7
TORSDOF 5
ENDMDL
MODEL 4
REMARK VINA RESULT:      -3.4      6.201      7.292
REMARK  Name = 
REMARK  6 active torsions:
REMARK  status: ('A' for Active; 'I' for Inactive)
REMARK    1  A    between atoms: C_1  and  C_2
REMARK    2  A    between atoms: C_2  and  C_3
REMARK    3  A    between atoms: C_3  and  C_4
REMARK    4  A    between atoms: C_4  and  CA_5
REMARK    5  A    between atoms: CA_5  and  N_7
REMARK    6  A    between atoms: CA_5  and  C_8
REMARK                            x       y       z     vdW  Elec       q    Type
REMARK                         _______ _______ _______ _____ _____    ______ ____
ROOT
ATOM      1  CA  UNL     1       9.043   1.276  21.872  0.00  0.00    +0.114 C 
ENDROOT
BRANCH   1   2
ATOM      2  N   UNL     1      10.150   2.199  21.581  0.00  0.00    -0.322 NA
ATOM      3  H1  UNL     1      10.118   2.961  22.264  0.00  0.00    +0.119 HD
ATOM      4  H2  UNL     1      11.037   1.725  21.750  0.00  0.00    +0.119 HD
ENDBRANCH   1   2
BRANCH   1   5
ATOM      5  C   UNL     1       9.457  -0.116  21.411  0.00  0.00    +0.241 C 
ATOM      6  O   UNL     1       8.940  -1.146  21.838  0.00  0.00    -0.299 OA
ENDBRANCH   1   5
BRANCH   1   7
ATOM      7  C   UNL     1       8.693   1.249  23.366  0.00  0.00    +0.026 C 
BRANCH   7   8
ATOM      8  C   UNL     1       9.877   1.612  24.269  0.00  0.00    +0.002 C 
BRANCH   8  10
ATOM      9  C   UNL     1       9.405  -0.565  25.439  0.00  0.00    +0.004 C 
ATOM     10  C   UNL     1      10.487   0.372  24.923  0.00  0.00    -0.003 C 
ENDBRANCH   8  10
ENDBRANCH   7   8
ENDBRANCH   1   7
TORSDOF 5
ENDMDL
MODEL 5
REMARK VINA RESULT:      -3.3      5.669      6.363
REMARK  Name = 
REMARK  6 active torsions:
REMARK  status: ('A' for Active; 'I' for Inactive)
REMARK    1  A    between atoms: C_1  and  C_2
REMARK    2  A    between atoms: C_2  and  C_3
REMARK    3  A    between atoms: C_3  and  C_4
REMARK    4  A    between atoms: C_4  and  CA_5
REMARK    5  A    between atoms: CA_5  and  N_7
REMARK    6  A    between atoms: CA_5  and  C_8
REMARK                            x       y       z     vdW  Elec       q    Type
REMARK                         _______ _______ _______ _____ _____    ______ ____
ROOT
ATOM      1  CA  UNL     1      10.081   0.974  22.316  0.00  0.00    +0.114 C 
ENDROOT
BRANCH   1   2
ATOM      2  N   UNL     1       9.686   2.130  21.497  0.00  0.00    -0.322 NA
ATOM      3  H1  UNL     1      10.271   2.926  21.765  0.00  0.00    +0.119 HD
ATOM      4  H2  UNL     1       9.916   1.946  20.521  0.00  0.00    +0.119 HD
ENDBRANCH   1   2
BRANCH   1   5
ATOM      5  C   UNL     1      10.286   1.460  23.747  0.00  0.00    +0.241 C 
ATOM      6  O   UNL     1      11.123   0.976  24.506  0.00  0.00    -0.299 OA
ENDBRANCH   1   5
BRANCH   1   7
ATOM      7  C   UNL     1       9.024  -0.139  22.290  0.00  0.00    +0.026 C 
BRANCH   7   8
ATOM      8  C   UNL     1       9.624  -1.534  22.083  0.00  0.00    +0.002 C 
BRANCH   8  10
ATOM      9  C   UNL     1       8.855  -3.098  23.897  0.00  0.00    +0.004 C 
ATOM     10  C   UNL     1       9.980  -2.195  23.414  0.00  0.00    -0.003 C 
ENDBRANCH   8  10
ENDBRANCH   7   8
ENDBRANCH   1   7
TORSDOF 5
ENDMDL
MODEL 6
REMARK VINA RESULT:      -3.3      2.850      3.072
REMARK  Name = 
REMARK  6 active torsions:
REMARK  status: ('A' for Active; 'I' for Inactive)
REMARK    1  A    between atoms: C_1  and  C_2
REMARK    2  A    between atoms: C_2  and  C_3
REMARK    3  A    between atoms: C_3  and  C_4
REMARK    4  A    between atoms: C_4  and  CA_5
REMARK    5  A    between atoms: CA_5  and  N_7
REMARK    6  A    between atoms: CA_5  and  C_8
REMARK                            x       y       z     vdW  Elec       q    Type
REMARK                         _______ _______ _______ _____ _____    ______ ____
ROOT
ATOM      1  CA  UNL     1       8.998  -3.161  24.152  0.00  0.00    +0.114 C 
ENDROOT
BRANCH   1   2
ATOM      2  N   UNL     1       9.737  -4.319  24.677  0.00  0.00    -0.322 NA
ATOM      3  H1  UNL     1      10.434  -4.595  23.981  0.00  0.00    +0.119 HD
ATOM      4  H2  UNL     1      10.274  -4.033  25.495  0.00  0.00    +0.119 HD
ENDBRANCH   1   2
BRANCH   1   5
ATOM      5  C   UNL     1      10.006  -2.203  23.528  0.00  0.00    +0.241 C 
ATOM      6  O   UNL     1      10.059  -1.979  22.320  0.00  0.00    -0.299 OA
ENDBRANCH   1   5
BRANCH   1   7
ATOM      7  C   UNL     1       7.951  -3.571  23.107  0.00  0.00    +0.026 C 
BRANCH   7   8
ATOM      8  C   UNL     1       7.347  -4.955  23.369  0.00  0.00    +0.002 C 
BRANCH   8  10
ATOM      9  C   UNL     1       6.061  -5.814  21.385  0.00  0.00    +0.004 C 
ATOM     10  C   UNL     1       7.393  -5.834  22.120  0.00  0.00    -0.003 C 
ENDBRANCH   8  10
ENDBRANCH   7   8
ENDBRANCH   1   7
TORSDOF 5
ENDMDL
MODEL 7
REMARK VINA RESULT:      -3.3      5.144      5.825
REMARK  Name = 
REMARK  6 active torsions:
REMARK  status: ('A' for Active; 'I' for Inactive)
REMARK    1  A    between atoms: C_1  and  C_2
REMARK    2  A    between atoms: C_2  and  C_3
REMARK    3  A    between atoms: C_3  and  C_4
REMARK    4  A    between atoms: C_4  and  CA_5
REMARK    5  A    between atoms: CA_5  and  N_7
REMARK    6  A    between atoms: CA_5  and  C_8
REMARK                            x       y       z     vdW  Elec       q    Type
REMARK                         _______ _______ _______ _____ _____    ______ ____
ROOT
ATOM      1  CA  UNL     1       9.687  -1.002  24.369  0.00  0.00    +0.114 C 
ENDROOT
BRANCH   1   2
ATOM      2  N   UNL     1       8.325  -0.491  24.585  0.00  0.00    -0.322 NA
ATOM      3  H1  UNL     1       8.353   0.170  25.366  0.00  0.00    +0.119 HD
ATOM      4  H2  UNL     1       8.040   0.062  23.777  0.00  0.00    +0.119 HD
ENDBRANCH   1   2
BRANCH   1   5
ATOM      5  C   UNL     1       9.577  -2.355  23.676  0.00  0.00    +0.241 C 
ATOM      6  O   UNL     1      10.144  -3.367  24.086  0.00  0.00    -0.299 OA
ENDBRANCH   1   5
BRANCH   1   7
ATOM      7  C   UNL     1      10.533  -0.046  23.515  0.00  0.00    +0.026 C 
BRANCH   7   8
ATOM      8  C   UNL     1       9.970   0.160  22.105  0.00  0.00    +0.002 C 
BRANCH   8  10
ATOM      9  C   UNL     1       8.170   1.850  21.626  0.00  0.00    +0.004 C 
ATOM     10  C   UNL     1       9.661   1.632  21.833  0.00  0.00    -0.003 C 
ENDBRANCH   8  10
ENDBRANCH   7   8
ENDBRANCH   1   7
TORSDOF 5
ENDMDL
MODEL 8
REMARK VINA RESULT:      -3.3      6.174      6.851
REMARK  Name = 
REMARK  6 active torsions:
REMARK  status: ('A' for Active; 'I' for Inactive)
REMARK    1  A    between atoms: C_1  and  C_2
REMARK    2  A    between atoms: C_2  and  C_3
REMARK    3  A    between atoms: C_3  and  C_4
REMARK    4  A    between atoms: C_4  and  CA_5
REMARK    5  A    between atoms: CA_5  and  N_7
REMARK    6  A    between atoms: CA_5  and  C_8
REMARK                            x       y       z     vdW  Elec       q    Type
REMARK                         _______ _______ _______ _____ _____    ______ ____
ROOT
ATOM      1  CA  UNL     1      10.664   0.259  23.776  0.00  0.00    +0.114 C 
ENDROOT
BRANCH   1   2
ATOM      2  N   UNL     1      10.289   0.306  25.198  0.00  0.00    -0.322 NA
ATOM      3  H1  UNL     1      11.105   0.615  25.732  0.00  0.00    +0.119 HD
ATOM      4  H2  UNL     1       9.587   1.032  25.337  0.00  0.00    +0.119 HD
ENDBRANCH   1   2
BRANCH   1   5
ATOM      5  C   UNL     1      10.027  -0.983  23.162  0.00  0.00    +0.241 C 
ATOM      6  O   UNL     1      10.674  -1.852  22.582  0.00  0.00    -0.299 OA
ENDBRANCH   1   5
BRANCH   1   7
ATOM      7  C   UNL     1      10.204   1.511  23.017  0.00  0.00    +0.026 C 
BRANCH   7   8
ATOM      8  C   UNL     1       9.498   1.189  21.695  0.00  0.00    +0.002 C 
BRANCH   8  10
ATOM      9  C   UNL     1       8.034   3.063  22.516  0.00  0.00    +0.004 C 
ATOM     10  C   UNL     1       8.113   1.831  21.626  0.00  0.00    -0.003 C 
ENDBRANCH   8  10
ENDBRANCH   7   8
ENDBRANCH   1   7
TORSDOF 5
ENDMDL
MODEL 9
REMARK VINA RESULT:      -3.2      5.279      6.420
REMARK  Name = 
REMARK  6 active torsions:
REMARK  status: ('A' for Active; 'I' for Inactive)
REMARK    1  A    between atoms: C_1  and  C_2
REMARK    2  A    between atoms: C_2  and  C_3
REMARK    3  A    between atoms: C_3  and  C_4
REMARK    4  A    between atoms: C_4  and  CA_5
REMARK    5  A    between atoms: CA_5  and  N_7
REMARK    6  A    between atoms: CA_5  and  C_8
REMARK                            x       y       z     vdW  Elec       q    Type
REMARK                         _______ _______ _______ _____ _____    ______ ____
ROOT
ATOM      1  CA  UNL     1      10.190  -1.712  23.478  0.00  0.00    +0.114 C 
ENDROOT
BRANCH   1   2
ATOM      2  N   UNL     1       9.951  -3.093  23.926  0.00  0.00    -0.322 NA
ATOM      3  H1  UNL     1      10.520  -3.718  23.349  0.00  0.00    +0.119 HD
ATOM      4  H2  UNL     1      10.307  -3.206  24.875  0.00  0.00    +0.119 HD
ENDBRANCH   1   2
BRANCH   1   5
ATOM      5  C   UNL     1       9.338  -1.466  22.239  0.00  0.00    +0.241 C 
ATOM      6  O   UNL     1       8.118  -1.316  22.282  0.00  0.00    -0.299 OA
ENDBRANCH   1   5
BRANCH   1   7
ATOM      7  C   UNL     1       9.841  -0.685  24.564  0.00  0.00    +0.026 C 
BRANCH   7   8
ATOM      8  C   UNL     1      10.712   0.574  24.505  0.00  0.00    +0.002 C 
BRANCH   8  10
ATOM      9  C   UNL     1      10.616   2.829  23.394  0.00  0.00    +0.004 C 
ATOM     10  C   UNL     1       9.872   1.828  24.266  0.00  0.00    -0.003 C 
ENDBRANCH   8  10
ENDBRANCH   7   8
ENDBRANCH   1   7
TORSDOF 5
ENDMDL
