MODEL 1
REMARK VINA RESULT:      -3.6      0.000      0.000
REMARK  Name = 
REMARK  7 active torsions:
REMARK  status: ('A' for Active; 'I' for Inactive)
REMARK    1  A    between atoms: C_1  and  C_2
REMARK    2  A    between atoms: C_2  and  C_3
REMARK    3  A    between atoms: C_3  and  C_4
REMARK    4  A    between atoms: C_4  and  C_5
REMARK    5  A    between atoms: C_5  and  C_6
REMARK    6  A    between atoms: C_6  and  O_8
REMARK    7  A    between atoms: C_6  and  C_9
REMARK                            x       y       z     vdW  Elec       q    Type
REMARK                         _______ _______ _______ _____ _____    ______ ____
ROOT
ATOM      1  C   UNL     1       9.365   0.003  21.315  0.00  0.00    +0.035 C 
ENDROOT
BRANCH   1   2
ATOM      2  C   UNL     1       9.584  -1.417  21.853  0.00  0.00    +0.003 C 
BRANCH   2   3
ATOM      3  C   UNL     1       8.265  -2.066  22.285  0.00  0.00    -0.000 C 
BRANCH   3   5
ATOM      4  C   UNL     1       9.621  -2.995  24.203  0.00  0.00    +0.004 C 
ATOM      5  C   UNL     1       8.286  -2.406  23.775  0.00  0.00    -0.003 C 
ENDBRANCH   3   5
ENDBRANCH   2   3
ENDBRANCH   1   2
BRANCH   1   6
ATOM      6  C   UNL     1       9.642   1.120  22.332  0.00  0.00    +0.137 C 
BRANCH   6   7
ATOM      7  C   UNL     1      10.543   0.712  23.462  0.00  0.00    -0.004 C 
ATOM      8  C   UNL     1      10.196   0.739  24.755  0.00  0.00    +0.006 C 
ENDBRANCH   6   7
BRANCH   6   9
ATOM      9  O   UNL     1      10.250   2.224  21.673  0.00  0.00    -0.388 OA
ATOM     10  H   UNL     1       9.773   2.348  20.834  0.00  0.00    +0.210 HD
ENDBRANCH   6   9
ENDBRANCH   1   6
TORSDOF 6
ENDMDL
MODEL 2
REMARK VINA RESULT:      -3.6      1.310      2.546
REMARK  Name = 
REMARK  7 active torsions:
REMARK  status: ('A' for Active; 'I' for Inactive)
REMARK    1  A    between atoms: C_1  and  C_2
REMARK    2  A    between atoms: C_2  and  C_3
REMARK    3  A    between atoms: C_3  and  C_4
REMARK    4  A    between atoms: C_4  and  C_5
REMARK    5  A    between atoms: C_5  and  C_6
REMARK    6  A    between atoms: C_6  and  O_8
REMARK    7  A    between atoms: C_6  and  C_9
REMARK                            x       y       z     vdW  Elec       q    Type
REMARK                         _______ _______ _______ _____ _____    ______ ____
ROOT
ATOM      1  C   UNL     1      10.055   1.536  23.802  0.00  0.00    +0.035 C 
ENDROOT
BRANCH   1   2
ATOM      2  C   UNL     1      10.603   0.364  24.628  0.00  0.00    +0.003 C 
BRANCH   2   3
ATOM      3  C   UNL     1       9.496  -0.323  25.433  0.00  0.00    -0.000 C 
BRANCH   3   5
ATOM      4  C   UNL     1       9.900  -2.196  23.787  0.00  0.00    +0.004 C 
ATOM      5  C   UNL     1       8.870  -1.468  24.636  0.00  0.00    -0.003 C 
ENDBRANCH   3   5
ENDBRANCH   2   3
ENDBRANCH   1   2
BRANCH   1   6
ATOM      6  C   UNL     1      10.025   1.289  22.286  0.00  0.00    +0.137 C 
BRANCH   6   7
ATOM      7  C   UNL     1       8.667   0.940  21.748  0.00  0.00    -0.004 C 
ATOM      8  C   UNL     1       7.511   1.259  22.344  0.00  0.00    +0.006 C 
ENDBRANCH   6   7
BRANCH   6   9
ATOM      9  O   UNL     1      10.473   2.454  21.605  0.00  0.00    -0.388 OA
ATOM     10  H   UNL     1      10.449   3.183  22.250  0.00  0.00    +0.210 HD
ENDBRANCH   6   9
ENDBRANCH   1   6
TORSDOF 6
ENDMDL
MODEL 3
REMARK VINA RESULT:      -3.5      1.715      4.004
REMARK  Name = 
REMARK  7 active torsions:
REMARK  status: ('A' for Active; 'I' for Inactive)
REMARK    1  A    between atoms: C_1  and  C_2
REMARK    2  A    between atoms: C_2  and  C_3
REMARK    3  A    between atoms: C_3  and  C_4
REMARK    4  A    between atoms: C_4  and  C_5
REMARK    5  A    between atoms: C_5  and  C_6
REMARK    6  A    between atoms: C_6  and  O_8
REMARK    7  A    between atoms: C_6  and  C_9
REMARK                            x       y       z     vdW  Elec       q    Type
REMARK                         _______ _______ _______ _____ _____    ______ ____
ROOT
ATOM      1  C   UNL     1       9.756  -0.968  24.172  0.00  0.00    +0.035 C 
ENDROOT
BRANCH   1   2
ATOM      2  C   UNL     1      10.732   0.178  23.880  0.00  0.00    +0.003 C 
BRANCH   2   3
ATOM      3  C   UNL     1       9.992   1.488  23.589  0.00  0.00    -0.000 C 
BRANCH   3   5
ATOM      4  C   UNL     1       8.648   1.451  21.451  0.00  0.00    +0.004 C 
ATOM      5  C   UNL     1       9.985   1.791  22.091  0.00  0.00    -0.003 C 
ENDBRANCH   3   5
ENDBRANCH   2   3
ENDBRANCH   1   2
BRANCH   1   6
ATOM      6  C   UNL     1       9.669  -2.030  23.065  0.00  0.00    +0.137 C 
BRANCH   6   7
ATOM      7  C   UNL     1       8.291  -2.214  22.499  0.00  0.00    -0.004 C 
ATOM      8  C   UNL     1       7.195  -1.595  22.956  0.00  0.00    +0.006 C 
ENDBRANCH   6   7
BRANCH   6   9
ATOM      9  O   UNL     1      10.532  -1.672  21.993  0.00  0.00    -0.388 OA
ATOM     10  H   UNL     1       9.971  -1.283  21.300  0.00  0.00    +0.210 HD
ENDBRANCH   6   9
ENDBRANCH   1   6
TORSDOF 6
ENDMDL
MODEL 4
REMARK VINA RESULT:      -3.5      1.424      2.373
REMARK  Name = 
REMARK  7 active torsions:
REMARK  status: ('A' for Active; 'I' for Inactive)
REMARK    1  A    between atoms: C_1  and  C_2
REMARK    2  A    between atoms: C_2  and  C_3
REMARK    3  A    between atoms: C_3  and  C_4
REMARK    4  A    between atoms: C_4  and  C_5
REMARK    5  A    between atoms: C_5  and  C_6
REMARK    6  A    between atoms: C_6  and  O_8
REMARK    7  A    between atoms: C_6  and  C_9
REMARK                            x       y       z     vdW  Elec       q    Type
REMARK                         _______ _______ _______ _____ _____    ______ ____
ROOT
ATOM      1  C   UNL     1       9.102   0.066  21.494  0.00  0.00    +0.035 C 
ENDROOT
BRANCH   1   2
ATOM      2  C   UNL     1      10.271  -0.464  22.334  0.00  0.00    +0.003 C 
BRANCH   2   3
ATOM      3  C   UNL     1       9.777  -1.220  23.572  0.00  0.00    -0.000 C 
BRANCH   3   5
ATOM      4  C   UNL     1      10.967   0.693  24.714  0.00  0.00    +0.004 C 
ATOM      5  C   UNL     1       9.854  -0.338  24.818  0.00  0.00    -0.003 C 
ENDBRANCH   3   5
ENDBRANCH   2   3
ENDBRANCH   1   2
BRANCH   1   6
ATOM      6  C   UNL     1       8.949   1.595  21.507  0.00  0.00    +0.137 C 
BRANCH   6   7
ATOM      7  C   UNL     1       8.120   2.118  22.645  0.00  0.00    -0.004 C 
ATOM      8  C   UNL     1       8.443   3.183  23.390  0.00  0.00    +0.006 C 
ENDBRANCH   6   7
BRANCH   6   9
ATOM      9  O   UNL     1      10.232   2.202  21.592  0.00  0.00    -0.388 OA
ATOM     10  H   UNL     1      10.357   2.711  20.772  0.00  0.00    +0.210 HD
ENDBRANCH   6   9
ENDBRANCH   1   6
TORSDOF 6
ENDMDL
MODEL 5
REMARK VINA RESULT:      -3.4      2.044      3.800
REMARK  Name = 
REMARK  7 active torsions:
REMARK  status: ('A' for Active; 'I' for Inactive)
REMARK    1  A    between atoms: C_1  and  C_2
REMARK    2  A    between atoms: C_2  and  C_3
REMARK    3  A    between atoms: C_3  and  C_4
REMARK    4  A    between atoms: C_4  and  C_5
REMARK    5  A    between atoms: C_5  and  C_6
REMARK    6  A    between atoms: C_6  and  O_8
REMARK    7  A    between atoms: C_6  and  C_9
REMARK                            x       y       z     vdW  Elec       q    Type
REMARK                         _______ _______ _______ _____ _____    ______ ____
ROOT
ATOM      1  C   UNL     1       8.811   0.235  21.924  0.00  0.00    +0.035 C 
ENDROOT
BRANCH   1   2
ATOM      2  C   UNL     1       9.004   1.756  21.902  0.00  0.00    +0.003 C 
BRANCH   2   3
ATOM      3  C   UNL     1      10.427   2.150  22.312  0.00  0.00    -0.000 C 
BRANCH   3   5
ATOM      4  C   UNL     1       9.119   3.082  24.261  0.00  0.00    +0.004 C 
ATOM      5  C   UNL     1      10.406   3.164  23.455  0.00  0.00    -0.003 C 
ENDBRANCH   3   5
ENDBRANCH   2   3
ENDBRANCH   1   2
BRANCH   1   6
ATOM      6  C   UNL     1      10.008  -0.552  22.477  0.00  0.00    +0.137 C 
BRANCH   6   7
ATOM      7  C   UNL     1       9.775  -1.149  23.836  0.00  0.00    -0.004 C 
ATOM      8  C   UNL     1       9.766  -0.452  24.978  0.00  0.00    +0.006 C 
ENDBRANCH   6   7
BRANCH   6   9
ATOM      9  O   UNL     1      10.332  -1.615  21.589  0.00  0.00    -0.388 OA
ATOM     10  H   UNL     1      11.086  -1.311  21.052  0.00  0.00    +0.210 HD
ENDBRANCH   6   9
ENDBRANCH   1   6
TORSDOF 6
ENDMDL
MODEL 6
REMARK VINA RESULT:      -3.4      1.832      3.351
REMARK  Name = 
REMARK  7 active torsions:
REMARK  status: ('A' for Active; 'I' for Inactive)
REMARK    1  A    between atoms: C_1  and  C_2
REMARK    2  A    between atoms: C_2  and  C_3
REMARK    3  A    between atoms: C_3  and  C_4
REMARK    4  A    between atoms: C_4  and  C_5
REMARK    5  A    between atoms: C_5  and  C_6
REMARK    6  A    between atoms: C_6  and  O_8
REMARK    7  A    between atoms: C_6  and  C_9
REMARK                            x       y       z     vdW  Elec       q    Type
REMARK                         _______ _______ _______ _____ _____    ______ ____
ROOT
ATOM      1  C   UNL     1       8.593  -1.209  23.256  0.00  0.00    +0.035 C 
ENDROOT
BRANCH   1   2
ATOM      2  C   UNL     1       9.638  -1.367  24.367  0.00  0.00    +0.003 C 
BRANCH   2   3
ATOM      3  C   UNL     1       9.746  -0.102  25.225  0.00  0.00    -0.000 C 
BRANCH   3   5
ATOM      4  C   UNL     1       8.363   2.009  25.122  0.00  0.00    +0.004 C 
ATOM      5  C   UNL     1       8.370   0.524  25.450  0.00  0.00    -0.003 C 
ENDBRANCH   3   5
ENDBRANCH   2   3
ENDBRANCH   1   2
BRANCH   1   6
ATOM      6  C   UNL     1       9.179  -1.097  21.840  0.00  0.00    +0.137 C 
BRANCH   6   7
ATOM      7  C   UNL     1       9.251   0.308  21.314  0.00  0.00    -0.004 C 
ATOM      8  C   UNL     1       9.936   1.300  21.896  0.00  0.00    +0.006 C 
ENDBRANCH   6   7
BRANCH   6   9
ATOM      9  O   UNL     1      10.498  -1.630  21.827  0.00  0.00    -0.388 OA
ATOM     10  H   UNL     1      11.047  -1.033  22.364  0.00  0.00    +0.210 HD
ENDBRANCH   6   9
ENDBRANCH   1   6
TORSDOF 6
ENDMDL
MODEL 7
REMARK VINA RESULT:      -3.3      3.291      5.351
REMARK  Name = 
REMARK  7 active torsions:
REMARK  status: ('A' for Active; 'I' for Inactive)
REMARK    1  A    between atoms: C_1  and  C_2
REMARK    2  A    between atoms: C_2  and  C_3
REMARK    3  A    between atoms: C_3  and  C_4
REMARK    4  A    between atoms: C_4  and  C_5
REMARK    5  A    between atoms: C_5  and  C_6
REMARK    6  A    between atoms: C_6  and  O_8
REMARK    7  A    between atoms: C_6  and  C_9
REMARK                            x       y       z     vdW  Elec       q    Type
REMARK                         _______ _______ _______ _____ _____    ______ ____
ROOT
ATOM      1  C   UNL     1       8.095  -2.938  23.660  0.00  0.00    +0.035 C 
ENDROOT
BRANCH   1   2
ATOM      2  C   UNL     1       9.573  -2.683  23.979  0.00  0.00    +0.003 C 
BRANCH   2   3
ATOM      3  C   UNL     1      10.251  -1.855  22.883  0.00  0.00    -0.000 C 
BRANCH   3   5
ATOM      4  C   UNL     1       9.430   0.100  21.510  0.00  0.00    +0.004 C 
ATOM      5  C   UNL     1       9.230  -1.367  21.855  0.00  0.00    -0.003 C 
ENDBRANCH   3   5
ENDBRANCH   2   3
ENDBRANCH   1   2
BRANCH   1   6
ATOM      6  C   UNL     1       7.699  -4.422  23.611  0.00  0.00    +0.137 C 
BRANCH   6   7
ATOM      7  C   UNL     1       7.262  -4.895  22.254  0.00  0.00    -0.004 C 
ATOM      8  C   UNL     1       6.902  -6.153  21.970  0.00  0.00    +0.006 C 
ENDBRANCH   6   7
BRANCH   6   9
ATOM      9  O   UNL     1       8.803  -5.223  24.012  0.00  0.00    -0.388 OA
ATOM     10  H   UNL     1       9.471  -5.152  23.308  0.00  0.00    +0.210 HD
ENDBRANCH   6   9
ENDBRANCH   1   6
TORSDOF 6
ENDMDL
MODEL 8
REMARK VINA RESULT:      -3.3      3.021      5.510
REMARK  Name = 
REMARK  7 active torsions:
REMARK  status: ('A' for Active; 'I' for Inactive)
REMARK    1  A    between atoms: C_1  and  C_2
REMARK    2  A    between atoms: C_2  and  C_3
REMARK    3  A    between atoms: C_3  and  C_4
REMARK    4  A    between atoms: C_4  and  C_5
REMARK    5  A    between atoms: C_5  and  C_6
REMARK    6  A    between atoms: C_6  and  O_8
REMARK    7  A    between atoms: C_6  and  C_9
REMARK                            x       y       z     vdW  Elec       q    Type
REMARK                         _______ _______ _______ _____ _____    ______ ____
ROOT
ATOM      1  C   UNL     1      10.408   2.068  23.650  0.00  0.00    +0.035 C 
ENDROOT
BRANCH   1   2
ATOM      2  C   UNL     1      10.350   3.599  23.572  0.00  0.00    +0.003 C 
BRANCH   2   3
ATOM      3  C   UNL     1      11.735   4.204  23.318  0.00  0.00    -0.000 C 
BRANCH   3   5
ATOM      4  C   UNL     1      10.369   6.232  23.953  0.00  0.00    +0.004 C 
ATOM      5  C   UNL     1      11.765   5.682  23.707  0.00  0.00    -0.003 C 
ENDBRANCH   3   5
ENDBRANCH   2   3
ENDBRANCH   1   2
BRANCH   1   6
ATOM      6  C   UNL     1      10.191   1.353  22.308  0.00  0.00    +0.137 C 
BRANCH   6   7
ATOM      7  C   UNL     1       9.491   0.029  22.426  0.00  0.00    -0.004 C 
ATOM      8  C   UNL     1       9.377  -0.858  21.430  0.00  0.00    +0.006 C 
ENDBRANCH   6   7
BRANCH   6   9
ATOM      9  O   UNL     1       9.414   2.177  21.449  0.00  0.00    -0.388 OA
ATOM     10  H   UNL     1       9.722   3.090  21.582  0.00  0.00    +0.210 HD
ENDBRANCH   6   9
ENDBRANCH   1   6
TORSDOF 6
ENDMDL
MODEL 9
REMARK VINA RESULT:      -3.3      2.325      3.779
REMARK  Name = 
REMARK  7 active torsions:
REMARK  status: ('A' for Active; 'I' for Inactive)
REMARK    1  A    between atoms: C_1  and  C_2
REMARK    2  A    between atoms: C_2  and  C_3
REMARK    3  A    between atoms: C_3  and  C_4
REMARK    4  A    between atoms: C_4  and  C_5
REMARK    5  A    between atoms: C_5  and  C_6
REMARK    6  A    between atoms: C_6  and  O_8
REMARK    7  A    between atoms: C_6  and  C_9
REMARK                            x       y       z     vdW  Elec       q    Type
REMARK                         _______ _______ _______ _____ _____    ______ ____
ROOT
ATOM      1  C   UNL     1       8.849  -1.986  22.492  0.00  0.00    +0.035 C 
ENDROOT
BRANCH   1   2
ATOM      2  C   UNL     1       9.135  -0.804  21.557  0.00  0.00    +0.003 C 
BRANCH   2   3
ATOM      3  C   UNL     1      10.197   0.133  22.143  0.00  0.00    -0.000 C 
BRANCH   3   5
ATOM      4  C   UNL     1       8.319   1.738  21.619  0.00  0.00    +0.004 C 
ATOM      5  C   UNL     1       9.792   1.597  21.968  0.00  0.00    -0.003 C 
ENDBRANCH   3   5
ENDBRANCH   2   3
ENDBRANCH   1   2
BRANCH   1   6
ATOM      6  C   UNL     1       9.681  -1.995  23.783  0.00  0.00    +0.137 C 
BRANCH   6   7
ATOM      7  C   UNL     1       8.928  -1.548  25.003  0.00  0.00    -0.004 C 
ATOM      8  C   UNL     1       9.168  -0.411  25.667  0.00  0.00    +0.006 C 
ENDBRANCH   6   7
BRANCH   6   9
ATOM      9  O   UNL     1      10.162  -3.311  24.030  0.00  0.00    -0.388 OA
ATOM     10  H   UNL     1      11.010  -3.216  24.498  0.00  0.00    +0.210 HD
ENDBRANCH   6   9
ENDBRANCH   1   6
TORSDOF 6
ENDMDL
