MODEL 1
REMARK VINA RESULT:      -3.8      0.000      0.000
REMARK  Name = 
REMARK  4 active torsions:
REMARK  status: ('A' for Active; 'I' for Inactive)
REMARK    1  A    between atoms: C_1  and  N_2
REMARK    2  A    between atoms: N_2  and  CA_3
REMARK    3  A    between atoms: CA_3  and  C_5
REMARK    4  A    between atoms: C_5  and  O_6
REMARK                            x       y       z     vdW  Elec       q    Type
REMARK                         _______ _______ _______ _____ _____    ______ ____
ROOT
ATOM      1  CA  ALA A   1      12.040   5.532  23.608  0.00  0.00    +0.105 C 
ATOM      2  CB  ALA A   1      12.237   6.395  24.614  0.00  0.00    +0.040 C 
ENDROOT
BRANCH   1   4
ATOM      3  C   ACE A   0      10.935   3.294  23.388  0.00  0.00    +0.125 C 
ATOM      4  N   ALA A   1      10.901   4.751  23.386  0.00  0.00    -0.342 N 
ATOM      5  H   ALA A   1      10.128   5.089  23.971  0.00  0.00    +0.146 HD
ENDBRANCH   1   4
BRANCH   1   6
ATOM      6  C   ALA A   1      13.195   5.384  22.637  0.00  0.00    +0.350 C 
ATOM      7  OXT ALA A   1      13.152   5.560  21.436  0.00  0.00    -0.244 OA
BRANCH   6   8
ATOM      8  O   ALA A   1      14.307   5.014  23.319  0.00  0.00    -0.476 OA
ATOM      9  H   ALA A   1      15.093   5.358  22.843  0.00  0.00    +0.295 HD
ENDBRANCH   6   8
ENDBRANCH   1   6
TORSDOF 3
ENDMDL
MODEL 2
REMARK VINA RESULT:      -3.4     10.166     11.038
REMARK  Name = 
REMARK  4 active torsions:
REMARK  status: ('A' for Active; 'I' for Inactive)
REMARK    1  A    between atoms: C_1  and  N_2
REMARK    2  A    between atoms: N_2  and  CA_3
REMARK    3  A    between atoms: CA_3  and  C_5
REMARK    4  A    between atoms: C_5  and  O_6
REMARK                            x       y       z     vdW  Elec       q    Type
REMARK                         _______ _______ _______ _____ _____    ______ ____
ROOT
ATOM      1  CA  ALA A   1       8.489  -4.491  26.284  0.00  0.00    +0.105 C 
ATOM      2  CB  ALA A   1       8.125  -3.214  26.461  0.00  0.00    +0.040 C 
ENDROOT
BRANCH   1   4
ATOM      3  C   ACE A   0       6.744  -5.610  27.692  0.00  0.00    +0.125 C 
ATOM      4  N   ALA A   1       8.027  -5.601  27.000  0.00  0.00    -0.342 N 
ATOM      5  H   ALA A   1       8.131  -6.448  26.431  0.00  0.00    +0.146 HD
ENDBRANCH   1   4
BRANCH   1   6
ATOM      6  C   ALA A   1       9.529  -4.731  25.208  0.00  0.00    +0.350 C 
ATOM      7  OXT ALA A   1       9.958  -3.907  24.426  0.00  0.00    -0.244 OA
BRANCH   6   8
ATOM      8  O   ALA A   1       9.914  -6.030  25.241  0.00  0.00    -0.476 OA
ATOM      9  H   ALA A   1      10.885  -6.064  25.377  0.00  0.00    +0.295 HD
ENDBRANCH   6   8
ENDBRANCH   1   6
TORSDOF 3
ENDMDL
MODEL 3
REMARK VINA RESULT:      -3.3      5.236      5.948
REMARK  Name = 
REMARK  4 active torsions:
REMARK  status: ('A' for Active; 'I' for Inactive)
REMARK    1  A    between atoms: C_1  and  N_2
REMARK    2  A    between atoms: N_2  and  CA_3
REMARK    3  A    between atoms: CA_3  and  C_5
REMARK    4  A    between atoms: C_5  and  O_6
REMARK                            x       y       z     vdW  Elec       q    Type
REMARK                         _______ _______ _______ _____ _____    ______ ____
ROOT
ATOM      1  CA  ALA A   1       9.858   0.164  22.281  0.00  0.00    +0.105 C 
ATOM      2  CB  ALA A   1      10.540   0.295  23.426  0.00  0.00    +0.040 C 
ENDROOT
BRANCH   1   4
ATOM      3  C   ACE A   0       8.697  -2.044  22.046  0.00  0.00    +0.125 C 
ATOM      4  N   ALA A   1       9.623  -1.021  21.576  0.00  0.00    -0.342 N 
ATOM      5  H   ALA A   1       9.446  -0.808  20.587  0.00  0.00    +0.146 HD
ENDBRANCH   1   4
BRANCH   1   6
ATOM      6  C   ALA A   1       9.315   1.452  21.692  0.00  0.00    +0.350 C 
ATOM      7  OXT ALA A   1       8.174   1.651  21.328  0.00  0.00    -0.244 OA
BRANCH   6   8
ATOM      8  O   ALA A   1      10.313   2.367  21.622  0.00  0.00    -0.476 OA
ATOM      9  H   ALA A   1      10.194   3.013  22.351  0.00  0.00    +0.295 HD
ENDBRANCH   6   8
ENDBRANCH   1   6
TORSDOF 3
ENDMDL
MODEL 4
REMARK VINA RESULT:      -3.3      6.022      6.585
REMARK  Name = 
REMARK  4 active torsions:
REMARK  status: ('A' for Active; 'I' for Inactive)
REMARK    1  A    between atoms: C_1  and  N_2
REMARK    2  A    between atoms: N_2  and  CA_3
REMARK    3  A    between atoms: CA_3  and  C_5
REMARK    4  A    between atoms: C_5  and  O_6
REMARK                            x       y       z     vdW  Elec       q    Type
REMARK                         _______ _______ _______ _____ _____    ______ ____
ROOT
ATOM      1  CA  ALA A   1      10.263  -0.093  23.132  0.00  0.00    +0.105 C 
ATOM      2  CB  ALA A   1      10.431   0.130  24.442  0.00  0.00    +0.040 C 
ENDROOT
BRANCH   1   4
ATOM      3  C   ACE A   0       8.880   1.660  21.994  0.00  0.00    +0.125 C 
ATOM      4  N   ALA A   1      10.099   0.872  22.132  0.00  0.00    -0.342 N 
ATOM      5  H   ALA A   1      10.923   1.484  22.102  0.00  0.00    +0.146 HD
ENDBRANCH   1   4
BRANCH   1   6
ATOM      6  C   ALA A   1      10.226  -1.551  22.715  0.00  0.00    +0.350 C 
ATOM      7  OXT ALA A   1      10.306  -2.511  23.454  0.00  0.00    -0.244 OA
BRANCH   6   8
ATOM      8  O   ALA A   1      10.093  -1.627  21.368  0.00  0.00    -0.476 OA
ATOM      9  H   ALA A   1      10.010  -2.571  21.117  0.00  0.00    +0.295 HD
ENDBRANCH   6   8
ENDBRANCH   1   6
TORSDOF 3
ENDMDL
MODEL 5
REMARK VINA RESULT:      -3.2      4.604      5.738
REMARK  Name = 
REMARK  4 active torsions:
REMARK  status: ('A' for Active; 'I' for Inactive)
REMARK    1  A    between atoms: C_1  and  N_2
REMARK    2  A    between atoms: N_2  and  CA_3
REMARK    3  A    between atoms: CA_3  and  C_5
REMARK    4  A    between atoms: C_5  and  O_6
REMARK                            x       y       z     vdW  Elec       q    Type
REMARK                         _______ _______ _______ _____ _____    ______ ____
ROOT
ATOM      1  CA  ALA A   1       9.928   0.189  22.555  0.00  0.00    +0.105 C 
ATOM      2  CB  ALA A   1       9.411  -0.118  21.358  0.00  0.00    +0.040 C 
ENDROOT
BRANCH   1   4
ATOM      3  C   ACE A   0       9.965  -2.132  23.498  0.00  0.00    +0.125 C 
ATOM      4  N   ALA A   1      10.213  -0.699  23.598  0.00  0.00    -0.342 N 
ATOM      5  H   ALA A   1      11.160  -0.525  23.953  0.00  0.00    +0.146 HD
ENDBRANCH   1   4
BRANCH   1   6
ATOM      6  C   ALA A   1      10.202   1.662  22.790  0.00  0.00    +0.350 C 
ATOM      7  OXT ALA A   1      10.380   2.197  23.865  0.00  0.00    -0.244 OA
BRANCH   6   8
ATOM      8  O   ALA A   1      10.212   2.310  21.599  0.00  0.00    -0.476 OA
ATOM      9  H   ALA A   1      11.092   2.183  21.184  0.00  0.00    +0.295 HD
ENDBRANCH   6   8
ENDBRANCH   1   6
TORSDOF 3
ENDMDL
MODEL 6
REMARK VINA RESULT:      -3.2      6.673      7.998
REMARK  Name = 
REMARK  4 active torsions:
REMARK  status: ('A' for Active; 'I' for Inactive)
REMARK    1  A    between atoms: C_1  and  N_2
REMARK    2  A    between atoms: N_2  and  CA_3
REMARK    3  A    between atoms: CA_3  and  C_5
REMARK    4  A    between atoms: C_5  and  O_6
REMARK                            x       y       z     vdW  Elec       q    Type
REMARK                         _______ _______ _______ _____ _____    ______ ____
ROOT
ATOM      1  CA  ALA A   1       9.040  -1.921  22.428  0.00  0.00    +0.105 C 
ATOM      2  CB  ALA A   1       7.828  -2.482  22.313  0.00  0.00    +0.040 C 
ENDROOT
BRANCH   1   4
ATOM      3  C   ACE A   0       9.335   0.328  21.363  0.00  0.00    +0.125 C 
ATOM      4  N   ALA A   1       9.667  -1.085  21.498  0.00  0.00    -0.342 N 
ATOM      5  H   ALA A   1      10.685  -1.207  21.553  0.00  0.00    +0.146 HD
ENDBRANCH   1   4
BRANCH   1   6
ATOM      6  C   ALA A   1       9.801  -2.263  23.694  0.00  0.00    +0.350 C 
ATOM      7  OXT ALA A   1      10.134  -3.373  24.055  0.00  0.00    -0.244 OA
BRANCH   6   8
ATOM      8  O   ALA A   1      10.056  -1.123  24.383  0.00  0.00    -0.476 OA
ATOM      9  H   ALA A   1       9.248  -0.873  24.880  0.00  0.00    +0.295 HD
ENDBRANCH   6   8
ENDBRANCH   1   6
TORSDOF 3
ENDMDL
MODEL 7
REMARK VINA RESULT:      -3.2      4.448      5.186
REMARK  Name = 
REMARK  4 active torsions:
REMARK  status: ('A' for Active; 'I' for Inactive)
REMARK    1  A    between atoms: C_1  and  N_2
REMARK    2  A    between atoms: N_2  and  CA_3
REMARK    3  A    between atoms: CA_3  and  C_5
REMARK    4  A    between atoms: C_5  and  O_6
REMARK                            x       y       z     vdW  Elec       q    Type
REMARK                         _______ _______ _______ _____ _____    ______ ____
ROOT
ATOM      1  CA  ALA A   1      10.075   0.981  23.503  0.00  0.00    +0.105 C 
ATOM      2  CB  ALA A   1      10.326  -0.239  23.996  0.00  0.00    +0.040 C 
ENDROOT
BRANCH   1   4
ATOM      3  C   ACE A   0       8.680   2.639  24.762  0.00  0.00    +0.125 C 
ATOM      4  N   ALA A   1       9.954   2.170  24.230  0.00  0.00    -0.342 N 
ATOM      5  H   ALA A   1      10.678   2.208  24.957  0.00  0.00    +0.146 HD
ENDBRANCH   1   4
BRANCH   1   6
ATOM      6  C   ALA A   1       9.882   1.052  22.001  0.00  0.00    +0.350 C 
ATOM      7  OXT ALA A   1       9.492   0.154  21.283  0.00  0.00    -0.244 OA
BRANCH   6   8
ATOM      8  O   ALA A   1      10.221   2.291  21.565  0.00  0.00    -0.476 OA
ATOM      9  H   ALA A   1      11.198   2.370  21.582  0.00  0.00    +0.295 HD
ENDBRANCH   6   8
ENDBRANCH   1   6
TORSDOF 3
ENDMDL
MODEL 8
REMARK VINA RESULT:      -3.1      9.340     10.669
REMARK  Name = 
REMARK  4 active torsions:
REMARK  status: ('A' for Active; 'I' for Inactive)
REMARK    1  A    between atoms: C_1  and  N_2
REMARK    2  A    between atoms: N_2  and  CA_3
REMARK    3  A    between atoms: CA_3  and  C_5
REMARK    4  A    between atoms: C_5  and  O_6
REMARK                            x       y       z     vdW  Elec       q    Type
REMARK                         _______ _______ _______ _____ _____    ______ ____
ROOT
ATOM      1  CA  ALA A   1       8.641  -4.220  24.452  0.00  0.00    +0.105 C 
ATOM      2  CB  ALA A   1       7.802  -4.567  23.467  0.00  0.00    +0.040 C 
ENDROOT
BRANCH   1   4
ATOM      3  C   ACE A   0       9.920  -2.278  23.517  0.00  0.00    +0.125 C 
ATOM      4  N   ALA A   1       9.273  -2.983  24.617  0.00  0.00    -0.342 N 
ATOM      5  H   ALA A   1       8.657  -2.345  25.135  0.00  0.00    +0.146 HD
ENDBRANCH   1   4
BRANCH   1   6
ATOM      6  C   ALA A   1       8.942  -5.305  25.468  0.00  0.00    +0.350 C 
ATOM      7  OXT ALA A   1       8.161  -5.775  26.270  0.00  0.00    -0.244 OA
BRANCH   6   8
ATOM      8  O   ALA A   1      10.240  -5.678  25.351  0.00  0.00    -0.476 OA
ATOM      9  H   ALA A   1      10.776  -5.138  25.970  0.00  0.00    +0.295 HD
ENDBRANCH   6   8
ENDBRANCH   1   6
TORSDOF 3
ENDMDL
MODEL 9
REMARK VINA RESULT:      -3.1      3.770      4.559
REMARK  Name = 
REMARK  4 active torsions:
REMARK  status: ('A' for Active; 'I' for Inactive)
REMARK    1  A    between atoms: C_1  and  N_2
REMARK    2  A    between atoms: N_2  and  CA_3
REMARK    3  A    between atoms: CA_3  and  C_5
REMARK    4  A    between atoms: C_5  and  O_6
REMARK                            x       y       z     vdW  Elec       q    Type
REMARK                         _______ _______ _______ _____ _____    ______ ____
ROOT
ATOM      1  CA  ALA A   1      10.434   2.481  23.061  0.00  0.00    +0.105 C 
ATOM      2  CB  ALA A   1      11.169   3.568  23.332  0.00  0.00    +0.040 C 
ENDROOT
BRANCH   1   4
ATOM      3  C   ACE A   0       9.416   0.754  21.557  0.00  0.00    +0.125 C 
ATOM      4  N   ALA A   1       9.947   2.088  21.810  0.00  0.00    -0.342 N 
ATOM      5  H   ALA A   1       9.303   2.801  21.448  0.00  0.00    +0.146 HD
ENDBRANCH   1   4
BRANCH   1   6
ATOM      6  C   ALA A   1      10.084   1.614  24.256  0.00  0.00    +0.350 C 
ATOM      7  OXT ALA A   1       9.036   1.624  24.869  0.00  0.00    -0.244 OA
BRANCH   6   8
ATOM      8  O   ALA A   1      11.138   0.813  24.550  0.00  0.00    -0.476 OA
ATOM      9  H   ALA A   1      11.787   0.872  23.817  0.00  0.00    +0.295 HD
ENDBRANCH   6   8
ENDBRANCH   1   6
TORSDOF 3
ENDMDL
