MODEL 1
REMARK VINA RESULT:      -6.9      0.000      0.000
REMARK  Name = 
REMARK  6 active torsions:
REMARK  status: ('A' for Active; 'I' for Inactive)
REMARK    1  A    between atoms: C_1  and  N_2
REMARK    2  A    between atoms: N_2  and  C_3
REMARK    3  A    between atoms: C_3  and  C_4
REMARK    4  A    between atoms: N_6  and  C_7
REMARK    5  A    between atoms: C_14  and  C_16
REMARK    6  A    between atoms: C_17  and  C_18
REMARK                            x       y       z     vdW  Elec       q    Type
REMARK                         _______ _______ _______ _____ _____    ______ ____
ROOT
ATOM      1  C   UNL     1      10.568   1.372  23.236  0.00  0.00    +0.132 C 
ATOM      2  N   UNL     1       9.868   0.132  23.524  0.00  0.00    -0.297 N 
ATOM      3  C   UNL     1       9.314  -0.531  22.438  0.00  0.00    +0.239 C 
ATOM      4  O   UNL     1       9.365  -0.086  21.292  0.00  0.00    -0.271 OA
ENDROOT
BRANCH   3   5
ATOM      5  C   UNL     1       8.633  -1.824  22.699  0.00  0.00    +0.068 C 
ATOM      6  C   UNL     1       7.295  -1.928  22.648  0.00  0.00    +0.014 C 
BRANCH   6   7
ATOM      7  C   UNL     1       6.598  -3.200  22.871  0.00  0.00    -0.006 A 
ATOM      8  C   UNL     1       5.317  -3.258  23.430  0.00  0.00    +0.016 A 
ATOM      9  C   UNL     1       4.700  -4.490  23.642  0.00  0.00    -0.006 A 
ATOM     10  C   UNL     1       5.417  -5.639  23.334  0.00  0.00    +0.128 A 
ATOM     11  N   UNL     1       4.871  -6.879  23.635  0.00  0.00    -0.270 N 
ATOM     12  H   UNL     1       5.486  -7.677  23.560  0.00  0.00    +0.156 HD
ATOM     13  C   UNL     1       3.602  -7.072  24.099  0.00  0.00    +0.219 C 
ATOM     14  C   UNL     1       2.666  -5.890  23.984  0.00  0.00    +0.101 C 
ATOM     15  O   UNL     1       3.218  -8.173  24.484  0.00  0.00    -0.275 OA
ATOM     16  N   UNL     1       6.657  -5.632  22.815  0.00  0.00    -0.239 NA
ATOM     17  C   UNL     1       3.360  -4.578  24.304  0.00  0.00    +0.048 C 
ATOM     18  C   UNL     1       7.216  -4.415  22.590  0.00  0.00    +0.120 A 
ENDBRANCH   6   7
ENDBRANCH   3   5
BRANCH   2  19
ATOM     19  C   UNL     1       9.898  -0.349  24.910  0.00  0.00    +0.145 C 
BRANCH  19  20
ATOM     20  C   UNL     1       8.537  -0.397  25.542  0.00  0.00    -0.005 A 
ATOM     21  C   UNL     1       7.885  -1.573  26.055  0.00  0.00    +0.005 A 
ATOM     22  C   UNL     1       6.595  -1.208  26.457  0.00  0.00    +0.049 A 
ATOM     23  C   UNL     1       5.681  -2.136  26.984  0.00  0.00    +0.026 A 
ATOM     24  C   UNL     1       6.088  -3.465  27.110  0.00  0.00    +0.002 A 
ATOM     25  C   UNL     1       7.365  -3.858  26.721  0.00  0.00    +0.001 A 
ATOM     26  N   UNL     1       6.467   0.139  26.203  0.00  0.00    -0.349 N 
ATOM     27  C   UNL     1       5.256   0.906  26.407  0.00  0.00    +0.149 C 
ATOM     28  C   UNL     1       8.267  -2.928  26.192  0.00  0.00    +0.010 A 
ATOM     29  C   UNL     1       7.629   0.639  25.681  0.00  0.00    +0.091 A 
ENDBRANCH  19  20
ENDBRANCH   2  19
TORSDOF 4
ENDMDL
MODEL 2
REMARK VINA RESULT:      -6.8      1.972      6.437
REMARK  Name = 
REMARK  6 active torsions:
REMARK  status: ('A' for Active; 'I' for Inactive)
REMARK    1  A    between atoms: C_1  and  N_2
REMARK    2  A    between atoms: N_2  and  C_3
REMARK    3  A    between atoms: C_3  and  C_4
REMARK    4  A    between atoms: N_6  and  C_7
REMARK    5  A    between atoms: C_14  and  C_16
REMARK    6  A    between atoms: C_17  and  C_18
REMARK                            x       y       z     vdW  Elec       q    Type
REMARK                         _______ _______ _______ _____ _____    ______ ____
ROOT
ATOM      1  C   UNL     1       4.892  -6.658  23.773  0.00  0.00    +0.132 C 
ATOM      2  N   UNL     1       5.901  -5.616  23.857  0.00  0.00    -0.297 N 
ATOM      3  C   UNL     1       6.214  -4.962  22.674  0.00  0.00    +0.239 C 
ATOM      4  O   UNL     1       5.707  -5.265  21.594  0.00  0.00    -0.271 OA
ENDROOT
BRANCH   3   5
ATOM      5  C   UNL     1       7.209  -3.862  22.741  0.00  0.00    +0.068 C 
ATOM      6  C   UNL     1       6.852  -2.587  22.516  0.00  0.00    +0.014 C 
BRANCH   6   7
ATOM      7  C   UNL     1       7.809  -1.478  22.606  0.00  0.00    -0.006 A 
ATOM      8  C   UNL     1       7.543  -0.328  23.356  0.00  0.00    +0.016 A 
ATOM      9  C   UNL     1       8.473   0.711  23.399  0.00  0.00    -0.006 A 
ATOM     10  C   UNL     1       9.627   0.584  22.637  0.00  0.00    +0.128 A 
ATOM     11  N   UNL     1      10.518   1.645  22.575  0.00  0.00    -0.270 N 
ATOM     12  H   UNL     1      11.249   1.585  21.881  0.00  0.00    +0.156 HD
ATOM     13  C   UNL     1      10.417   2.783  23.323  0.00  0.00    +0.219 C 
ATOM     14  C   UNL     1       9.451   2.730  24.485  0.00  0.00    +0.101 C 
ATOM     15  O   UNL     1      11.150   3.749  23.127  0.00  0.00    -0.275 OA
ATOM     16  N   UNL     1       9.914  -0.494  21.887  0.00  0.00    -0.239 NA
ATOM     17  C   UNL     1       8.178   1.980  24.136  0.00  0.00    +0.048 C 
ATOM     18  C   UNL     1       9.003  -1.501  21.893  0.00  0.00    +0.120 A 
ENDBRANCH   6   7
ENDBRANCH   3   5
BRANCH   2  19
ATOM     19  C   UNL     1       6.417  -5.288  25.191  0.00  0.00    +0.145 C 
BRANCH  19  20
ATOM     20  C   UNL     1       5.941  -3.957  25.692  0.00  0.00    -0.005 A 
ATOM     21  C   UNL     1       6.777  -2.859  26.102  0.00  0.00    +0.005 A 
ATOM     22  C   UNL     1       5.947  -1.849  26.600  0.00  0.00    +0.049 A 
ATOM     23  C   UNL     1       6.454  -0.642  27.110  0.00  0.00    +0.026 A 
ATOM     24  C   UNL     1       7.838  -0.455  27.111  0.00  0.00    +0.002 A 
ATOM     25  C   UNL     1       8.690  -1.440  26.620  0.00  0.00    +0.001 A 
ATOM     26  N   UNL     1       4.654  -2.310  26.495  0.00  0.00    -0.349 N 
ATOM     27  C   UNL     1       3.484  -1.600  26.965  0.00  0.00    +0.149 C 
ATOM     28  C   UNL     1       8.175  -2.642  26.119  0.00  0.00    +0.010 A 
ATOM     29  C   UNL     1       4.637  -3.556  25.929  0.00  0.00    +0.091 A 
ENDBRANCH  19  20
ENDBRANCH   2  19
TORSDOF 4
ENDMDL
MODEL 3
REMARK VINA RESULT:      -6.8      2.089      7.335
REMARK  Name = 
REMARK  6 active torsions:
REMARK  status: ('A' for Active; 'I' for Inactive)
REMARK    1  A    between atoms: C_1  and  N_2
REMARK    2  A    between atoms: N_2  and  C_3
REMARK    3  A    between atoms: C_3  and  C_4
REMARK    4  A    between atoms: N_6  and  C_7
REMARK    5  A    between atoms: C_14  and  C_16
REMARK    6  A    between atoms: C_17  and  C_18
REMARK                            x       y       z     vdW  Elec       q    Type
REMARK                         _______ _______ _______ _____ _____    ______ ____
ROOT
ATOM      1  C   UNL     1       4.833  -7.184  27.405  0.00  0.00    +0.132 C 
ATOM      2  N   UNL     1       5.254  -5.845  27.029  0.00  0.00    -0.297 N 
ATOM      3  C   UNL     1       6.463  -5.408  27.552  0.00  0.00    +0.239 C 
ATOM      4  O   UNL     1       7.134  -6.087  28.329  0.00  0.00    -0.271 OA
ENDROOT
BRANCH   3   5
ATOM      5  C   UNL     1       6.938  -4.062  27.147  0.00  0.00    +0.068 C 
ATOM      6  C   UNL     1       8.082  -3.905  26.462  0.00  0.00    +0.014 C 
BRANCH   6   7
ATOM      7  C   UNL     1       8.559  -2.588  26.023  0.00  0.00    -0.006 A 
ATOM      8  C   UNL     1       9.139  -2.391  24.766  0.00  0.00    +0.016 A 
ATOM      9  C   UNL     1       9.596  -1.125  24.396  0.00  0.00    -0.006 A 
ATOM     10  C   UNL     1       9.504  -0.101  25.330  0.00  0.00    +0.128 A 
ATOM     11  N   UNL     1      10.048   1.139  25.030  0.00  0.00    -0.270 N 
ATOM     12  H   UNL     1      10.118   1.800  25.791  0.00  0.00    +0.156 HD
ATOM     13  C   UNL     1      10.561   1.484  23.814  0.00  0.00    +0.219 C 
ATOM     14  C   UNL     1      10.236   0.553  22.668  0.00  0.00    +0.101 C 
ATOM     15  O   UNL     1      11.158   2.544  23.644  0.00  0.00    -0.275 OA
ATOM     16  N   UNL     1       8.972  -0.251  26.556  0.00  0.00    -0.239 NA
ATOM     17  C   UNL     1      10.284  -0.906  23.085  0.00  0.00    +0.048 C 
ATOM     18  C   UNL     1       8.508  -1.487  26.871  0.00  0.00    +0.120 A 
ENDBRANCH   6   7
ENDBRANCH   3   5
BRANCH   2  19
ATOM     19  C   UNL     1       4.417  -5.126  26.061  0.00  0.00    +0.145 C 
BRANCH  19  20
ATOM     20  C   UNL     1       5.092  -4.931  24.736  0.00  0.00    -0.005 A 
ATOM     21  C   UNL     1       5.484  -3.669  24.164  0.00  0.00    +0.005 A 
ATOM     22  C   UNL     1       5.979  -3.915  22.879  0.00  0.00    +0.049 A 
ATOM     23  C   UNL     1       6.425  -2.884  22.034  0.00  0.00    +0.026 A 
ATOM     24  C   UNL     1       6.370  -1.573  22.509  0.00  0.00    +0.002 A 
ATOM     25  C   UNL     1       5.885  -1.296  23.784  0.00  0.00    +0.001 A 
ATOM     26  N   UNL     1       5.897  -5.274  22.675  0.00  0.00    -0.349 N 
ATOM     27  C   UNL     1       6.242  -5.946  21.440  0.00  0.00    +0.149 C 
ATOM     28  C   UNL     1       5.438  -2.330  24.615  0.00  0.00    +0.010 A 
ATOM     29  C   UNL     1       5.394  -5.893  23.787  0.00  0.00    +0.091 A 
ENDBRANCH  19  20
ENDBRANCH   2  19
TORSDOF 4
ENDMDL
MODEL 4
REMARK VINA RESULT:      -6.8      2.279      6.731
REMARK  Name = 
REMARK  6 active torsions:
REMARK  status: ('A' for Active; 'I' for Inactive)
REMARK    1  A    between atoms: C_1  and  N_2
REMARK    2  A    between atoms: N_2  and  C_3
REMARK    3  A    between atoms: C_3  and  C_4
REMARK    4  A    between atoms: N_6  and  C_7
REMARK    5  A    between atoms: C_14  and  C_16
REMARK    6  A    between atoms: C_17  and  C_18
REMARK                            x       y       z     vdW  Elec       q    Type
REMARK                         _______ _______ _______ _____ _____    ______ ____
ROOT
ATOM      1  C   UNL     1       4.456  -5.923  22.660  0.00  0.00    +0.132 C 
ATOM      2  N   UNL     1       5.113  -4.670  22.995  0.00  0.00    -0.297 N 
ATOM      3  C   UNL     1       5.690  -3.975  21.942  0.00  0.00    +0.239 C 
ATOM      4  O   UNL     1       5.693  -4.401  20.787  0.00  0.00    -0.271 OA
ENDROOT
BRANCH   3   5
ATOM      5  C   UNL     1       6.327  -2.670  22.250  0.00  0.00    +0.068 C 
ATOM      6  C   UNL     1       7.659  -2.513  22.179  0.00  0.00    +0.014 C 
BRANCH   6   7
ATOM      7  C   UNL     1       8.311  -1.226  22.448  0.00  0.00    -0.006 A 
ATOM      8  C   UNL     1       7.713  -0.242  23.241  0.00  0.00    +0.016 A 
ATOM      9  C   UNL     1       8.361   0.975  23.456  0.00  0.00    -0.006 A 
ATOM     10  C   UNL     1       9.575   1.188  22.816  0.00  0.00    +0.128 A 
ATOM     11  N   UNL     1      10.189   2.427  22.924  0.00  0.00    -0.270 N 
ATOM     12  H   UNL     1      10.972   2.601  22.310  0.00  0.00    +0.156 HD
ATOM     13  C   UNL     1       9.754   3.437  23.732  0.00  0.00    +0.219 C 
ATOM     14  C   UNL     1       8.729   3.056  24.776  0.00  0.00    +0.101 C 
ATOM     15  O   UNL     1      10.249   4.560  23.683  0.00  0.00    -0.275 OA
ATOM     16  N   UNL     1      10.177   0.278  22.029  0.00  0.00    -0.239 NA
ATOM     17  C   UNL     1       7.707   2.069  24.241  0.00  0.00    +0.048 C 
ATOM     18  C   UNL     1       9.536  -0.907  21.869  0.00  0.00    +0.120 A 
ENDBRANCH   6   7
ENDBRANCH   3   5
BRANCH   2  19
ATOM     19  C   UNL     1       5.019  -4.215  24.387  0.00  0.00    +0.145 C 
BRANCH  19  20
ATOM     20  C   UNL     1       6.360  -4.034  25.035  0.00  0.00    -0.005 A 
ATOM     21  C   UNL     1       6.818  -2.850  25.713  0.00  0.00    +0.005 A 
ATOM     22  C   UNL     1       8.154  -3.052  26.076  0.00  0.00    +0.049 A 
ATOM     23  C   UNL     1       8.911  -2.070  26.736  0.00  0.00    +0.026 A 
ATOM     24  C   UNL     1       8.295  -0.855  27.039  0.00  0.00    +0.002 A 
ATOM     25  C   UNL     1       6.966  -0.624  26.694  0.00  0.00    +0.001 A 
ATOM     26  N   UNL     1       8.497  -4.312  25.640  0.00  0.00    -0.349 N 
ATOM     27  C   UNL     1       9.819  -4.893  25.750  0.00  0.00    +0.149 C 
ATOM     28  C   UNL     1       6.222  -1.607  26.031  0.00  0.00    +0.010 A 
ATOM     29  C   UNL     1       7.425  -4.917  25.040  0.00  0.00    +0.091 A 
ENDBRANCH  19  20
ENDBRANCH   2  19
TORSDOF 4
ENDMDL
MODEL 5
REMARK VINA RESULT:      -6.6      3.265      4.808
REMARK  Name = 
REMARK  6 active torsions:
REMARK  status: ('A' for Active; 'I' for Inactive)
REMARK    1  A    between atoms: C_1  and  N_2
REMARK    2  A    between atoms: N_2  and  C_3
REMARK    3  A    between atoms: C_3  and  C_4
REMARK    4  A    between atoms: N_6  and  C_7
REMARK    5  A    between atoms: C_14  and  C_16
REMARK    6  A    between atoms: C_17  and  C_18
REMARK                            x       y       z     vdW  Elec       q    Type
REMARK                         _______ _______ _______ _____ _____    ______ ____
ROOT
ATOM      1  C   UNL     1      10.116   0.922  21.954  0.00  0.00    +0.132 C 
ATOM      2  N   UNL     1       9.568   0.099  23.019  0.00  0.00    -0.297 N 
ATOM      3  C   UNL     1       9.889  -1.251  22.983  0.00  0.00    +0.239 C 
ATOM      4  O   UNL     1      10.564  -1.749  22.082  0.00  0.00    -0.271 OA
ENDROOT
BRANCH   3   5
ATOM      5  C   UNL     1       9.380  -2.106  24.084  0.00  0.00    +0.068 C 
ATOM      6  C   UNL     1       8.386  -2.985  23.880  0.00  0.00    +0.014 C 
BRANCH   6   7
ATOM      7  C   UNL     1       7.885  -3.864  24.944  0.00  0.00    -0.006 A 
ATOM      8  C   UNL     1       6.596  -4.404  24.915  0.00  0.00    +0.016 A 
ATOM      9  C   UNL     1       6.155  -5.220  25.957  0.00  0.00    -0.006 A 
ATOM     10  C   UNL     1       7.011  -5.424  27.031  0.00  0.00    +0.128 A 
ATOM     11  N   UNL     1       6.560  -6.141  28.130  0.00  0.00    -0.270 N 
ATOM     12  H   UNL     1       7.140  -6.120  28.956  0.00  0.00    +0.156 HD
ATOM     13  C   UNL     1       5.360  -6.790  28.189  0.00  0.00    +0.219 C 
ATOM     14  C   UNL     1       4.639  -6.974  26.873  0.00  0.00    +0.101 C 
ATOM     15  O   UNL     1       4.949  -7.288  29.233  0.00  0.00    -0.275 OA
ATOM     16  N   UNL     1       8.250  -4.908  27.110  0.00  0.00    -0.239 NA
ATOM     17  C   UNL     1       4.755  -5.750  25.981  0.00  0.00    +0.048 C 
ATOM     18  C   UNL     1       8.660  -4.147  26.064  0.00  0.00    +0.120 A 
ENDBRANCH   6   7
ENDBRANCH   3   5
BRANCH   2  19
ATOM     19  C   UNL     1       8.816   0.783  24.076  0.00  0.00    +0.145 C 
BRANCH  19  20
ATOM     20  C   UNL     1       7.932   1.876  23.552  0.00  0.00    -0.005 A 
ATOM     21  C   UNL     1       8.250   3.281  23.524  0.00  0.00    +0.005 A 
ATOM     22  C   UNL     1       7.123   3.967  23.061  0.00  0.00    +0.049 A 
ATOM     23  C   UNL     1       7.092   5.367  22.939  0.00  0.00    +0.026 A 
ATOM     24  C   UNL     1       8.235   6.085  23.294  0.00  0.00    +0.002 A 
ATOM     25  C   UNL     1       9.373   5.431  23.756  0.00  0.00    +0.001 A 
ATOM     26  N   UNL     1       6.156   3.020  22.810  0.00  0.00    -0.349 N 
ATOM     27  C   UNL     1       4.805   3.312  22.381  0.00  0.00    +0.149 C 
ATOM     28  C   UNL     1       9.392   4.036  23.879  0.00  0.00    +0.010 A 
ATOM     29  C   UNL     1       6.637   1.766  23.075  0.00  0.00    +0.091 A 
ENDBRANCH  19  20
ENDBRANCH   2  19
TORSDOF 4
ENDMDL
MODEL 6
REMARK VINA RESULT:      -6.6      2.774      7.438
REMARK  Name = 
REMARK  6 active torsions:
REMARK  status: ('A' for Active; 'I' for Inactive)
REMARK    1  A    between atoms: C_1  and  N_2
REMARK    2  A    between atoms: N_2  and  C_3
REMARK    3  A    between atoms: C_3  and  C_4
REMARK    4  A    between atoms: N_6  and  C_7
REMARK    5  A    between atoms: C_14  and  C_16
REMARK    6  A    between atoms: C_17  and  C_18
REMARK                            x       y       z     vdW  Elec       q    Type
REMARK                         _______ _______ _______ _____ _____    ______ ____
ROOT
ATOM      1  C   UNL     1       7.921  -5.260  23.675  0.00  0.00    +0.132 C 
ATOM      2  N   UNL     1       7.937  -3.826  23.441  0.00  0.00    -0.297 N 
ATOM      3  C   UNL     1       9.091  -3.152  23.816  0.00  0.00    +0.239 C 
ATOM      4  O   UNL     1      10.041  -3.714  24.359  0.00  0.00    -0.271 OA
ENDROOT
BRANCH   3   5
ATOM      5  C   UNL     1       9.152  -1.694  23.545  0.00  0.00    +0.068 C 
ATOM      6  C   UNL     1       9.455  -0.817  24.516  0.00  0.00    +0.014 C 
BRANCH   6   7
ATOM      7  C   UNL     1       9.552   0.626  24.268  0.00  0.00    -0.006 A 
ATOM      8  C   UNL     1       8.786   1.555  24.980  0.00  0.00    +0.016 A 
ATOM      9  C   UNL     1       8.896   2.916  24.698  0.00  0.00    -0.006 A 
ATOM     10  C   UNL     1       9.740   3.301  23.664  0.00  0.00    +0.128 A 
ATOM     11  N   UNL     1       9.787   4.636  23.290  0.00  0.00    -0.270 N 
ATOM     12  H   UNL     1      10.272   4.851  22.430  0.00  0.00    +0.156 HD
ATOM     13  C   UNL     1       9.158   5.648  23.957  0.00  0.00    +0.219 C 
ATOM     14  C   UNL     1       8.640   5.312  25.337  0.00  0.00    +0.101 C 
ATOM     15  O   UNL     1       9.115   6.788  23.504  0.00  0.00    -0.275 OA
ATOM     16  N   UNL     1      10.479   2.442  22.940  0.00  0.00    -0.239 NA
ATOM     17  C   UNL     1       8.035   3.921  25.397  0.00  0.00    +0.048 C 
ATOM     18  C   UNL     1      10.373   1.127  23.263  0.00  0.00    +0.120 A 
ENDBRANCH   6   7
ENDBRANCH   3   5
BRANCH   2  19
ATOM     19  C   UNL     1       6.783  -3.247  22.745  0.00  0.00    +0.145 C 
BRANCH  19  20
ATOM     20  C   UNL     1       5.519  -3.319  23.550  0.00  0.00    -0.005 A 
ATOM     21  C   UNL     1       5.205  -2.517  24.705  0.00  0.00    +0.005 A 
ATOM     22  C   UNL     1       3.986  -2.968  25.222  0.00  0.00    +0.049 A 
ATOM     23  C   UNL     1       3.405  -2.410  26.374  0.00  0.00    +0.026 A 
ATOM     24  C   UNL     1       4.078  -1.366  27.012  0.00  0.00    +0.002 A 
ATOM     25  C   UNL     1       5.291  -0.895  26.521  0.00  0.00    +0.001 A 
ATOM     26  N   UNL     1       3.568  -4.000  24.413  0.00  0.00    -0.349 N 
ATOM     27  C   UNL     1       2.381  -4.797  24.637  0.00  0.00    +0.149 C 
ATOM     28  C   UNL     1       5.864  -1.461  25.376  0.00  0.00    +0.010 A 
ATOM     29  C   UNL     1       4.463  -4.200  23.396  0.00  0.00    +0.091 A 
ENDBRANCH  19  20
ENDBRANCH   2  19
TORSDOF 4
ENDMDL
MODEL 7
REMARK VINA RESULT:      -6.6      1.748      2.185
REMARK  Name = 
REMARK  6 active torsions:
REMARK  status: ('A' for Active; 'I' for Inactive)
REMARK    1  A    between atoms: C_1  and  N_2
REMARK    2  A    between atoms: N_2  and  C_3
REMARK    3  A    between atoms: C_3  and  C_4
REMARK    4  A    between atoms: N_6  and  C_7
REMARK    5  A    between atoms: C_14  and  C_16
REMARK    6  A    between atoms: C_17  and  C_18
REMARK                            x       y       z     vdW  Elec       q    Type
REMARK                         _______ _______ _______ _____ _____    ______ ____
ROOT
ATOM      1  C   UNL     1      10.171   0.972  22.258  0.00  0.00    +0.132 C 
ATOM      2  N   UNL     1       9.028   0.074  22.273  0.00  0.00    -0.297 N 
ATOM      3  C   UNL     1       9.309  -1.284  22.231  0.00  0.00    +0.239 C 
ATOM      4  O   UNL     1      10.456  -1.722  22.141  0.00  0.00    -0.271 OA
ENDROOT
BRANCH   3   5
ATOM      5  C   UNL     1       8.162  -2.223  22.291  0.00  0.00    +0.068 C 
ATOM      6  C   UNL     1       8.115  -3.207  23.204  0.00  0.00    +0.014 C 
BRANCH   6   7
ATOM      7  C   UNL     1       6.978  -4.129  23.305  0.00  0.00    -0.006 A 
ATOM      8  C   UNL     1       6.645  -4.769  24.503  0.00  0.00    +0.016 A 
ATOM      9  C   UNL     1       5.567  -5.653  24.550  0.00  0.00    -0.006 A 
ATOM     10  C   UNL     1       4.885  -5.911  23.368  0.00  0.00    +0.128 A 
ATOM     11  N   UNL     1       3.879  -6.866  23.361  0.00  0.00    -0.270 N 
ATOM     12  H   UNL     1       3.528  -7.150  22.457  0.00  0.00    +0.156 HD
ATOM     13  C   UNL     1       3.403  -7.494  24.475  0.00  0.00    +0.219 C 
ATOM     14  C   UNL     1       3.798  -6.884  25.801  0.00  0.00    +0.101 C 
ATOM     15  O   UNL     1       2.614  -8.432  24.398  0.00  0.00    -0.275 OA
ATOM     16  N   UNL     1       5.183  -5.334  22.190  0.00  0.00    -0.239 NA
ATOM     17  C   UNL     1       5.238  -6.403  25.803  0.00  0.00    +0.048 C 
ATOM     18  C   UNL     1       6.216  -4.454  22.187  0.00  0.00    +0.120 A 
ENDBRANCH   6   7
ENDBRANCH   3   5
BRANCH   2  19
ATOM     19  C   UNL     1       7.702   0.681  22.430  0.00  0.00    +0.145 C 
BRANCH  19  20
ATOM     20  C   UNL     1       7.399   1.068  23.847  0.00  0.00    -0.005 A 
ATOM     21  C   UNL     1       6.570   0.333  24.767  0.00  0.00    +0.005 A 
ATOM     22  C   UNL     1       6.460   1.085  25.941  0.00  0.00    +0.049 A 
ATOM     23  C   UNL     1       5.691   0.658  27.038  0.00  0.00    +0.026 A 
ATOM     24  C   UNL     1       5.023  -0.564  26.939  0.00  0.00    +0.002 A 
ATOM     25  C   UNL     1       5.115  -1.335  25.785  0.00  0.00    +0.001 A 
ATOM     26  N   UNL     1       7.196   2.232  25.749  0.00  0.00    -0.349 N 
ATOM     27  C   UNL     1       7.290   3.321  26.698  0.00  0.00    +0.149 C 
ATOM     28  C   UNL     1       5.879  -0.899  24.696  0.00  0.00    +0.010 A 
ATOM     29  C   UNL     1       7.783   2.220  24.512  0.00  0.00    +0.091 A 
ENDBRANCH  19  20
ENDBRANCH   2  19
TORSDOF 4
ENDMDL
MODEL 8
REMARK VINA RESULT:      -6.5      2.321      7.151
REMARK  Name = 
REMARK  6 active torsions:
REMARK  status: ('A' for Active; 'I' for Inactive)
REMARK    1  A    between atoms: C_1  and  N_2
REMARK    2  A    between atoms: N_2  and  C_3
REMARK    3  A    between atoms: C_3  and  C_4
REMARK    4  A    between atoms: N_6  and  C_7
REMARK    5  A    between atoms: C_14  and  C_16
REMARK    6  A    between atoms: C_17  and  C_18
REMARK                            x       y       z     vdW  Elec       q    Type
REMARK                         _______ _______ _______ _____ _____    ______ ____
ROOT
ATOM      1  C   UNL     1       2.183  -5.925  27.470  0.00  0.00    +0.132 C 
ATOM      2  N   UNL     1       3.450  -5.238  27.286  0.00  0.00    -0.297 N 
ATOM      3  C   UNL     1       3.401  -3.851  27.253  0.00  0.00    +0.239 C 
ATOM      4  O   UNL     1       2.346  -3.222  27.330  0.00  0.00    -0.271 OA
ENDROOT
BRANCH   3   5
ATOM      5  C   UNL     1       4.687  -3.124  27.113  0.00  0.00    +0.068 C 
ATOM      6  C   UNL     1       4.976  -2.429  26.000  0.00  0.00    +0.014 C 
BRANCH   6   7
ATOM      7  C   UNL     1       6.226  -1.676  25.849  0.00  0.00    -0.006 A 
ATOM      8  C   UNL     1       6.904  -1.600  24.628  0.00  0.00    +0.016 A 
ATOM      9  C   UNL     1       8.100  -0.888  24.533  0.00  0.00    -0.006 A 
ATOM     10  C   UNL     1       8.610  -0.315  25.691  0.00  0.00    +0.128 A 
ATOM     11  N   UNL     1       9.849   0.306  25.650  0.00  0.00    -0.270 N 
ATOM     12  H   UNL     1      10.264   0.554  26.537  0.00  0.00    +0.156 HD
ATOM     13  C   UNL     1      10.568   0.521  24.509  0.00  0.00    +0.219 C 
ATOM     14  C   UNL     1       9.820   0.336  23.209  0.00  0.00    +0.101 C 
ATOM     15  O   UNL     1      11.720   0.946  24.545  0.00  0.00    -0.275 OA
ATOM     16  N   UNL     1       8.003  -0.380  26.889  0.00  0.00    -0.239 NA
ATOM     17  C   UNL     1       8.878  -0.853  23.255  0.00  0.00    +0.048 C 
ATOM     18  C   UNL     1       6.825  -1.052  26.939  0.00  0.00    +0.120 A 
ENDBRANCH   6   7
ENDBRANCH   3   5
BRANCH   2  19
ATOM     19  C   UNL     1       4.663  -6.064  27.253  0.00  0.00    +0.145 C 
BRANCH  19  20
ATOM     20  C   UNL     1       5.439  -5.911  25.978  0.00  0.00    -0.005 A 
ATOM     21  C   UNL     1       6.789  -5.425  25.864  0.00  0.00    +0.005 A 
ATOM     22  C   UNL     1       7.100  -5.337  24.503  0.00  0.00    +0.049 A 
ATOM     23  C   UNL     1       8.343  -4.868  24.044  0.00  0.00    +0.026 A 
ATOM     24  C   UNL     1       9.294  -4.484  24.991  0.00  0.00    +0.002 A 
ATOM     25  C   UNL     1       9.015  -4.562  26.352  0.00  0.00    +0.001 A 
ATOM     26  N   UNL     1       5.985  -5.756  23.813  0.00  0.00    -0.349 N 
ATOM     27  C   UNL     1       5.857  -5.754  22.371  0.00  0.00    +0.149 C 
ATOM     28  C   UNL     1       7.772  -5.026  26.799  0.00  0.00    +0.010 A 
ATOM     29  C   UNL     1       4.997  -6.127  24.684  0.00  0.00    +0.091 A 
ENDBRANCH  19  20
ENDBRANCH   2  19
TORSDOF 4
ENDMDL
MODEL 9
REMARK VINA RESULT:      -6.5      2.624      4.500
REMARK  Name = 
REMARK  6 active torsions:
REMARK  status: ('A' for Active; 'I' for Inactive)
REMARK    1  A    between atoms: C_1  and  N_2
REMARK    2  A    between atoms: N_2  and  C_3
REMARK    3  A    between atoms: C_3  and  C_4
REMARK    4  A    between atoms: N_6  and  C_7
REMARK    5  A    between atoms: C_14  and  C_16
REMARK    6  A    between atoms: C_17  and  C_18
REMARK                            x       y       z     vdW  Elec       q    Type
REMARK                         _______ _______ _______ _____ _____    ______ ____
ROOT
ATOM      1  C   UNL     1       6.870   0.196  26.791  0.00  0.00    +0.132 C 
ATOM      2  N   UNL     1       6.286  -0.851  25.970  0.00  0.00    -0.297 N 
ATOM      3  C   UNL     1       5.197  -1.522  26.509  0.00  0.00    +0.239 C 
ATOM      4  O   UNL     1       4.764  -1.287  27.637  0.00  0.00    -0.271 OA
ENDROOT
BRANCH   3   5
ATOM      5  C   UNL     1       4.553  -2.565  25.672  0.00  0.00    +0.068 C 
ATOM      6  C   UNL     1       4.741  -3.872  25.921  0.00  0.00    +0.014 C 
BRANCH   6   7
ATOM      7  C   UNL     1       4.091  -4.922  25.129  0.00  0.00    -0.006 A 
ATOM      8  C   UNL     1       2.865  -4.718  24.488  0.00  0.00    +0.016 A 
ATOM      9  C   UNL     1       2.274  -5.751  23.760  0.00  0.00    -0.006 A 
ATOM     10  C   UNL     1       2.913  -6.984  23.744  0.00  0.00    +0.128 A 
ATOM     11  N   UNL     1       2.295  -8.058  23.120  0.00  0.00    -0.270 N 
ATOM     12  H   UNL     1       2.700  -8.970  23.278  0.00  0.00    +0.156 HD
ATOM     13  C   UNL     1       1.146  -7.970  22.389  0.00  0.00    +0.219 C 
ATOM     14  C   UNL     1       0.709  -6.574  22.004  0.00  0.00    +0.101 C 
ATOM     15  O   UNL     1       0.566  -8.971  21.978  0.00  0.00    -0.275 OA
ATOM     16  N   UNL     1       4.081  -7.231  24.363  0.00  0.00    -0.239 NA
ATOM     17  C   UNL     1       0.930  -5.576  23.127  0.00  0.00    +0.048 C 
ATOM     18  C   UNL     1       4.646  -6.195  25.034  0.00  0.00    +0.120 A 
ENDBRANCH   6   7
ENDBRANCH   3   5
BRANCH   2  19
ATOM     19  C   UNL     1       6.834  -1.030  24.622  0.00  0.00    +0.145 C 
BRANCH  19  20
ATOM     20  C   UNL     1       7.452  -2.383  24.417  0.00  0.00    -0.005 A 
ATOM     21  C   UNL     1       7.068  -3.345  23.417  0.00  0.00    +0.005 A 
ATOM     22  C   UNL     1       7.812  -4.509  23.633  0.00  0.00    +0.049 A 
ATOM     23  C   UNL     1       7.657  -5.659  22.840  0.00  0.00    +0.026 A 
ATOM     24  C   UNL     1       6.727  -5.622  21.800  0.00  0.00    +0.002 A 
ATOM     25  C   UNL     1       5.972  -4.478  21.559  0.00  0.00    +0.001 A 
ATOM     26  N   UNL     1       8.622  -4.267  24.719  0.00  0.00    -0.349 N 
ATOM     27  C   UNL     1       9.507  -5.241  25.323  0.00  0.00    +0.149 C 
ATOM     28  C   UNL     1       6.130  -3.339  22.358  0.00  0.00    +0.010 A 
ATOM     29  C   UNL     1       8.435  -2.991  25.178  0.00  0.00    +0.091 A 
ENDBRANCH  19  20
ENDBRANCH   2  19
TORSDOF 4
ENDMDL
