MODEL 1
REMARK VINA RESULT:      -7.3      0.000      0.000
REMARK  Name = 
REMARK  11 active torsions:
REMARK  status: ('A' for Active; 'I' for Inactive)
REMARK    1  A    between atoms: C_1  and  O_2
REMARK    2  A    between atoms: O_2  and  C_3
REMARK    3  A    between atoms: C_5  and  N_6
REMARK    4  A    between atoms: C_9  and  N_13
REMARK    5  A    between atoms: N_13  and  C_14
REMARK    6  A    between atoms: N_13  and  C_15
REMARK    7  A    between atoms: C_21  and  C_22
REMARK    8  A    between atoms: C_26  and  O_27
REMARK    9  A    between atoms: O_27  and  C_28
REMARK   10  A    between atoms: C_29  and  O_30
REMARK   11  A    between atoms: O_30  and  C_31
REMARK                            x       y       z     vdW  Elec       q    Type
REMARK                         _______ _______ _______ _____ _____    ______ ____
ROOT
ATOM      1  N   UNL     1       8.008  -4.332  23.345  0.00  0.00    -0.283 N 
ATOM      2  H   UNL     1       8.758  -4.939  23.044  0.00  0.00    +0.155 HD
ATOM      3  C   UNL     1       8.495  -3.020  23.393  0.00  0.00    +0.221 A 
ATOM      4  N   UNL     1       9.769  -2.872  23.020  0.00  0.00    -0.223 NA
ATOM      5  C   UNL     1      10.244  -1.620  23.026  0.00  0.00    +0.118 A 
ATOM      6  C   UNL     1       9.493  -0.521  23.373  0.00  0.00    +0.064 A 
ATOM      7  C   UNL     1       8.193  -0.736  23.795  0.00  0.00    +0.130 A 
ATOM      8  N   UNL     1       7.713  -1.993  23.775  0.00  0.00    -0.199 NA
ENDROOT
BRANCH   1  13
ATOM      9  C   UNL     1       6.065  -5.871  26.153  0.00  0.00    +0.167 A 
ATOM     10  C   UNL     1       4.861  -6.215  25.508  0.00  0.00    +0.204 A 
ATOM     11  C   UNL     1       4.736  -5.936  24.129  0.00  0.00    +0.167 A 
ATOM     12  C   UNL     1       5.792  -5.307  23.441  0.00  0.00    +0.073 A 
ATOM     13  C   UNL     1       6.983  -4.952  24.076  0.00  0.00    +0.041 A 
ATOM     14  C   UNL     1       7.066  -5.193  25.444  0.00  0.00    +0.073 A 
BRANCH   9  16
ATOM     15  C   UNL     1       6.058  -5.186  28.432  0.00  0.00    +0.277 C 
ATOM     16  O   UNL     1       6.251  -6.222  27.469  0.00  0.00    -0.491 OA
ENDBRANCH   9  16
BRANCH  10  17
ATOM     17  O   UNL     1       3.818  -6.860  26.113  0.00  0.00    -0.488 OA
ATOM     18  C   UNL     1       2.846  -6.097  26.811  0.00  0.00    +0.277 C 
ENDBRANCH  10  17
BRANCH  11  19
ATOM     19  O   UNL     1       3.680  -6.199  23.290  0.00  0.00    -0.491 OA
ATOM     20  C   UNL     1       2.580  -5.304  23.252  0.00  0.00    +0.277 C 
ENDBRANCH  11  19
ENDBRANCH   1  13
BRANCH   7  21
ATOM     21  N   UNL     1       7.362   0.326  24.253  0.00  0.00    -0.288 N 
ATOM     22  C   UNL     1       5.978  -0.024  24.602  0.00  0.00    +0.137 C 
BRANCH  21  23
ATOM     23  C   UNL     1       7.610   1.729  24.094  0.00  0.00    +0.037 A 
ATOM     24  C   UNL     1       8.250   2.498  25.092  0.00  0.00    +0.024 A 
ATOM     25  C   UNL     1       8.479   3.880  24.973  0.00  0.00    +0.013 A 
ATOM     26  C   UNL     1       8.073   4.532  23.806  0.00  0.00    +0.023 A 
ATOM     27  C   UNL     1       8.101   5.864  23.314  0.00  0.00    +0.067 A 
ATOM     28  N   UNL     1       7.587   5.948  22.081  0.00  0.00    -0.178 NA
ATOM     29  N   UNL     1       7.215   4.682  21.802  0.00  0.00    -0.277 N 
ATOM     30  H   UNL     1       6.782   4.496  20.905  0.00  0.00    +0.189 HD
ATOM     31  C   UNL     1       8.602   7.079  24.004  0.00  0.00    +0.068 C 
ATOM     32  C   UNL     1       7.476   3.784  22.802  0.00  0.00    +0.068 A 
ATOM     33  C   UNL     1       7.234   2.402  22.911  0.00  0.00    +0.051 A 
ENDBRANCH  21  23
ENDBRANCH   7  21
TORSDOF 6
ENDMDL
MODEL 2
REMARK VINA RESULT:      -7.2      4.761      9.866
REMARK  Name = 
REMARK  11 active torsions:
REMARK  status: ('A' for Active; 'I' for Inactive)
REMARK    1  A    between atoms: C_1  and  O_2
REMARK    2  A    between atoms: O_2  and  C_3
REMARK    3  A    between atoms: C_5  and  N_6
REMARK    4  A    between atoms: C_9  and  N_13
REMARK    5  A    between atoms: N_13  and  C_14
REMARK    6  A    between atoms: N_13  and  C_15
REMARK    7  A    between atoms: C_21  and  C_22
REMARK    8  A    between atoms: C_26  and  O_27
REMARK    9  A    between atoms: O_27  and  C_28
REMARK   10  A    between atoms: C_29  and  O_30
REMARK   11  A    between atoms: O_30  and  C_31
REMARK                            x       y       z     vdW  Elec       q    Type
REMARK                         _______ _______ _______ _____ _____    ______ ____
ROOT
ATOM      1  N   UNL     1      10.190   1.422  22.337  0.00  0.00    -0.283 N 
ATOM      2  H   UNL     1      10.400   1.394  21.349  0.00  0.00    +0.155 HD
ATOM      3  C   UNL     1       9.621   0.196  22.701  0.00  0.00    +0.221 A 
ATOM      4  N   UNL     1       9.517  -0.699  21.716  0.00  0.00    -0.223 NA
ATOM      5  C   UNL     1       9.007  -1.891  22.050  0.00  0.00    +0.118 A 
ATOM      6  C   UNL     1       8.616  -2.221  23.328  0.00  0.00    +0.064 A 
ATOM      7  C   UNL     1       8.702  -1.242  24.302  0.00  0.00    +0.130 A 
ATOM      8  N   UNL     1       9.229  -0.049  23.965  0.00  0.00    -0.199 NA
ENDROOT
BRANCH   1  13
ATOM      9  C   UNL     1       8.621   4.539  23.698  0.00  0.00    +0.167 A 
ATOM     10  C   UNL     1       9.756   5.317  24.002  0.00  0.00    +0.204 A 
ATOM     11  C   UNL     1      11.031   4.778  23.723  0.00  0.00    +0.167 A 
ATOM     12  C   UNL     1      11.144   3.484  23.178  0.00  0.00    +0.073 A 
ATOM     13  C   UNL     1      10.025   2.703  22.885  0.00  0.00    +0.041 A 
ATOM     14  C   UNL     1       8.781   3.234  23.211  0.00  0.00    +0.073 A 
BRANCH   9  16
ATOM     15  C   UNL     1       6.746   5.604  22.693  0.00  0.00    +0.277 C 
ATOM     16  O   UNL     1       7.368   5.079  23.865  0.00  0.00    -0.491 OA
ENDBRANCH   9  16
BRANCH  10  17
ATOM     17  O   UNL     1       9.709   6.591  24.497  0.00  0.00    -0.488 OA
ATOM     18  C   UNL     1       9.717   6.786  25.902  0.00  0.00    +0.277 C 
ENDBRANCH  10  17
BRANCH  11  19
ATOM     19  O   UNL     1      12.267   5.351  23.908  0.00  0.00    -0.491 OA
ATOM     20  C   UNL     1      13.254   5.220  22.897  0.00  0.00    +0.277 C 
ENDBRANCH  11  19
ENDBRANCH   1  13
BRANCH   7  21
ATOM     21  N   UNL     1       8.246  -1.458  25.633  0.00  0.00    -0.288 N 
ATOM     22  C   UNL     1       8.969  -0.751  26.700  0.00  0.00    +0.137 C 
BRANCH  21  23
ATOM     23  C   UNL     1       7.402  -2.527  26.079  0.00  0.00    +0.037 A 
ATOM     24  C   UNL     1       5.993  -2.455  26.002  0.00  0.00    +0.024 A 
ATOM     25  C   UNL     1       5.142  -3.477  26.458  0.00  0.00    +0.013 A 
ATOM     26  C   UNL     1       5.708  -4.633  27.002  0.00  0.00    +0.023 A 
ATOM     27  C   UNL     1       5.224  -5.841  27.569  0.00  0.00    +0.067 A 
ATOM     28  N   UNL     1       6.223  -6.657  27.925  0.00  0.00    -0.178 NA
ATOM     29  N   UNL     1       7.334  -5.962  27.606  0.00  0.00    -0.277 N 
ATOM     30  H   UNL     1       8.235  -6.384  27.796  0.00  0.00    +0.189 HD
ATOM     31  C   UNL     1       3.812  -6.239  27.796  0.00  0.00    +0.068 C 
ATOM     32  C   UNL     1       7.090  -4.734  27.052  0.00  0.00    +0.068 A 
ATOM     33  C   UNL     1       7.954  -3.716  26.605  0.00  0.00    +0.051 A 
ENDBRANCH  21  23
ENDBRANCH   7  21
TORSDOF 6
ENDMDL
MODEL 3
REMARK VINA RESULT:      -7.1      0.150      2.183
REMARK  Name = 
REMARK  11 active torsions:
REMARK  status: ('A' for Active; 'I' for Inactive)
REMARK    1  A    between atoms: C_1  and  O_2
REMARK    2  A    between atoms: O_2  and  C_3
REMARK    3  A    between atoms: C_5  and  N_6
REMARK    4  A    between atoms: C_9  and  N_13
REMARK    5  A    between atoms: N_13  and  C_14
REMARK    6  A    between atoms: N_13  and  C_15
REMARK    7  A    between atoms: C_21  and  C_22
REMARK    8  A    between atoms: C_26  and  O_27
REMARK    9  A    between atoms: O_27  and  C_28
REMARK   10  A    between atoms: C_29  and  O_30
REMARK   11  A    between atoms: O_30  and  C_31
REMARK                            x       y       z     vdW  Elec       q    Type
REMARK                         _______ _______ _______ _____ _____    ______ ____
ROOT
ATOM      1  N   UNL     1       7.925  -4.370  23.257  0.00  0.00    -0.283 N 
ATOM      2  H   UNL     1       8.676  -4.973  22.950  0.00  0.00    +0.155 HD
ATOM      3  C   UNL     1       8.424  -3.067  23.368  0.00  0.00    +0.221 A 
ATOM      4  N   UNL     1       9.708  -2.918  23.032  0.00  0.00    -0.223 NA
ATOM      5  C   UNL     1      10.196  -1.673  23.098  0.00  0.00    +0.118 A 
ATOM      6  C   UNL     1       9.448  -0.580  23.469  0.00  0.00    +0.064 A 
ATOM      7  C   UNL     1       8.136  -0.796  23.851  0.00  0.00    +0.130 A 
ATOM      8  N   UNL     1       7.643  -2.047  23.770  0.00  0.00    -0.199 NA
ENDROOT
BRANCH   1  13
ATOM      9  C   UNL     1       4.645  -6.017  24.005  0.00  0.00    +0.167 A 
ATOM     10  C   UNL     1       4.778  -6.300  25.379  0.00  0.00    +0.204 A 
ATOM     11  C   UNL     1       5.970  -5.911  26.031  0.00  0.00    +0.167 A 
ATOM     12  C   UNL     1       6.996  -5.279  25.301  0.00  0.00    +0.073 A 
ATOM     13  C   UNL     1       6.876  -5.006  23.938  0.00  0.00    +0.041 A 
ATOM     14  C   UNL     1       5.715  -5.440  23.306  0.00  0.00    +0.073 A 
BRANCH   9  16
ATOM     15  C   UNL     1       2.521  -5.219  23.289  0.00  0.00    +0.277 C 
ATOM     16  O   UNL     1       3.457  -6.294  23.371  0.00  0.00    -0.491 OA
ENDBRANCH   9  16
BRANCH  10  17
ATOM     17  O   UNL     1       3.804  -6.876  26.147  0.00  0.00    -0.488 OA
ATOM     18  C   UNL     1       2.862  -6.044  26.804  0.00  0.00    +0.277 C 
ENDBRANCH  10  17
BRANCH  11  19
ATOM     19  O   UNL     1       6.313  -6.056  27.353  0.00  0.00    -0.491 OA
ATOM     20  C   UNL     1       6.020  -5.011  28.268  0.00  0.00    +0.277 C 
ENDBRANCH  11  19
ENDBRANCH   1  13
BRANCH   7  21
ATOM     21  N   UNL     1       7.305   0.256  24.330  0.00  0.00    -0.288 N 
ATOM     22  C   UNL     1       5.934  -0.110  24.713  0.00  0.00    +0.137 C 
BRANCH  21  23
ATOM     23  C   UNL     1       7.533   1.661  24.165  0.00  0.00    +0.037 A 
ATOM     24  C   UNL     1       8.106   2.455  25.185  0.00  0.00    +0.024 A 
ATOM     25  C   UNL     1       8.314   3.840  25.059  0.00  0.00    +0.013 A 
ATOM     26  C   UNL     1       7.955   4.469  23.864  0.00  0.00    +0.023 A 
ATOM     27  C   UNL     1       7.982   5.796  23.358  0.00  0.00    +0.067 A 
ATOM     28  N   UNL     1       7.530   5.854  22.099  0.00  0.00    -0.178 NA
ATOM     29  N   UNL     1       7.197   4.579  21.818  0.00  0.00    -0.277 N 
ATOM     30  H   UNL     1       6.814   4.373  20.903  0.00  0.00    +0.189 HD
ATOM     31  C   UNL     1       8.423   7.029  24.056  0.00  0.00    +0.068 C 
ATOM     32  C   UNL     1       7.424   3.698  22.841  0.00  0.00    +0.068 A 
ATOM     33  C   UNL     1       7.204   2.313  22.956  0.00  0.00    +0.051 A 
ENDBRANCH  21  23
ENDBRANCH   7  21
TORSDOF 6
ENDMDL
MODEL 4
REMARK VINA RESULT:      -7.1      2.985      4.694
REMARK  Name = 
REMARK  11 active torsions:
REMARK  status: ('A' for Active; 'I' for Inactive)
REMARK    1  A    between atoms: C_1  and  O_2
REMARK    2  A    between atoms: O_2  and  C_3
REMARK    3  A    between atoms: C_5  and  N_6
REMARK    4  A    between atoms: C_9  and  N_13
REMARK    5  A    between atoms: N_13  and  C_14
REMARK    6  A    between atoms: N_13  and  C_15
REMARK    7  A    between atoms: C_21  and  C_22
REMARK    8  A    between atoms: C_26  and  O_27
REMARK    9  A    between atoms: O_27  and  C_28
REMARK   10  A    between atoms: C_29  and  O_30
REMARK   11  A    between atoms: O_30  and  C_31
REMARK                            x       y       z     vdW  Elec       q    Type
REMARK                         _______ _______ _______ _____ _____    ______ ____
ROOT
ATOM      1  N   UNL     1       3.906  -5.836  24.217  0.00  0.00    -0.283 N 
ATOM      2  H   UNL     1       3.225  -6.328  23.655  0.00  0.00    +0.155 HD
ATOM      3  C   UNL     1       5.044  -5.611  23.433  0.00  0.00    +0.221 A 
ATOM      4  N   UNL     1       4.964  -6.049  22.174  0.00  0.00    -0.223 NA
ATOM      5  C   UNL     1       6.028  -5.813  21.397  0.00  0.00    +0.118 A 
ATOM      6  C   UNL     1       7.153  -5.146  21.826  0.00  0.00    +0.064 A 
ATOM      7  C   UNL     1       7.202  -4.754  23.152  0.00  0.00    +0.130 A 
ATOM      8  N   UNL     1       6.125  -4.980  23.928  0.00  0.00    -0.199 NA
ENDROOT
BRANCH   1  13
ATOM      9  C   UNL     1       4.590  -6.759  27.782  0.00  0.00    +0.167 A 
ATOM     10  C   UNL     1       3.436  -6.270  28.426  0.00  0.00    +0.204 A 
ATOM     11  C   UNL     1       2.439  -5.653  27.638  0.00  0.00    +0.167 A 
ATOM     12  C   UNL     1       2.625  -5.519  26.248  0.00  0.00    +0.073 A 
ATOM     13  C   UNL     1       3.770  -5.989  25.605  0.00  0.00    +0.041 A 
ATOM     14  C   UNL     1       4.760  -6.551  26.406  0.00  0.00    +0.073 A 
BRANCH   9  16
ATOM     15  C   UNL     1       6.488  -6.664  29.213  0.00  0.00    +0.277 C 
ATOM     16  O   UNL     1       5.527  -7.452  28.510  0.00  0.00    -0.491 OA
ENDBRANCH   9  16
BRANCH  10  17
ATOM     17  O   UNL     1       3.182  -6.404  29.763  0.00  0.00    -0.488 OA
ATOM     18  C   UNL     1       2.515  -7.567  30.226  0.00  0.00    +0.277 C 
ENDBRANCH  10  17
BRANCH  11  19
ATOM     19  O   UNL     1       1.232  -5.129  28.034  0.00  0.00    -0.491 OA
ATOM     20  C   UNL     1       1.181  -3.808  28.550  0.00  0.00    +0.277 C 
ENDBRANCH  11  19
ENDBRANCH   1  13
BRANCH   7  21
ATOM     21  N   UNL     1       8.353  -4.132  23.714  0.00  0.00    -0.288 N 
ATOM     22  C   UNL     1       8.978  -4.812  24.857  0.00  0.00    +0.137 C 
BRANCH  21  23
ATOM     23  C   UNL     1       8.766  -2.773  23.518  0.00  0.00    +0.037 A 
ATOM     24  C   UNL     1       8.611  -2.110  22.280  0.00  0.00    +0.024 A 
ATOM     25  C   UNL     1       9.032  -0.788  22.054  0.00  0.00    +0.013 A 
ATOM     26  C   UNL     1       9.621  -0.080  23.105  0.00  0.00    +0.023 A 
ATOM     27  C   UNL     1      10.176   1.215  23.283  0.00  0.00    +0.067 A 
ATOM     28  N   UNL     1      10.596   1.405  24.539  0.00  0.00    -0.178 NA
ATOM     29  N   UNL     1      10.330   0.232  25.148  0.00  0.00    -0.277 N 
ATOM     30  H   UNL     1      10.575   0.132  26.126  0.00  0.00    +0.189 HD
ATOM     31  C   UNL     1      10.330   2.287  22.268  0.00  0.00    +0.068 C 
ATOM     32  C   UNL     1       9.748  -0.705  24.337  0.00  0.00    +0.068 A 
ATOM     33  C   UNL     1       9.337  -2.029  24.575  0.00  0.00    +0.051 A 
ENDBRANCH  21  23
ENDBRANCH   7  21
TORSDOF 6
ENDMDL
MODEL 5
REMARK VINA RESULT:      -6.9      4.316      9.315
REMARK  Name = 
REMARK  11 active torsions:
REMARK  status: ('A' for Active; 'I' for Inactive)
REMARK    1  A    between atoms: C_1  and  O_2
REMARK    2  A    between atoms: O_2  and  C_3
REMARK    3  A    between atoms: C_5  and  N_6
REMARK    4  A    between atoms: C_9  and  N_13
REMARK    5  A    between atoms: N_13  and  C_14
REMARK    6  A    between atoms: N_13  and  C_15
REMARK    7  A    between atoms: C_21  and  C_22
REMARK    8  A    between atoms: C_26  and  O_27
REMARK    9  A    between atoms: O_27  and  C_28
REMARK   10  A    between atoms: C_29  and  O_30
REMARK   11  A    between atoms: O_30  and  C_31
REMARK                            x       y       z     vdW  Elec       q    Type
REMARK                         _______ _______ _______ _____ _____    ______ ____
ROOT
ATOM      1  N   UNL     1       9.819   1.970  22.757  0.00  0.00    -0.283 N 
ATOM      2  H   UNL     1      10.263   2.098  21.857  0.00  0.00    +0.155 HD
ATOM      3  C   UNL     1       9.672   0.596  22.984  0.00  0.00    +0.221 A 
ATOM      4  N   UNL     1      10.153  -0.195  22.021  0.00  0.00    -0.223 NA
ATOM      5  C   UNL     1      10.052  -1.513  22.233  0.00  0.00    +0.118 A 
ATOM      6  C   UNL     1       9.508  -2.063  23.372  0.00  0.00    +0.064 A 
ATOM      7  C   UNL     1       8.983  -1.198  24.317  0.00  0.00    +0.130 A 
ATOM      8  N   UNL     1       9.098   0.127  24.107  0.00  0.00    -0.199 NA
ENDROOT
BRANCH   1  13
ATOM      9  C   UNL     1       8.774   5.037  24.633  0.00  0.00    +0.167 A 
ATOM     10  C   UNL     1       7.478   5.252  24.123  0.00  0.00    +0.204 A 
ATOM     11  C   UNL     1       6.975   4.343  23.166  0.00  0.00    +0.167 A 
ATOM     12  C   UNL     1       7.775   3.269  22.729  0.00  0.00    +0.073 A 
ATOM     13  C   UNL     1       9.064   3.057  23.220  0.00  0.00    +0.041 A 
ATOM     14  C   UNL     1       9.557   3.991  24.126  0.00  0.00    +0.073 A 
BRANCH   9  16
ATOM     15  C   UNL     1      10.157   6.874  25.244  0.00  0.00    +0.277 C 
ATOM     16  O   UNL     1       9.247   5.848  25.638  0.00  0.00    -0.491 OA
ENDBRANCH   9  16
BRANCH  10  17
ATOM     17  O   UNL     1       6.642   6.253  24.535  0.00  0.00    -0.488 OA
ATOM     18  C   UNL     1       5.740   6.003  25.602  0.00  0.00    +0.277 C 
ENDBRANCH  10  17
BRANCH  11  19
ATOM     19  O   UNL     1       5.746   4.333  22.552  0.00  0.00    -0.491 OA
ATOM     20  C   UNL     1       4.909   3.194  22.685  0.00  0.00    +0.277 C 
ENDBRANCH  11  19
ENDBRANCH   1  13
BRANCH   7  21
ATOM     21  N   UNL     1       8.325  -1.670  25.488  0.00  0.00    -0.288 N 
ATOM     22  C   UNL     1       8.786  -1.117  26.770  0.00  0.00    +0.137 C 
BRANCH  21  23
ATOM     23  C   UNL     1       7.515  -2.847  25.593  0.00  0.00    +0.037 A 
ATOM     24  C   UNL     1       6.544  -3.181  24.622  0.00  0.00    +0.024 A 
ATOM     25  C   UNL     1       5.718  -4.315  24.715  0.00  0.00    +0.013 A 
ATOM     26  C   UNL     1       5.868  -5.170  25.810  0.00  0.00    +0.023 A 
ATOM     27  C   UNL     1       5.248  -6.361  26.271  0.00  0.00    +0.067 A 
ATOM     28  N   UNL     1       5.806  -6.803  27.405  0.00  0.00    -0.178 NA
ATOM     29  N   UNL     1       6.757  -5.886  27.673  0.00  0.00    -0.277 N 
ATOM     30  H   UNL     1       7.319  -6.007  28.507  0.00  0.00    +0.189 HD
ATOM     31  C   UNL     1       4.113  -7.095  25.657  0.00  0.00    +0.068 C 
ATOM     32  C   UNL     1       6.840  -4.875  26.753  0.00  0.00    +0.068 A 
ATOM     33  C   UNL     1       7.670  -3.740  26.676  0.00  0.00    +0.051 A 
ENDBRANCH  21  23
ENDBRANCH   7  21
TORSDOF 6
ENDMDL
MODEL 6
REMARK VINA RESULT:      -6.9      2.831      4.800
REMARK  Name = 
REMARK  11 active torsions:
REMARK  status: ('A' for Active; 'I' for Inactive)
REMARK    1  A    between atoms: C_1  and  O_2
REMARK    2  A    between atoms: O_2  and  C_3
REMARK    3  A    between atoms: C_5  and  N_6
REMARK    4  A    between atoms: C_9  and  N_13
REMARK    5  A    between atoms: N_13  and  C_14
REMARK    6  A    between atoms: N_13  and  C_15
REMARK    7  A    between atoms: C_21  and  C_22
REMARK    8  A    between atoms: C_26  and  O_27
REMARK    9  A    between atoms: O_27  and  C_28
REMARK   10  A    between atoms: C_29  and  O_30
REMARK   11  A    between atoms: O_30  and  C_31
REMARK                            x       y       z     vdW  Elec       q    Type
REMARK                         _______ _______ _______ _____ _____    ______ ____
ROOT
ATOM      1  N   UNL     1       3.647  -4.801  23.814  0.00  0.00    -0.283 N 
ATOM      2  H   UNL     1       2.953  -5.299  23.274  0.00  0.00    +0.155 HD
ATOM      3  C   UNL     1       4.896  -4.990  23.210  0.00  0.00    +0.221 A 
ATOM      4  N   UNL     1       4.883  -5.726  22.095  0.00  0.00    -0.223 NA
ATOM      5  C   UNL     1       6.061  -5.891  21.482  0.00  0.00    +0.118 A 
ATOM      6  C   UNL     1       7.239  -5.338  21.931  0.00  0.00    +0.064 A 
ATOM      7  C   UNL     1       7.204  -4.622  23.115  0.00  0.00    +0.130 A 
ATOM      8  N   UNL     1       6.015  -4.446  23.722  0.00  0.00    -0.199 NA
ENDROOT
BRANCH   1  13
ATOM      9  C   UNL     1       2.480  -3.095  26.937  0.00  0.00    +0.167 A 
ATOM     10  C   UNL     1       2.642  -4.116  27.894  0.00  0.00    +0.204 A 
ATOM     11  C   UNL     1       3.161  -5.358  27.467  0.00  0.00    +0.167 A 
ATOM     12  C   UNL     1       3.480  -5.558  26.110  0.00  0.00    +0.073 A 
ATOM     13  C   UNL     1       3.310  -4.555  25.154  0.00  0.00    +0.041 A 
ATOM     14  C   UNL     1       2.754  -3.356  25.588  0.00  0.00    +0.073 A 
BRANCH   9  16
ATOM     15  C   UNL     1       3.097  -0.864  27.486  0.00  0.00    +0.277 C 
ATOM     16  O   UNL     1       2.072  -1.847  27.345  0.00  0.00    -0.491 OA
ENDBRANCH   9  16
BRANCH  10  17
ATOM     17  O   UNL     1       2.386  -3.971  29.230  0.00  0.00    -0.488 OA
ATOM     18  C   UNL     1       3.439  -3.577  30.095  0.00  0.00    +0.277 C 
ENDBRANCH  10  17
BRANCH  11  19
ATOM     19  O   UNL     1       3.428  -6.482  28.213  0.00  0.00    -0.491 OA
ATOM     20  C   UNL     1       4.773  -6.804  28.531  0.00  0.00    +0.277 C 
ENDBRANCH  11  19
ENDBRANCH   1  13
BRANCH   7  21
ATOM     21  N   UNL     1       8.381  -4.082  23.706  0.00  0.00    -0.288 N 
ATOM     22  C   UNL     1       8.987  -4.859  24.796  0.00  0.00    +0.137 C 
BRANCH  21  23
ATOM     23  C   UNL     1       8.842  -2.729  23.597  0.00  0.00    +0.037 A 
ATOM     24  C   UNL     1       9.383  -2.027  24.699  0.00  0.00    +0.024 A 
ATOM     25  C   UNL     1       9.816  -0.692  24.626  0.00  0.00    +0.013 A 
ATOM     26  C   UNL     1       9.727  -0.021  23.404  0.00  0.00    +0.023 A 
ATOM     27  C   UNL     1      10.027   1.283  22.927  0.00  0.00    +0.067 A 
ATOM     28  N   UNL     1       9.768   1.404  21.620  0.00  0.00    -0.178 NA
ATOM     29  N   UNL     1       9.287   0.193  21.274  0.00  0.00    -0.277 N 
ATOM     30  H   UNL     1       9.008   0.045  20.312  0.00  0.00    +0.189 HD
ATOM     31  C   UNL     1      10.551   2.437  23.700  0.00  0.00    +0.068 C 
ATOM     32  C   UNL     1       9.232  -0.706  22.305  0.00  0.00    +0.068 A 
ATOM     33  C   UNL     1       8.788  -2.041  22.365  0.00  0.00    +0.051 A 
ENDBRANCH  21  23
ENDBRANCH   7  21
TORSDOF 6
ENDMDL
MODEL 7
REMARK VINA RESULT:      -6.9      4.318      9.525
REMARK  Name = 
REMARK  11 active torsions:
REMARK  status: ('A' for Active; 'I' for Inactive)
REMARK    1  A    between atoms: C_1  and  O_2
REMARK    2  A    between atoms: O_2  and  C_3
REMARK    3  A    between atoms: C_5  and  N_6
REMARK    4  A    between atoms: C_9  and  N_13
REMARK    5  A    between atoms: N_13  and  C_14
REMARK    6  A    between atoms: N_13  and  C_15
REMARK    7  A    between atoms: C_21  and  C_22
REMARK    8  A    between atoms: C_26  and  O_27
REMARK    9  A    between atoms: O_27  and  C_28
REMARK   10  A    between atoms: C_29  and  O_30
REMARK   11  A    between atoms: O_30  and  C_31
REMARK                            x       y       z     vdW  Elec       q    Type
REMARK                         _______ _______ _______ _____ _____    ______ ____
ROOT
ATOM      1  N   UNL     1       9.701   1.916  22.668  0.00  0.00    -0.283 N 
ATOM      2  H   UNL     1      10.149   2.045  21.771  0.00  0.00    +0.155 HD
ATOM      3  C   UNL     1       9.618   0.543  22.926  0.00  0.00    +0.221 A 
ATOM      4  N   UNL     1      10.148  -0.246  21.988  0.00  0.00    -0.223 NA
ATOM      5  C   UNL     1      10.109  -1.562  22.231  0.00  0.00    +0.118 A 
ATOM      6  C   UNL     1       9.578  -2.111  23.376  0.00  0.00    +0.064 A 
ATOM      7  C   UNL     1       9.000  -1.251  24.294  0.00  0.00    +0.130 A 
ATOM      8  N   UNL     1       9.054   0.073  24.054  0.00  0.00    -0.199 NA
ENDROOT
BRANCH   1  13
ATOM      9  C   UNL     1       6.793   4.245  23.050  0.00  0.00    +0.167 A 
ATOM     10  C   UNL     1       7.283   5.153  24.010  0.00  0.00    +0.204 A 
ATOM     11  C   UNL     1       8.596   4.971  24.496  0.00  0.00    +0.167 A 
ATOM     12  C   UNL     1       9.371   3.887  24.038  0.00  0.00    +0.073 A 
ATOM     13  C   UNL     1       8.888   2.976  23.097  0.00  0.00    +0.041 A 
ATOM     14  C   UNL     1       7.576   3.148  22.667  0.00  0.00    +0.073 A 
BRANCH   9  16
ATOM     15  C   UNL     1       4.461   3.779  23.096  0.00  0.00    +0.277 C 
ATOM     16  O   UNL     1       5.558   4.459  22.487  0.00  0.00    -0.491 OA
ENDBRANCH   9  16
BRANCH  10  17
ATOM     17  O   UNL     1       6.593   6.243  24.464  0.00  0.00    -0.488 OA
ATOM     18  C   UNL     1       5.827   6.129  25.652  0.00  0.00    +0.277 C 
ENDBRANCH  10  17
BRANCH  11  19
ATOM     19  O   UNL     1       9.291   5.732  25.404  0.00  0.00    -0.491 OA
ATOM     20  C   UNL     1      10.234   6.685  24.938  0.00  0.00    +0.277 C 
ENDBRANCH  11  19
ENDBRANCH   1  13
BRANCH   7  21
ATOM     21  N   UNL     1       8.351  -1.726  25.469  0.00  0.00    -0.288 N 
ATOM     22  C   UNL     1       8.841  -1.199  26.751  0.00  0.00    +0.137 C 
BRANCH  21  23
ATOM     23  C   UNL     1       7.523  -2.891  25.570  0.00  0.00    +0.037 A 
ATOM     24  C   UNL     1       6.541  -3.203  24.603  0.00  0.00    +0.024 A 
ATOM     25  C   UNL     1       5.697  -4.324  24.693  0.00  0.00    +0.013 A 
ATOM     26  C   UNL     1       5.838  -5.188  25.782  0.00  0.00    +0.023 A 
ATOM     27  C   UNL     1       5.201  -6.372  26.239  0.00  0.00    +0.067 A 
ATOM     28  N   UNL     1       5.758  -6.830  27.366  0.00  0.00    -0.178 NA
ATOM     29  N   UNL     1       6.726  -5.931  27.635  0.00  0.00    -0.277 N 
ATOM     30  H   UNL     1       7.289  -6.066  28.466  0.00  0.00    +0.189 HD
ATOM     31  C   UNL     1       4.051  -7.082  25.626  0.00  0.00    +0.068 C 
ATOM     32  C   UNL     1       6.821  -4.915  26.722  0.00  0.00    +0.068 A 
ATOM     33  C   UNL     1       7.668  -3.794  26.647  0.00  0.00    +0.051 A 
ENDBRANCH  21  23
ENDBRANCH   7  21
TORSDOF 6
ENDMDL
MODEL 8
REMARK VINA RESULT:      -6.7      2.864      4.639
REMARK  Name = 
REMARK  11 active torsions:
REMARK  status: ('A' for Active; 'I' for Inactive)
REMARK    1  A    between atoms: C_1  and  O_2
REMARK    2  A    between atoms: O_2  and  C_3
REMARK    3  A    between atoms: C_5  and  N_6
REMARK    4  A    between atoms: C_9  and  N_13
REMARK    5  A    between atoms: N_13  and  C_14
REMARK    6  A    between atoms: N_13  and  C_15
REMARK    7  A    between atoms: C_21  and  C_22
REMARK    8  A    between atoms: C_26  and  O_27
REMARK    9  A    between atoms: O_27  and  C_28
REMARK   10  A    between atoms: C_29  and  O_30
REMARK   11  A    between atoms: O_30  and  C_31
REMARK                            x       y       z     vdW  Elec       q    Type
REMARK                         _______ _______ _______ _____ _____    ______ ____
ROOT
ATOM      1  N   UNL     1       3.690  -4.539  24.046  0.00  0.00    -0.283 N 
ATOM      2  H   UNL     1       2.962  -5.032  23.547  0.00  0.00    +0.155 HD
ATOM      3  C   UNL     1       4.901  -4.748  23.376  0.00  0.00    +0.221 A 
ATOM      4  N   UNL     1       4.820  -5.490  22.269  0.00  0.00    -0.223 NA
ATOM      5  C   UNL     1       5.961  -5.673  21.594  0.00  0.00    +0.118 A 
ATOM      6  C   UNL     1       7.168  -5.132  21.975  0.00  0.00    +0.064 A 
ATOM      7  C   UNL     1       7.205  -4.409  23.155  0.00  0.00    +0.130 A 
ATOM      8  N   UNL     1       6.053  -4.214  23.824  0.00  0.00    -0.199 NA
ENDROOT
BRANCH   1  13
ATOM      9  C   UNL     1       3.323  -4.973  27.748  0.00  0.00    +0.167 A 
ATOM     10  C   UNL     1       2.881  -3.693  28.139  0.00  0.00    +0.204 A 
ATOM     11  C   UNL     1       2.698  -2.713  27.140  0.00  0.00    +0.167 A 
ATOM     12  C   UNL     1       2.979  -3.020  25.794  0.00  0.00    +0.073 A 
ATOM     13  C   UNL     1       3.429  -4.281  25.400  0.00  0.00    +0.041 A 
ATOM     14  C   UNL     1       3.648  -5.217  26.406  0.00  0.00    +0.073 A 
BRANCH   9  16
ATOM     15  C   UNL     1       4.555  -6.823  28.596  0.00  0.00    +0.277 C 
ATOM     16  O   UNL     1       3.413  -5.973  28.687  0.00  0.00    -0.491 OA
ENDBRANCH   9  16
BRANCH  10  17
ATOM     17  O   UNL     1       2.557  -3.347  29.422  0.00  0.00    -0.488 OA
ATOM     18  C   UNL     1       3.589  -2.952  30.312  0.00  0.00    +0.277 C 
ENDBRANCH  10  17
BRANCH  11  19
ATOM     19  O   UNL     1       2.256  -1.419  27.274  0.00  0.00    -0.491 OA
ATOM     20  C   UNL     1       3.200  -0.359  27.301  0.00  0.00    +0.277 C 
ENDBRANCH  11  19
ENDBRANCH   1  13
BRANCH   7  21
ATOM     21  N   UNL     1       8.419  -3.879  23.677  0.00  0.00    -0.288 N 
ATOM     22  C   UNL     1       9.088  -4.670  24.720  0.00  0.00    +0.137 C 
BRANCH  21  23
ATOM     23  C   UNL     1       8.879  -2.527  23.555  0.00  0.00    +0.037 A 
ATOM     24  C   UNL     1       9.460  -1.829  24.637  0.00  0.00    +0.024 A 
ATOM     25  C   UNL     1       9.893  -0.494  24.552  0.00  0.00    +0.013 A 
ATOM     26  C   UNL     1       9.761   0.180  23.335  0.00  0.00    +0.023 A 
ATOM     27  C   UNL     1      10.046   1.484  22.851  0.00  0.00    +0.067 A 
ATOM     28  N   UNL     1       9.741   1.609  21.554  0.00  0.00    -0.178 NA
ATOM     29  N   UNL     1       9.245   0.400  21.223  0.00  0.00    -0.277 N 
ATOM     30  H   UNL     1       8.931   0.253  20.271  0.00  0.00    +0.189 HD
ATOM     31  C   UNL     1      10.600   2.636  23.606  0.00  0.00    +0.068 C 
ATOM     32  C   UNL     1       9.225  -0.502  22.253  0.00  0.00    +0.068 A 
ATOM     33  C   UNL     1       8.782  -1.836  22.327  0.00  0.00    +0.051 A 
ENDBRANCH  21  23
ENDBRANCH   7  21
TORSDOF 6
ENDMDL
MODEL 9
REMARK VINA RESULT:      -6.5      3.060      4.737
REMARK  Name = 
REMARK  11 active torsions:
REMARK  status: ('A' for Active; 'I' for Inactive)
REMARK    1  A    between atoms: C_1  and  O_2
REMARK    2  A    between atoms: O_2  and  C_3
REMARK    3  A    between atoms: C_5  and  N_6
REMARK    4  A    between atoms: C_9  and  N_13
REMARK    5  A    between atoms: N_13  and  C_14
REMARK    6  A    between atoms: N_13  and  C_15
REMARK    7  A    between atoms: C_21  and  C_22
REMARK    8  A    between atoms: C_26  and  O_27
REMARK    9  A    between atoms: O_27  and  C_28
REMARK   10  A    between atoms: C_29  and  O_30
REMARK   11  A    between atoms: O_30  and  C_31
REMARK                            x       y       z     vdW  Elec       q    Type
REMARK                         _______ _______ _______ _____ _____    ______ ____
ROOT
ATOM      1  N   UNL     1       5.443  -4.246  27.431  0.00  0.00    -0.283 N 
ATOM      2  H   UNL     1       5.075  -4.944  28.062  0.00  0.00    +0.155 HD
ATOM      3  C   UNL     1       4.981  -2.991  27.845  0.00  0.00    +0.221 A 
ATOM      4  N   UNL     1       4.220  -2.998  28.942  0.00  0.00    -0.223 NA
ATOM      5  C   UNL     1       3.795  -1.804  29.375  0.00  0.00    +0.118 A 
ATOM      6  C   UNL     1       4.115  -0.614  28.764  0.00  0.00    +0.064 A 
ATOM      7  C   UNL     1       4.868  -0.667  27.604  0.00  0.00    +0.130 A 
ATOM      8  N   UNL     1       5.306  -1.867  27.179  0.00  0.00    -0.199 NA
ENDROOT
BRANCH   1  13
ATOM      9  C   UNL     1       7.377  -4.874  24.286  0.00  0.00    +0.167 A 
ATOM     10  C   UNL     1       6.483  -5.687  23.562  0.00  0.00    +0.204 A 
ATOM     11  C   UNL     1       5.233  -5.992  24.145  0.00  0.00    +0.167 A 
ATOM     12  C   UNL     1       4.919  -5.505  25.429  0.00  0.00    +0.073 A 
ATOM     13  C   UNL     1       5.805  -4.710  26.157  0.00  0.00    +0.041 A 
ATOM     14  C   UNL     1       7.048  -4.461  25.584  0.00  0.00    +0.073 A 
BRANCH   9  16
ATOM     15  C   UNL     1       8.892  -3.098  23.824  0.00  0.00    +0.277 C 
ATOM     16  O   UNL     1       8.557  -4.480  23.700  0.00  0.00    -0.491 OA
ENDBRANCH   9  16
BRANCH  10  17
ATOM     17  O   UNL     1       6.715  -6.157  22.299  0.00  0.00    -0.488 OA
ATOM     18  C   UNL     1       6.269  -5.398  21.187  0.00  0.00    +0.277 C 
ENDBRANCH  10  17
BRANCH  11  19
ATOM     19  O   UNL     1       4.200  -6.735  23.626  0.00  0.00    -0.491 OA
ATOM     20  C   UNL     1       3.059  -6.072  23.101  0.00  0.00    +0.277 C 
ENDBRANCH  11  19
ENDBRANCH   1  13
BRANCH   7  21
ATOM     21  N   UNL     1       5.181   0.501  26.852  0.00  0.00    -0.288 N 
ATOM     22  C   UNL     1       4.142   1.538  26.784  0.00  0.00    +0.137 C 
BRANCH  21  23
ATOM     23  C   UNL     1       6.236   0.636  25.891  0.00  0.00    +0.037 A 
ATOM     24  C   UNL     1       5.981   0.901  24.527  0.00  0.00    +0.024 A 
ATOM     25  C   UNL     1       6.995   1.010  23.559  0.00  0.00    +0.013 A 
ATOM     26  C   UNL     1       8.326   0.868  23.960  0.00  0.00    +0.023 A 
ATOM     27  C   UNL     1       9.595   0.889  23.322  0.00  0.00    +0.067 A 
ATOM     28  N   UNL     1      10.592   0.720  24.198  0.00  0.00    -0.178 NA
ATOM     29  N   UNL     1       9.960   0.570  25.379  0.00  0.00    -0.277 N 
ATOM     30  H   UNL     1      10.521   0.416  26.209  0.00  0.00    +0.189 HD
ATOM     31  C   UNL     1       9.886   1.058  21.876  0.00  0.00    +0.068 C 
ATOM     32  C   UNL     1       8.595   0.643  25.301  0.00  0.00    +0.068 A 
ATOM     33  C   UNL     1       7.589   0.525  26.279  0.00  0.00    +0.051 A 
ENDBRANCH  21  23
ENDBRANCH   7  21
TORSDOF 6
ENDMDL
