MODEL 1
REMARK VINA RESULT:      -6.5      0.000      0.000
REMARK  Name = 
REMARK  8 active torsions:
REMARK  status: ('A' for Active; 'I' for Inactive)
REMARK    1  A    between atoms: CA_2  and  C_3
REMARK    2  A    between atoms: CA_2  and  C_5
REMARK    3  A    between atoms: CA_2  and  N_7
REMARK    4  A    between atoms: C_3  and  C_4
REMARK    5  A    between atoms: C_5  and  O_6
REMARK    6  A    between atoms: C_16  and  C_17
REMARK    7  A    between atoms: C_20  and  C_23
REMARK    8  A    between atoms: C_23  and  O_24
REMARK                            x       y       z     vdW  Elec       q    Type
REMARK                         _______ _______ _______ _____ _____    ______ ____
ROOT
ATOM      1  N   UNL     1       6.142   5.362  24.177  0.00  0.00    -0.323 N 
ATOM      2  H   UNL     1       5.669   6.259  24.198  0.00  0.00    +0.148 HD
ATOM      3  C   UNL     1       7.517   5.423  24.036  0.00  0.00    +0.140 A 
ATOM      4  C   UNL     1       8.151   6.777  24.163  0.00  0.00    +0.049 A 
ATOM      5  C   UNL     1       9.476   6.888  24.034  0.00  0.00    +0.051 A 
ATOM      6  C   UNL     1      10.243   5.732  23.797  0.00  0.00    +0.155 A 
ATOM      7  N   UNL     1      11.539   5.596  23.647  0.00  0.00    -0.234 NA
ATOM      8  C   UNL     1      11.723   4.259  23.438  0.00  0.00    +0.141 A 
ATOM      9  C   UNL     1      10.530   3.548  23.454  0.00  0.00    +0.093 A 
ATOM     10  N   UNL     1       9.567   4.524  23.693  0.00  0.00    -0.211 N 
ATOM     11  N   UNL     1       8.209   4.340  23.800  0.00  0.00    -0.150 NA
ENDROOT
BRANCH   9  12
ATOM     12  C   UNL     1      10.321   2.108  23.266  0.00  0.00    +0.002 A 
ATOM     13  C   UNL     1      10.430   1.239  24.365  0.00  0.00    +0.011 A 
ATOM     14  C   UNL     1      10.166  -0.129  24.239  0.00  0.00    +0.015 A 
ATOM     15  C   UNL     1       9.786  -0.658  23.004  0.00  0.00    +0.059 A 
ATOM     16  C   UNL     1       9.712   0.186  21.890  0.00  0.00    +0.015 A 
ATOM     17  C   UNL     1       9.961   1.557  22.031  0.00  0.00    +0.011 A 
BRANCH  15  18
ATOM     18  C   UNL     1       9.499  -2.114  22.925  0.00  0.00    +0.337 C 
ATOM     19  O   UNL     1       8.671  -2.589  22.168  0.00  0.00    -0.245 OA
BRANCH  18  20
ATOM     20  O   UNL     1      10.287  -2.867  23.722  0.00  0.00    -0.477 OA
ATOM     21  H   UNL     1      10.062  -3.815  23.749  0.00  0.00    +0.295 HD
ENDBRANCH  18  20
ENDBRANCH  15  18
ENDBRANCH   9  12
BRANCH   1  22
ATOM     22  CA  UNL     1       5.334   4.282  23.601  0.00  0.00    +0.097 C 
BRANCH  22  23
ATOM     23  C   UNL     1       4.128   4.880  22.839  0.00  0.00    +0.021 C 
ATOM     24  C   UNL     1       4.264   6.346  22.437  0.00  0.00    +0.006 C 
ENDBRANCH  22  23
BRANCH  22  25
ATOM     25  C   UNL     1       4.912   3.253  24.669  0.00  0.00    +0.178 C 
BRANCH  25  26
ATOM     26  O   UNL     1       4.535   2.005  24.088  0.00  0.00    -0.393 OA
ATOM     27  H   UNL     1       3.648   2.106  23.703  0.00  0.00    +0.209 HD
ENDBRANCH  25  26
ENDBRANCH  22  25
ENDBRANCH   1  22
TORSDOF 7
ENDMDL
MODEL 2
REMARK VINA RESULT:      -6.0      3.679      5.160
REMARK  Name = 
REMARK  8 active torsions:
REMARK  status: ('A' for Active; 'I' for Inactive)
REMARK    1  A    between atoms: CA_2  and  C_3
REMARK    2  A    between atoms: CA_2  and  C_5
REMARK    3  A    between atoms: CA_2  and  N_7
REMARK    4  A    between atoms: C_3  and  C_4
REMARK    5  A    between atoms: C_5  and  O_6
REMARK    6  A    between atoms: C_16  and  C_17
REMARK    7  A    between atoms: C_20  and  C_23
REMARK    8  A    between atoms: C_23  and  O_24
REMARK                            x       y       z     vdW  Elec       q    Type
REMARK                         _______ _______ _______ _____ _____    ______ ____
ROOT
ATOM      1  N   UNL     1       7.864   2.394  25.943  0.00  0.00    -0.323 N 
ATOM      2  H   UNL     1       7.832   3.402  25.832  0.00  0.00    +0.148 HD
ATOM      3  C   UNL     1       8.452   1.703  24.898  0.00  0.00    +0.140 A 
ATOM      4  C   UNL     1       9.164   2.522  23.861  0.00  0.00    +0.049 A 
ATOM      5  C   UNL     1       9.748   1.900  22.833  0.00  0.00    +0.051 A 
ATOM      6  C   UNL     1       9.693   0.496  22.757  0.00  0.00    +0.155 A 
ATOM      7  N   UNL     1      10.193  -0.320  21.860  0.00  0.00    -0.234 NA
ATOM      8  C   UNL     1       9.829  -1.565  22.286  0.00  0.00    +0.141 A 
ATOM      9  C   UNL     1       9.090  -1.531  23.462  0.00  0.00    +0.093 A 
ATOM     10  N   UNL     1       9.010  -0.175  23.762  0.00  0.00    -0.211 N 
ATOM     11  N   UNL     1       8.376   0.401  24.838  0.00  0.00    -0.150 NA
ENDROOT
BRANCH   9  12
ATOM     12  C   UNL     1       8.523  -2.653  24.218  0.00  0.00    +0.002 A 
ATOM     13  C   UNL     1       9.086  -3.015  25.454  0.00  0.00    +0.011 A 
ATOM     14  C   UNL     1       8.528  -4.031  26.238  0.00  0.00    +0.015 A 
ATOM     15  C   UNL     1       7.390  -4.709  25.797  0.00  0.00    +0.059 A 
ATOM     16  C   UNL     1       6.840  -4.389  24.552  0.00  0.00    +0.015 A 
ATOM     17  C   UNL     1       7.396  -3.359  23.783  0.00  0.00    +0.011 A 
BRANCH  15  18
ATOM     18  C   UNL     1       6.824  -5.767  26.674  0.00  0.00    +0.337 C 
ATOM     19  O   UNL     1       5.816  -6.392  26.397  0.00  0.00    -0.245 OA
BRANCH  18  20
ATOM     20  O   UNL     1       7.568  -6.017  27.773  0.00  0.00    -0.477 OA
ATOM     21  H   UNL     1       8.273  -6.679  27.653  0.00  0.00    +0.295 HD
ENDBRANCH  18  20
ENDBRANCH  15  18
ENDBRANCH   9  12
BRANCH   1  22
ATOM     22  CA  UNL     1       6.746   1.850  26.721  0.00  0.00    +0.097 C 
BRANCH  22  23
ATOM     23  C   UNL     1       5.588   2.875  26.758  0.00  0.00    +0.021 C 
ATOM     24  C   UNL     1       5.062   3.325  25.397  0.00  0.00    +0.006 C 
ENDBRANCH  22  23
BRANCH  22  25
ATOM     25  C   UNL     1       7.193   1.408  28.130  0.00  0.00    +0.178 C 
BRANCH  25  26
ATOM     26  O   UNL     1       8.159   0.358  28.077  0.00  0.00    -0.393 OA
ATOM     27  H   UNL     1       7.692  -0.474  27.890  0.00  0.00    +0.209 HD
ENDBRANCH  25  26
ENDBRANCH  22  25
ENDBRANCH   1  22
TORSDOF 7
ENDMDL
MODEL 3
REMARK VINA RESULT:      -6.0      2.424      4.659
REMARK  Name = 
REMARK  8 active torsions:
REMARK  status: ('A' for Active; 'I' for Inactive)
REMARK    1  A    between atoms: CA_2  and  C_3
REMARK    2  A    between atoms: CA_2  and  C_5
REMARK    3  A    between atoms: CA_2  and  N_7
REMARK    4  A    between atoms: C_3  and  C_4
REMARK    5  A    between atoms: C_5  and  O_6
REMARK    6  A    between atoms: C_16  and  C_17
REMARK    7  A    between atoms: C_20  and  C_23
REMARK    8  A    between atoms: C_23  and  O_24
REMARK                            x       y       z     vdW  Elec       q    Type
REMARK                         _______ _______ _______ _____ _____    ______ ____
ROOT
ATOM      1  N   UNL     1      10.152   6.361  23.313  0.00  0.00    -0.323 N 
ATOM      2  H   UNL     1      10.215   7.359  23.481  0.00  0.00    +0.148 HD
ATOM      3  C   UNL     1       8.868   5.871  23.141  0.00  0.00    +0.140 A 
ATOM      4  C   UNL     1       7.772   6.885  22.995  0.00  0.00    +0.049 A 
ATOM      5  C   UNL     1       6.516   6.462  22.828  0.00  0.00    +0.051 A 
ATOM      6  C   UNL     1       6.257   5.079  22.778  0.00  0.00    +0.155 A 
ATOM      7  N   UNL     1       5.123   4.440  22.615  0.00  0.00    -0.234 NA
ATOM      8  C   UNL     1       5.465   3.118  22.655  0.00  0.00    +0.141 A 
ATOM      9  C   UNL     1       6.827   2.926  22.848  0.00  0.00    +0.093 A 
ATOM     10  N   UNL     1       7.335   4.219  22.925  0.00  0.00    -0.211 N 
ATOM     11  N   UNL     1       8.647   4.584  23.114  0.00  0.00    -0.150 NA
ENDROOT
BRANCH   9  12
ATOM     12  C   UNL     1       7.567   1.663  22.949  0.00  0.00    +0.002 A 
ATOM     13  C   UNL     1       8.326   1.212  21.856  0.00  0.00    +0.011 A 
ATOM     14  C   UNL     1       9.103   0.051  21.940  0.00  0.00    +0.015 A 
ATOM     15  C   UNL     1       9.134  -0.686  23.125  0.00  0.00    +0.059 A 
ATOM     16  C   UNL     1       8.354  -0.273  24.211  0.00  0.00    +0.015 A 
ATOM     17  C   UNL     1       7.593   0.900  24.122  0.00  0.00    +0.011 A 
BRANCH  15  18
ATOM     18  C   UNL     1       9.989  -1.901  23.171  0.00  0.00    +0.337 C 
ATOM     19  O   UNL     1      11.041  -1.997  22.565  0.00  0.00    -0.245 OA
BRANCH  18  20
ATOM     20  O   UNL     1       9.523  -2.862  23.998  0.00  0.00    -0.477 OA
ATOM     21  H   UNL     1       8.615  -3.162  23.812  0.00  0.00    +0.295 HD
ENDBRANCH  18  20
ENDBRANCH  15  18
ENDBRANCH   9  12
BRANCH   1  22
ATOM     22  CA  UNL     1      11.215   5.584  23.958  0.00  0.00    +0.097 C 
BRANCH  22  23
ATOM     23  C   UNL     1      11.900   6.442  25.048  0.00  0.00    +0.021 C 
ATOM     24  C   UNL     1      10.961   7.108  26.050  0.00  0.00    +0.006 C 
ENDBRANCH  22  23
BRANCH  22  25
ATOM     25  C   UNL     1      12.216   5.020  22.929  0.00  0.00    +0.178 C 
BRANCH  25  26
ATOM     26  O   UNL     1      13.569   5.281  23.302  0.00  0.00    -0.393 OA
ATOM     27  H   UNL     1      14.000   5.751  22.569  0.00  0.00    +0.209 HD
ENDBRANCH  25  26
ENDBRANCH  22  25
ENDBRANCH   1  22
TORSDOF 7
ENDMDL
MODEL 4
REMARK VINA RESULT:      -5.9      5.050      7.485
REMARK  Name = 
REMARK  8 active torsions:
REMARK  status: ('A' for Active; 'I' for Inactive)
REMARK    1  A    between atoms: CA_2  and  C_3
REMARK    2  A    between atoms: CA_2  and  C_5
REMARK    3  A    between atoms: CA_2  and  N_7
REMARK    4  A    between atoms: C_3  and  C_4
REMARK    5  A    between atoms: C_5  and  O_6
REMARK    6  A    between atoms: C_16  and  C_17
REMARK    7  A    between atoms: C_20  and  C_23
REMARK    8  A    between atoms: C_23  and  O_24
REMARK                            x       y       z     vdW  Elec       q    Type
REMARK                         _______ _______ _______ _____ _____    ______ ____
ROOT
ATOM      1  N   UNL     1       4.984  -2.273  27.514  0.00  0.00    -0.323 N 
ATOM      2  H   UNL     1       4.398  -2.729  28.205  0.00  0.00    +0.148 HD
ATOM      3  C   UNL     1       6.029  -3.039  27.026  0.00  0.00    +0.140 A 
ATOM      4  C   UNL     1       6.030  -4.494  27.395  0.00  0.00    +0.049 A 
ATOM      5  C   UNL     1       7.018  -5.274  26.949  0.00  0.00    +0.051 A 
ATOM      6  C   UNL     1       8.021  -4.717  26.135  0.00  0.00    +0.155 A 
ATOM      7  N   UNL     1       9.068  -5.281  25.581  0.00  0.00    -0.234 NA
ATOM      8  C   UNL     1       9.691  -4.268  24.910  0.00  0.00    +0.141 A 
ATOM      9  C   UNL     1       9.030  -3.053  25.047  0.00  0.00    +0.093 A 
ATOM     10  N   UNL     1       7.936  -3.362  25.849  0.00  0.00    -0.211 N 
ATOM     11  N   UNL     1       6.959  -2.499  26.286  0.00  0.00    -0.150 NA
ENDROOT
BRANCH   9  12
ATOM     12  C   UNL     1       9.391  -1.747  24.483  0.00  0.00    +0.002 A 
ATOM     13  C   UNL     1       9.523  -1.603  23.091  0.00  0.00    +0.011 A 
ATOM     14  C   UNL     1       9.794  -0.358  22.512  0.00  0.00    +0.015 A 
ATOM     15  C   UNL     1       9.939   0.772  23.319  0.00  0.00    +0.059 A 
ATOM     16  C   UNL     1       9.850   0.640  24.709  0.00  0.00    +0.015 A 
ATOM     17  C   UNL     1       9.562  -0.608  25.277  0.00  0.00    +0.011 A 
BRANCH  15  18
ATOM     18  C   UNL     1      10.207   2.075  22.655  0.00  0.00    +0.337 C 
ATOM     19  O   UNL     1      10.764   3.003  23.213  0.00  0.00    -0.245 OA
BRANCH  18  20
ATOM     20  O   UNL     1       9.835   2.110  21.358  0.00  0.00    -0.477 OA
ATOM     21  H   UNL     1       9.961   2.969  20.915  0.00  0.00    +0.295 HD
ENDBRANCH  18  20
ENDBRANCH  15  18
ENDBRANCH   9  12
BRANCH   1  22
ATOM     22  CA  UNL     1       5.083  -0.820  27.690  0.00  0.00    +0.097 C 
BRANCH  22  23
ATOM     23  C   UNL     1       4.563  -0.428  29.093  0.00  0.00    +0.021 C 
ATOM     24  C   UNL     1       3.586  -1.411  29.733  0.00  0.00    +0.006 C 
ENDBRANCH  22  23
BRANCH  22  25
ATOM     25  C   UNL     1       4.369  -0.058  26.556  0.00  0.00    +0.178 C 
BRANCH  25  26
ATOM     26  O   UNL     1       5.047  -0.199  25.308  0.00  0.00    -0.393 OA
ATOM     27  H   UNL     1       4.591  -0.884  24.792  0.00  0.00    +0.209 HD
ENDBRANCH  25  26
ENDBRANCH  22  25
ENDBRANCH   1  22
TORSDOF 7
ENDMDL
MODEL 5
REMARK VINA RESULT:      -5.9      3.785      5.355
REMARK  Name = 
REMARK  8 active torsions:
REMARK  status: ('A' for Active; 'I' for Inactive)
REMARK    1  A    between atoms: CA_2  and  C_3
REMARK    2  A    between atoms: CA_2  and  C_5
REMARK    3  A    between atoms: CA_2  and  N_7
REMARK    4  A    between atoms: C_3  and  C_4
REMARK    5  A    between atoms: C_5  and  O_6
REMARK    6  A    between atoms: C_16  and  C_17
REMARK    7  A    between atoms: C_20  and  C_23
REMARK    8  A    between atoms: C_23  and  O_24
REMARK                            x       y       z     vdW  Elec       q    Type
REMARK                         _______ _______ _______ _____ _____    ______ ____
ROOT
ATOM      1  N   UNL     1       7.955   1.684  26.359  0.00  0.00    -0.323 N 
ATOM      2  H   UNL     1       8.122   2.655  26.603  0.00  0.00    +0.148 HD
ATOM      3  C   UNL     1       8.428   1.298  25.116  0.00  0.00    +0.140 A 
ATOM      4  C   UNL     1       9.313   2.273  24.397  0.00  0.00    +0.049 A 
ATOM      5  C   UNL     1       9.794   1.947  23.194  0.00  0.00    +0.051 A 
ATOM      6  C   UNL     1       9.470   0.693  22.641  0.00  0.00    +0.155 A 
ATOM      7  N   UNL     1       9.827   0.159  21.498  0.00  0.00    -0.234 NA
ATOM      8  C   UNL     1       9.217  -1.062  21.483  0.00  0.00    +0.141 A 
ATOM      9  C   UNL     1       8.467  -1.297  22.628  0.00  0.00    +0.093 A 
ATOM     10  N   UNL     1       8.643  -0.140  23.380  0.00  0.00    -0.211 N 
ATOM     11  N   UNL     1       8.102   0.138  24.614  0.00  0.00    -0.150 NA
ENDROOT
BRANCH   9  12
ATOM     12  C   UNL     1       7.672  -2.481  22.974  0.00  0.00    +0.002 A 
ATOM     13  C   UNL     1       8.286  -3.565  23.626  0.00  0.00    +0.011 A 
ATOM     14  C   UNL     1       7.546  -4.679  24.037  0.00  0.00    +0.015 A 
ATOM     15  C   UNL     1       6.170  -4.731  23.802  0.00  0.00    +0.059 A 
ATOM     16  C   UNL     1       5.550  -3.679  23.119  0.00  0.00    +0.015 A 
ATOM     17  C   UNL     1       6.297  -2.561  22.727  0.00  0.00    +0.011 A 
BRANCH  15  18
ATOM     18  C   UNL     1       5.425  -5.928  24.274  0.00  0.00    +0.337 C 
ATOM     19  O   UNL     1       5.288  -6.203  25.453  0.00  0.00    -0.245 OA
BRANCH  18  20
ATOM     20  O   UNL     1       4.860  -6.643  23.279  0.00  0.00    -0.477 OA
ATOM     21  H   UNL     1       4.921  -7.611  23.379  0.00  0.00    +0.295 HD
ENDBRANCH  18  20
ENDBRANCH  15  18
ENDBRANCH   9  12
BRANCH   1  22
ATOM     22  CA  UNL     1       6.732   1.129  26.948  0.00  0.00    +0.097 C 
BRANCH  22  23
ATOM     23  C   UNL     1       5.549   2.095  26.703  0.00  0.00    +0.021 C 
ATOM     24  C   UNL     1       4.944   2.055  25.302  0.00  0.00    +0.006 C 
ENDBRANCH  22  23
BRANCH  22  25
ATOM     25  C   UNL     1       6.921   0.787  28.440  0.00  0.00    +0.178 C 
BRANCH  25  26
ATOM     26  O   UNL     1       8.292   0.556  28.764  0.00  0.00    -0.393 OA
ATOM     27  H   UNL     1       8.712   0.114  28.007  0.00  0.00    +0.209 HD
ENDBRANCH  25  26
ENDBRANCH  22  25
ENDBRANCH   1  22
TORSDOF 7
ENDMDL
MODEL 6
REMARK VINA RESULT:      -5.8      5.896      9.208
REMARK  Name = 
REMARK  8 active torsions:
REMARK  status: ('A' for Active; 'I' for Inactive)
REMARK    1  A    between atoms: CA_2  and  C_3
REMARK    2  A    between atoms: CA_2  and  C_5
REMARK    3  A    between atoms: CA_2  and  N_7
REMARK    4  A    between atoms: C_3  and  C_4
REMARK    5  A    between atoms: C_5  and  O_6
REMARK    6  A    between atoms: C_16  and  C_17
REMARK    7  A    between atoms: C_20  and  C_23
REMARK    8  A    between atoms: C_23  and  O_24
REMARK                            x       y       z     vdW  Elec       q    Type
REMARK                         _______ _______ _______ _____ _____    ______ ____
ROOT
ATOM      1  N   UNL     1       5.319  -5.865  26.531  0.00  0.00    -0.323 N 
ATOM      2  H   UNL     1       4.909  -6.760  26.776  0.00  0.00    +0.148 HD
ATOM      3  C   UNL     1       5.420  -5.613  25.174  0.00  0.00    +0.140 A 
ATOM      4  C   UNL     1       4.714  -6.566  24.255  0.00  0.00    +0.049 A 
ATOM      5  C   UNL     1       4.782  -6.366  22.936  0.00  0.00    +0.051 A 
ATOM      6  C   UNL     1       5.500  -5.258  22.445  0.00  0.00    +0.155 A 
ATOM      7  N   UNL     1       5.693  -4.860  21.210  0.00  0.00    -0.234 NA
ATOM      8  C   UNL     1       6.464  -3.739  21.327  0.00  0.00    +0.141 A 
ATOM      9  C   UNL     1       6.760  -3.432  22.649  0.00  0.00    +0.093 A 
ATOM     10  N   UNL     1       6.120  -4.433  23.372  0.00  0.00    -0.211 N 
ATOM     11  N   UNL     1       6.103  -4.589  24.738  0.00  0.00    -0.150 NA
ENDROOT
BRANCH   9  12
ATOM     12  C   UNL     1       7.558  -2.316  23.172  0.00  0.00    +0.002 A 
ATOM     13  C   UNL     1       8.892  -2.535  23.554  0.00  0.00    +0.011 A 
ATOM     14  C   UNL     1       9.705  -1.482  23.988  0.00  0.00    +0.015 A 
ATOM     15  C   UNL     1       9.196  -0.183  24.049  0.00  0.00    +0.059 A 
ATOM     16  C   UNL     1       7.858   0.046  23.710  0.00  0.00    +0.015 A 
ATOM     17  C   UNL     1       7.057  -1.013  23.261  0.00  0.00    +0.011 A 
BRANCH  15  18
ATOM     18  C   UNL     1      10.104   0.904  24.498  0.00  0.00    +0.337 C 
ATOM     19  O   UNL     1      11.318   0.805  24.484  0.00  0.00    -0.245 OA
BRANCH  18  20
ATOM     20  O   UNL     1       9.461   2.035  24.860  0.00  0.00    -0.477 OA
ATOM     21  H   UNL     1       8.631   2.209  24.378  0.00  0.00    +0.295 HD
ENDBRANCH  18  20
ENDBRANCH  15  18
ENDBRANCH   9  12
BRANCH   1  22
ATOM     22  CA  UNL     1       6.309  -5.383  27.501  0.00  0.00    +0.097 C 
BRANCH  22  23
ATOM     23  C   UNL     1       7.736  -5.642  26.963  0.00  0.00    +0.021 C 
ATOM     24  C   UNL     1       8.590  -4.398  26.735  0.00  0.00    +0.006 C 
ENDBRANCH  22  23
BRANCH  22  25
ATOM     25  C   UNL     1       6.081  -5.993  28.899  0.00  0.00    +0.178 C 
BRANCH  25  26
ATOM     26  O   UNL     1       6.016  -7.418  28.856  0.00  0.00    -0.393 OA
ATOM     27  H   UNL     1       6.485  -7.766  29.633  0.00  0.00    +0.209 HD
ENDBRANCH  25  26
ENDBRANCH  22  25
ENDBRANCH   1  22
TORSDOF 7
ENDMDL
MODEL 7
REMARK VINA RESULT:      -5.8      3.224      5.683
REMARK  Name = 
REMARK  8 active torsions:
REMARK  status: ('A' for Active; 'I' for Inactive)
REMARK    1  A    between atoms: CA_2  and  C_3
REMARK    2  A    between atoms: CA_2  and  C_5
REMARK    3  A    between atoms: CA_2  and  N_7
REMARK    4  A    between atoms: C_3  and  C_4
REMARK    5  A    between atoms: C_5  and  O_6
REMARK    6  A    between atoms: C_16  and  C_17
REMARK    7  A    between atoms: C_20  and  C_23
REMARK    8  A    between atoms: C_23  and  O_24
REMARK                            x       y       z     vdW  Elec       q    Type
REMARK                         _______ _______ _______ _____ _____    ______ ____
ROOT
ATOM      1  N   UNL     1       8.464   2.372  21.662  0.00  0.00    -0.323 N 
ATOM      2  H   UNL     1       8.531   3.321  21.308  0.00  0.00    +0.148 HD
ATOM      3  C   UNL     1       7.462   2.157  22.592  0.00  0.00    +0.140 A 
ATOM      4  C   UNL     1       6.471   3.267  22.786  0.00  0.00    +0.049 A 
ATOM      5  C   UNL     1       5.485   3.108  23.673  0.00  0.00    +0.051 A 
ATOM      6  C   UNL     1       5.393   1.900  24.390  0.00  0.00    +0.155 A 
ATOM      7  N   UNL     1       4.519   1.520  25.291  0.00  0.00    -0.234 NA
ATOM      8  C   UNL     1       4.919   0.264  25.649  0.00  0.00    +0.141 A 
ATOM      9  C   UNL     1       6.057  -0.148  24.967  0.00  0.00    +0.093 A 
ATOM     10  N   UNL     1       6.356   0.933  24.143  0.00  0.00    -0.211 N 
ATOM     11  N   UNL     1       7.404   1.036  23.258  0.00  0.00    -0.150 NA
ENDROOT
BRANCH   9  12
ATOM     12  C   UNL     1       6.782  -1.419  25.081  0.00  0.00    +0.002 A 
ATOM     13  C   UNL     1       7.593  -1.660  26.203  0.00  0.00    +0.011 A 
ATOM     14  C   UNL     1       8.240  -2.887  26.381  0.00  0.00    +0.015 A 
ATOM     15  C   UNL     1       8.089  -3.902  25.435  0.00  0.00    +0.059 A 
ATOM     16  C   UNL     1       7.317  -3.666  24.292  0.00  0.00    +0.015 A 
ATOM     17  C   UNL     1       6.659  -2.439  24.131  0.00  0.00    +0.011 A 
BRANCH  15  18
ATOM     18  C   UNL     1       8.782  -5.195  25.679  0.00  0.00    +0.337 C 
ATOM     19  O   UNL     1       9.720  -5.584  25.006  0.00  0.00    -0.245 OA
BRANCH  18  20
ATOM     20  O   UNL     1       8.318  -5.865  26.755  0.00  0.00    -0.477 OA
ATOM     21  H   UNL     1       8.019  -5.303  27.494  0.00  0.00    +0.295 HD
ENDBRANCH  18  20
ENDBRANCH  15  18
ENDBRANCH   9  12
BRANCH   1  22
ATOM     22  CA  UNL     1       9.749   1.666  21.706  0.00  0.00    +0.097 C 
BRANCH  22  23
ATOM     23  C   UNL     1       9.518   0.149  21.510  0.00  0.00    +0.021 C 
ATOM     24  C   UNL     1      10.236  -0.761  22.504  0.00  0.00    +0.006 C 
ENDBRANCH  22  23
BRANCH  22  25
ATOM     25  C   UNL     1      10.533   1.986  22.995  0.00  0.00    +0.178 C 
BRANCH  25  26
ATOM     26  O   UNL     1      11.002   3.334  23.013  0.00  0.00    -0.393 OA
ATOM     27  H   UNL     1      11.758   3.384  23.622  0.00  0.00    +0.209 HD
ENDBRANCH  25  26
ENDBRANCH  22  25
ENDBRANCH   1  22
TORSDOF 7
ENDMDL
MODEL 8
REMARK VINA RESULT:      -5.6      4.672      7.949
REMARK  Name = 
REMARK  8 active torsions:
REMARK  status: ('A' for Active; 'I' for Inactive)
REMARK    1  A    between atoms: CA_2  and  C_3
REMARK    2  A    between atoms: CA_2  and  C_5
REMARK    3  A    between atoms: CA_2  and  N_7
REMARK    4  A    between atoms: C_3  and  C_4
REMARK    5  A    between atoms: C_5  and  O_6
REMARK    6  A    between atoms: C_16  and  C_17
REMARK    7  A    between atoms: C_20  and  C_23
REMARK    8  A    between atoms: C_23  and  O_24
REMARK                            x       y       z     vdW  Elec       q    Type
REMARK                         _______ _______ _______ _____ _____    ______ ____
ROOT
ATOM      1  N   UNL     1       6.996  -4.529  25.415  0.00  0.00    -0.323 N 
ATOM      2  H   UNL     1       6.583  -5.439  25.589  0.00  0.00    +0.148 HD
ATOM      3  C   UNL     1       6.182  -3.446  25.699  0.00  0.00    +0.140 A 
ATOM      4  C   UNL     1       4.905  -3.733  26.432  0.00  0.00    +0.049 A 
ATOM      5  C   UNL     1       4.086  -2.721  26.729  0.00  0.00    +0.051 A 
ATOM      6  C   UNL     1       4.448  -1.412  26.359  0.00  0.00    +0.155 A 
ATOM      7  N   UNL     1       3.818  -0.278  26.549  0.00  0.00    -0.234 NA
ATOM      8  C   UNL     1       4.626   0.665  25.981  0.00  0.00    +0.141 A 
ATOM      9  C   UNL     1       5.775   0.116  25.425  0.00  0.00    +0.093 A 
ATOM     10  N   UNL     1       5.648  -1.245  25.682  0.00  0.00    -0.211 N 
ATOM     11  N   UNL     1       6.529  -2.241  25.333  0.00  0.00    -0.150 NA
ENDROOT
BRANCH   9  12
ATOM     12  C   UNL     1       6.871   0.800  24.729  0.00  0.00    +0.002 A 
ATOM     13  C   UNL     1       7.891   1.417  25.474  0.00  0.00    +0.011 A 
ATOM     14  C   UNL     1       8.989   2.015  24.846  0.00  0.00    +0.015 A 
ATOM     15  C   UNL     1       9.088   2.008  23.453  0.00  0.00    +0.059 A 
ATOM     16  C   UNL     1       8.063   1.434  22.695  0.00  0.00    +0.015 A 
ATOM     17  C   UNL     1       6.976   0.823  23.334  0.00  0.00    +0.011 A 
BRANCH  15  18
ATOM     18  C   UNL     1      10.283   2.639  22.834  0.00  0.00    +0.337 C 
ATOM     19  O   UNL     1      11.104   3.275  23.471  0.00  0.00    -0.245 OA
BRANCH  18  20
ATOM     20  O   UNL     1      10.408   2.387  21.514  0.00  0.00    -0.477 OA
ATOM     21  H   UNL     1      11.306   2.509  21.153  0.00  0.00    +0.295 HD
ENDBRANCH  18  20
ENDBRANCH  15  18
ENDBRANCH   9  12
BRANCH   1  22
ATOM     22  CA  UNL     1       7.967  -4.523  24.315  0.00  0.00    +0.097 C 
BRANCH  22  23
ATOM     23  C   UNL     1       7.632  -5.656  23.317  0.00  0.00    +0.021 C 
ATOM     24  C   UNL     1       7.149  -5.202  21.942  0.00  0.00    +0.006 C 
ENDBRANCH  22  23
BRANCH  22  25
ATOM     25  C   UNL     1       9.417  -4.596  24.834  0.00  0.00    +0.178 C 
BRANCH  25  26
ATOM     26  O   UNL     1       9.814  -5.937  25.120  0.00  0.00    -0.393 OA
ATOM     27  H   UNL     1       9.035  -6.421  25.440  0.00  0.00    +0.209 HD
ENDBRANCH  25  26
ENDBRANCH  22  25
ENDBRANCH   1  22
TORSDOF 7
ENDMDL
MODEL 9
REMARK VINA RESULT:      -5.6      3.075      4.084
REMARK  Name = 
REMARK  8 active torsions:
REMARK  status: ('A' for Active; 'I' for Inactive)
REMARK    1  A    between atoms: CA_2  and  C_3
REMARK    2  A    between atoms: CA_2  and  C_5
REMARK    3  A    between atoms: CA_2  and  N_7
REMARK    4  A    between atoms: C_3  and  C_4
REMARK    5  A    between atoms: C_5  and  O_6
REMARK    6  A    between atoms: C_16  and  C_17
REMARK    7  A    between atoms: C_20  and  C_23
REMARK    8  A    between atoms: C_23  and  O_24
REMARK                            x       y       z     vdW  Elec       q    Type
REMARK                         _______ _______ _______ _____ _____    ______ ____
ROOT
ATOM      1  N   UNL     1       7.424   2.927  26.790  0.00  0.00    -0.323 N 
ATOM      2  H   UNL     1       7.186   3.878  27.050  0.00  0.00    +0.148 HD
ATOM      3  C   UNL     1       8.068   2.791  25.572  0.00  0.00    +0.140 A 
ATOM      4  C   UNL     1       8.534   4.054  24.909  0.00  0.00    +0.049 A 
ATOM      5  C   UNL     1       9.160   3.975  23.732  0.00  0.00    +0.051 A 
ATOM      6  C   UNL     1       9.379   2.711  23.153  0.00  0.00    +0.155 A 
ATOM      7  N   UNL     1       9.971   2.391  22.027  0.00  0.00    -0.234 NA
ATOM      8  C   UNL     1       9.890   1.029  21.970  0.00  0.00    +0.141 A 
ATOM      9  C   UNL     1       9.238   0.488  23.071  0.00  0.00    +0.093 A 
ATOM     10  N   UNL     1       8.911   1.600  23.840  0.00  0.00    -0.211 N 
ATOM     11  N   UNL     1       8.247   1.610  25.044  0.00  0.00    -0.150 NA
ENDROOT
BRANCH   9  12
ATOM     12  C   UNL     1       8.955  -0.922  23.365  0.00  0.00    +0.002 A 
ATOM     13  C   UNL     1       7.827  -1.538  22.797  0.00  0.00    +0.011 A 
ATOM     14  C   UNL     1       7.565  -2.899  22.995  0.00  0.00    +0.015 A 
ATOM     15  C   UNL     1       8.432  -3.672  23.770  0.00  0.00    +0.059 A 
ATOM     16  C   UNL     1       9.538  -3.066  24.375  0.00  0.00    +0.015 A 
ATOM     17  C   UNL     1       9.800  -1.707  24.156  0.00  0.00    +0.011 A 
BRANCH  15  18
ATOM     18  C   UNL     1       8.121  -5.117  23.935  0.00  0.00    +0.337 C 
ATOM     19  O   UNL     1       7.018  -5.588  23.725  0.00  0.00    -0.245 OA
BRANCH  18  20
ATOM     20  O   UNL     1       9.191  -5.867  24.275  0.00  0.00    -0.477 OA
ATOM     21  H   UNL     1       9.702  -6.222  23.524  0.00  0.00    +0.295 HD
ENDBRANCH  18  20
ENDBRANCH  15  18
ENDBRANCH   9  12
BRANCH   1  22
ATOM     22  CA  UNL     1       6.490   1.921  27.308  0.00  0.00    +0.097 C 
BRANCH  22  23
ATOM     23  C   UNL     1       5.060   2.510  27.350  0.00  0.00    +0.021 C 
ATOM     24  C   UNL     1       4.325   2.362  28.680  0.00  0.00    +0.006 C 
ENDBRANCH  22  23
BRANCH  22  25
ATOM     25  C   UNL     1       6.946   1.368  28.673  0.00  0.00    +0.178 C 
BRANCH  25  26
ATOM     26  O   UNL     1       7.826   2.268  29.346  0.00  0.00    -0.393 OA
ATOM     27  H   UNL     1       8.618   2.386  28.796  0.00  0.00    +0.209 HD
ENDBRANCH  25  26
ENDBRANCH  22  25
ENDBRANCH   1  22
TORSDOF 7
ENDMDL
