MODEL 1
REMARK VINA RESULT:      -3.9      0.000      0.000
REMARK  Name = 
REMARK  7 active torsions:
REMARK  status: ('A' for Active; 'I' for Inactive)
REMARK    1  A    between atoms: CD1_1  and  CG_2
REMARK    2  A    between atoms: CG_2  and  CD2_3
REMARK    3  A    between atoms: CG_2  and  CB_4
REMARK    4  A    between atoms: CB_4  and  CA_5
REMARK    5  A    between atoms: CA_5  and  N_7
REMARK    6  A    between atoms: CA_5  and  C_8
REMARK    7  A    between atoms: C_8  and  O_9
REMARK                            x       y       z     vdW  Elec       q    Type
REMARK                         _______ _______ _______ _____ _____    ______ ____
ROOT
ATOM      1  CA  LEU A   1       9.519  -0.643  23.858  0.00  0.00    +0.161 C 
ENDROOT
BRANCH   1   2
ATOM      2  N   LEU A   1       8.876  -1.029  25.153  0.00  0.00    -0.318 NA
ATOM      3  H1  LEU A   1       8.249  -1.816  24.972  0.00  0.00    +0.119 HD
ATOM      4  H2  LEU A   1       9.606  -1.424  25.757  0.00  0.00    +0.119 HD
ENDBRANCH   1   2
BRANCH   1   5
ATOM      5  C   LEU A   1      10.096  -1.921  23.223  0.00  0.00    +0.322 C 
ATOM      6  OXT LEU A   1      10.231  -2.994  23.792  0.00  0.00    -0.249 OA
BRANCH   5   7
ATOM      7  O   LEU A   1      10.437  -1.713  21.925  0.00  0.00    -0.480 OA
ATOM      8  H   LEU A   1      10.516  -0.730  21.821  0.00  0.00    +0.295 HD
ENDBRANCH   5   7
ENDBRANCH   1   5
BRANCH   1   9
ATOM      9  CB  LEU A   1      10.629   0.384  24.142  0.00  0.00    +0.033 C 
BRANCH   9  11
ATOM     10  CD1 LEU A   1       9.994   1.758  22.080  0.00  0.00    +0.007 C 
ATOM     11  CG  LEU A   1      10.393   1.792  23.554  0.00  0.00    -0.015 C 
ATOM     12  CD2 LEU A   1       9.316   2.519  24.365  0.00  0.00    +0.007 C 
ENDBRANCH   9  11
ENDBRANCH   1   9
TORSDOF 5
ENDMDL
MODEL 2
REMARK VINA RESULT:      -3.9      4.114      5.375
REMARK  Name = 
REMARK  7 active torsions:
REMARK  status: ('A' for Active; 'I' for Inactive)
REMARK    1  A    between atoms: CD1_1  and  CG_2
REMARK    2  A    between atoms: CG_2  and  CD2_3
REMARK    3  A    between atoms: CG_2  and  CB_4
REMARK    4  A    between atoms: CB_4  and  CA_5
REMARK    5  A    between atoms: CA_5  and  N_7
REMARK    6  A    between atoms: CA_5  and  C_8
REMARK    7  A    between atoms: C_8  and  O_9
REMARK                            x       y       z     vdW  Elec       q    Type
REMARK                         _______ _______ _______ _____ _____    ______ ____
ROOT
ATOM      1  CA  LEU A   1       8.975  -4.596  26.412  0.00  0.00    +0.161 C 
ENDROOT
BRANCH   1   2
ATOM      2  N   LEU A   1       9.948  -5.455  25.666  0.00  0.00    -0.318 NA
ATOM      3  H1  LEU A   1      10.059  -6.330  26.184  0.00  0.00    +0.119 HD
ATOM      4  H2  LEU A   1       9.500  -5.739  24.787  0.00  0.00    +0.119 HD
ENDBRANCH   1   2
BRANCH   1   5
ATOM      5  C   LEU A   1       7.681  -5.409  26.599  0.00  0.00    +0.322 C 
ATOM      6  OXT LEU A   1       6.778  -5.496  25.782  0.00  0.00    -0.249 OA
BRANCH   5   7
ATOM      7  O   LEU A   1       7.667  -6.038  27.803  0.00  0.00    -0.480 OA
ATOM      8  H   LEU A   1       7.368  -6.965  27.620  0.00  0.00    +0.295 HD
ENDBRANCH   5   7
ENDBRANCH   1   5
BRANCH   1   9
ATOM      9  CB  LEU A   1       8.714  -3.318  25.597  0.00  0.00    +0.033 C 
BRANCH   9  11
ATOM     10  CD1 LEU A   1       7.914  -3.499  23.174  0.00  0.00    +0.007 C 
ATOM     11  CG  LEU A   1       9.117  -3.390  24.108  0.00  0.00    -0.015 C 
ATOM     12  CD2 LEU A   1       9.951  -2.161  23.737  0.00  0.00    +0.007 C 
ENDBRANCH   9  11
ENDBRANCH   1   9
TORSDOF 5
ENDMDL
MODEL 3
REMARK VINA RESULT:      -3.8      1.690      2.093
REMARK  Name = 
REMARK  7 active torsions:
REMARK  status: ('A' for Active; 'I' for Inactive)
REMARK    1  A    between atoms: CD1_1  and  CG_2
REMARK    2  A    between atoms: CG_2  and  CD2_3
REMARK    3  A    between atoms: CG_2  and  CB_4
REMARK    4  A    between atoms: CB_4  and  CA_5
REMARK    5  A    between atoms: CA_5  and  N_7
REMARK    6  A    between atoms: CA_5  and  C_8
REMARK    7  A    between atoms: C_8  and  O_9
REMARK                            x       y       z     vdW  Elec       q    Type
REMARK                         _______ _______ _______ _____ _____    ______ ____
ROOT
ATOM      1  CA  LEU A   1       8.760   0.111  21.833  0.00  0.00    +0.161 C 
ENDROOT
BRANCH   1   2
ATOM      2  N   LEU A   1       7.745   0.401  22.894  0.00  0.00    -0.318 NA
ATOM      3  H1  LEU A   1       7.624  -0.446  23.455  0.00  0.00    +0.119 HD
ATOM      4  H2  LEU A   1       8.162   1.075  23.547  0.00  0.00    +0.119 HD
ENDBRANCH   1   2
BRANCH   1   5
ATOM      5  C   LEU A   1       9.094  -1.390  21.903  0.00  0.00    +0.322 C 
ATOM      6  OXT LEU A   1       8.290  -2.283  22.120  0.00  0.00    -0.249 OA
BRANCH   5   7
ATOM      7  O   LEU A   1      10.417  -1.609  21.681  0.00  0.00    -0.480 OA
ATOM      8  H   LEU A   1      10.897  -1.041  22.336  0.00  0.00    +0.295 HD
ENDBRANCH   5   7
ENDBRANCH   1   5
BRANCH   1   9
ATOM      9  CB  LEU A   1      10.010   0.969  22.094  0.00  0.00    +0.033 C 
BRANCH   9  11
ATOM     10  CD1 LEU A   1      10.978   0.752  24.451  0.00  0.00    +0.007 C 
ATOM     11  CG  LEU A   1      10.108   1.581  23.508  0.00  0.00    -0.015 C 
ATOM     12  CD2 LEU A   1      10.656   3.008  23.419  0.00  0.00    +0.007 C 
ENDBRANCH   9  11
ENDBRANCH   1   9
TORSDOF 5
ENDMDL
MODEL 4
REMARK VINA RESULT:      -3.8      5.334      6.240
REMARK  Name = 
REMARK  7 active torsions:
REMARK  status: ('A' for Active; 'I' for Inactive)
REMARK    1  A    between atoms: CD1_1  and  CG_2
REMARK    2  A    between atoms: CG_2  and  CD2_3
REMARK    3  A    between atoms: CG_2  and  CB_4
REMARK    4  A    between atoms: CB_4  and  CA_5
REMARK    5  A    between atoms: CA_5  and  N_7
REMARK    6  A    between atoms: CA_5  and  C_8
REMARK    7  A    between atoms: C_8  and  O_9
REMARK                            x       y       z     vdW  Elec       q    Type
REMARK                         _______ _______ _______ _____ _____    ______ ____
ROOT
ATOM      1  CA  LEU A   1       9.057  -4.453  25.134  0.00  0.00    +0.161 C 
ENDROOT
BRANCH   1   2
ATOM      2  N   LEU A   1       9.803  -5.731  24.914  0.00  0.00    -0.318 NA
ATOM      3  H1  LEU A   1       9.386  -6.205  24.109  0.00  0.00    +0.119 HD
ATOM      4  H2  LEU A   1      10.750  -5.488  24.599  0.00  0.00    +0.119 HD
ENDBRANCH   1   2
BRANCH   1   5
ATOM      5  C   LEU A   1       8.178  -4.634  26.385  0.00  0.00    +0.322 C 
ATOM      6  OXT LEU A   1       7.454  -3.778  26.869  0.00  0.00    -0.249 OA
BRANCH   5   7
ATOM      7  O   LEU A   1       8.300  -5.889  26.892  0.00  0.00    -0.480 OA
ATOM      8  H   LEU A   1       7.572  -6.419  26.478  0.00  0.00    +0.295 HD
ENDBRANCH   5   7
ENDBRANCH   1   5
BRANCH   1   9
ATOM      9  CB  LEU A   1       8.199  -4.159  23.892  0.00  0.00    +0.033 C 
BRANCH   9  11
ATOM     10  CD1 LEU A   1       5.685  -4.569  23.661  0.00  0.00    +0.007 C 
ATOM     11  CG  LEU A   1       7.082  -5.184  23.602  0.00  0.00    -0.015 C 
ATOM     12  CD2 LEU A   1       7.308  -5.824  22.229  0.00  0.00    +0.007 C 
ENDBRANCH   9  11
ENDBRANCH   1   9
TORSDOF 5
ENDMDL
MODEL 5
REMARK VINA RESULT:      -3.7      1.881      2.140
REMARK  Name = 
REMARK  7 active torsions:
REMARK  status: ('A' for Active; 'I' for Inactive)
REMARK    1  A    between atoms: CD1_1  and  CG_2
REMARK    2  A    between atoms: CG_2  and  CD2_3
REMARK    3  A    between atoms: CG_2  and  CB_4
REMARK    4  A    between atoms: CB_4  and  CA_5
REMARK    5  A    between atoms: CA_5  and  N_7
REMARK    6  A    between atoms: CA_5  and  C_8
REMARK    7  A    between atoms: C_8  and  O_9
REMARK                            x       y       z     vdW  Elec       q    Type
REMARK                         _______ _______ _______ _____ _____    ______ ____
ROOT
ATOM      1  CA  LEU A   1      10.214  -1.294  22.969  0.00  0.00    +0.161 C 
ENDROOT
BRANCH   1   2
ATOM      2  N   LEU A   1      10.193  -1.517  21.490  0.00  0.00    -0.318 NA
ATOM      3  H1  LEU A   1      10.088  -0.607  21.035  0.00  0.00    +0.119 HD
ATOM      4  H2  LEU A   1      11.130  -1.830  21.209  0.00  0.00    +0.119 HD
ENDBRANCH   1   2
BRANCH   1   5
ATOM      5  C   LEU A   1       9.388  -2.417  23.623  0.00  0.00    +0.322 C 
ATOM      6  OXT LEU A   1       8.169  -2.445  23.698  0.00  0.00    -0.249 OA
BRANCH   5   7
ATOM      7  O   LEU A   1      10.192  -3.398  24.110  0.00  0.00    -0.480 OA
ATOM      8  H   LEU A   1       9.848  -4.244  23.728  0.00  0.00    +0.295 HD
ENDBRANCH   5   7
ENDBRANCH   1   5
BRANCH   1   9
ATOM      9  CB  LEU A   1       9.608   0.087  23.272  0.00  0.00    +0.033 C 
BRANCH   9  11
ATOM     10  CD1 LEU A   1       8.516   1.556  21.485  0.00  0.00    +0.007 C 
ATOM     11  CG  LEU A   1       9.817   1.155  22.176  0.00  0.00    -0.015 C 
ATOM     12  CD2 LEU A   1      10.486   2.393  22.780  0.00  0.00    +0.007 C 
ENDBRANCH   9  11
ENDBRANCH   1   9
TORSDOF 5
ENDMDL
MODEL 6
REMARK VINA RESULT:      -3.7      5.355      6.173
REMARK  Name = 
REMARK  7 active torsions:
REMARK  status: ('A' for Active; 'I' for Inactive)
REMARK    1  A    between atoms: CD1_1  and  CG_2
REMARK    2  A    between atoms: CG_2  and  CD2_3
REMARK    3  A    between atoms: CG_2  and  CB_4
REMARK    4  A    between atoms: CB_4  and  CA_5
REMARK    5  A    between atoms: CA_5  and  N_7
REMARK    6  A    between atoms: CA_5  and  C_8
REMARK    7  A    between atoms: C_8  and  O_9
REMARK                            x       y       z     vdW  Elec       q    Type
REMARK                         _______ _______ _______ _____ _____    ______ ____
ROOT
ATOM      1  CA  LEU A   1       8.017  -5.337  25.732  0.00  0.00    +0.161 C 
ENDROOT
BRANCH   1   2
ATOM      2  N   LEU A   1       8.168  -5.617  27.194  0.00  0.00    -0.318 NA
ATOM      3  H1  LEU A   1       7.459  -5.074  27.695  0.00  0.00    +0.119 HD
ATOM      4  H2  LEU A   1       7.894  -6.594  27.354  0.00  0.00    +0.119 HD
ENDBRANCH   1   2
BRANCH   1   5
ATOM      5  C   LEU A   1       9.389  -4.887  25.198  0.00  0.00    +0.322 C 
ATOM      6  OXT LEU A   1       9.572  -3.996  24.383  0.00  0.00    -0.249 OA
BRANCH   5   7
ATOM      7  O   LEU A   1      10.394  -5.608  25.760  0.00  0.00    -0.480 OA
ATOM      8  H   LEU A   1      10.346  -5.425  26.732  0.00  0.00    +0.295 HD
ENDBRANCH   5   7
ENDBRANCH   1   5
BRANCH   1   9
ATOM      9  CB  LEU A   1       6.961  -4.233  25.546  0.00  0.00    +0.033 C 
BRANCH   9  11
ATOM     10  CD1 LEU A   1       6.178  -4.561  23.133  0.00  0.00    +0.007 C 
ATOM     11  CG  LEU A   1       5.787  -4.593  24.609  0.00  0.00    -0.015 C 
ATOM     12  CD2 LEU A   1       5.241  -5.977  24.969  0.00  0.00    +0.007 C 
ENDBRANCH   9  11
ENDBRANCH   1   9
TORSDOF 5
ENDMDL
MODEL 7
REMARK VINA RESULT:      -3.7      2.816      3.855
REMARK  Name = 
REMARK  7 active torsions:
REMARK  status: ('A' for Active; 'I' for Inactive)
REMARK    1  A    between atoms: CD1_1  and  CG_2
REMARK    2  A    between atoms: CG_2  and  CD2_3
REMARK    3  A    between atoms: CG_2  and  CB_4
REMARK    4  A    between atoms: CB_4  and  CA_5
REMARK    5  A    between atoms: CA_5  and  N_7
REMARK    6  A    between atoms: CA_5  and  C_8
REMARK    7  A    between atoms: C_8  and  O_9
REMARK                            x       y       z     vdW  Elec       q    Type
REMARK                         _______ _______ _______ _____ _____    ______ ____
ROOT
ATOM      1  CA  LEU A   1       9.599   1.055  22.620  0.00  0.00    +0.161 C 
ENDROOT
BRANCH   1   2
ATOM      2  N   LEU A   1       9.666   2.074  21.526  0.00  0.00    -0.318 NA
ATOM      3  H1  LEU A   1       9.683   1.576  20.632  0.00  0.00    +0.119 HD
ATOM      4  H2  LEU A   1       8.772   2.578  21.515  0.00  0.00    +0.119 HD
ENDBRANCH   1   2
BRANCH   1   5
ATOM      5  C   LEU A   1      10.551   1.509  23.741  0.00  0.00    +0.322 C 
ATOM      6  OXT LEU A   1      10.959   0.804  24.651  0.00  0.00    -0.249 OA
BRANCH   5   7
ATOM      7  O   LEU A   1      10.898   2.814  23.591  0.00  0.00    -0.480 OA
ATOM      8  H   LEU A   1      11.869   2.815  23.396  0.00  0.00    +0.295 HD
ENDBRANCH   5   7
ENDBRANCH   1   5
BRANCH   1   9
ATOM      9  CB  LEU A   1      10.024  -0.311  22.052  0.00  0.00    +0.033 C 
BRANCH   9  11
ATOM     10  CD1 LEU A   1       9.841  -2.340  23.598  0.00  0.00    +0.007 C 
ATOM     11  CG  LEU A   1       9.166  -1.511  22.507  0.00  0.00    -0.015 C 
ATOM     12  CD2 LEU A   1       7.803  -1.018  22.999  0.00  0.00    +0.007 C 
ENDBRANCH   9  11
ENDBRANCH   1   9
TORSDOF 5
ENDMDL
MODEL 8
REMARK VINA RESULT:      -3.6      4.087      4.771
REMARK  Name = 
REMARK  7 active torsions:
REMARK  status: ('A' for Active; 'I' for Inactive)
REMARK    1  A    between atoms: CD1_1  and  CG_2
REMARK    2  A    between atoms: CG_2  and  CD2_3
REMARK    3  A    between atoms: CG_2  and  CB_4
REMARK    4  A    between atoms: CB_4  and  CA_5
REMARK    5  A    between atoms: CA_5  and  N_7
REMARK    6  A    between atoms: CA_5  and  C_8
REMARK    7  A    between atoms: C_8  and  O_9
REMARK                            x       y       z     vdW  Elec       q    Type
REMARK                         _______ _______ _______ _____ _____    ______ ____
ROOT
ATOM      1  CA  LEU A   1       8.083  -4.769  26.101  0.00  0.00    +0.161 C 
ENDROOT
BRANCH   1   2
ATOM      2  N   LEU A   1       8.078  -5.784  27.200  0.00  0.00    -0.318 NA
ATOM      3  H1  LEU A   1       7.738  -5.327  28.051  0.00  0.00    +0.119 HD
ATOM      4  H2  LEU A   1       7.353  -6.477  26.981  0.00  0.00    +0.119 HD
ENDBRANCH   1   2
BRANCH   1   5
ATOM      5  C   LEU A   1       8.968  -5.313  24.965  0.00  0.00    +0.322 C 
ATOM      6  OXT LEU A   1       8.623  -5.442  23.801  0.00  0.00    -0.249 OA
BRANCH   5   7
ATOM      7  O   LEU A   1      10.208  -5.631  25.420  0.00  0.00    -0.480 OA
ATOM      8  H   LEU A   1      10.236  -5.329  26.363  0.00  0.00    +0.295 HD
ENDBRANCH   5   7
ENDBRANCH   1   5
BRANCH   1   9
ATOM      9  CB  LEU A   1       8.640  -3.445  26.652  0.00  0.00    +0.033 C 
BRANCH   9  11
ATOM     10  CD1 LEU A   1       6.958  -2.140  25.234  0.00  0.00    +0.007 C 
ATOM     11  CG  LEU A   1       8.387  -2.203  25.770  0.00  0.00    -0.015 C 
ATOM     12  CD2 LEU A   1       8.699  -0.931  26.563  0.00  0.00    +0.007 C 
ENDBRANCH   9  11
ENDBRANCH   1   9
TORSDOF 5
ENDMDL
MODEL 9
REMARK VINA RESULT:      -3.6      2.369      3.811
REMARK  Name = 
REMARK  7 active torsions:
REMARK  status: ('A' for Active; 'I' for Inactive)
REMARK    1  A    between atoms: CD1_1  and  CG_2
REMARK    2  A    between atoms: CG_2  and  CD2_3
REMARK    3  A    between atoms: CG_2  and  CB_4
REMARK    4  A    between atoms: CB_4  and  CA_5
REMARK    5  A    between atoms: CA_5  and  N_7
REMARK    6  A    between atoms: CA_5  and  C_8
REMARK    7  A    between atoms: C_8  and  O_9
REMARK                            x       y       z     vdW  Elec       q    Type
REMARK                         _______ _______ _______ _____ _____    ______ ____
ROOT
ATOM      1  CA  LEU A   1      10.300   0.271  23.015  0.00  0.00    +0.161 C 
ENDROOT
BRANCH   1   2
ATOM      2  N   LEU A   1       9.442   0.589  24.199  0.00  0.00    -0.318 NA
ATOM      3  H1  LEU A   1       9.455   1.603  24.335  0.00  0.00    +0.119 HD
ATOM      4  H2  LEU A   1       8.470   0.383  23.943  0.00  0.00    +0.119 HD
ENDBRANCH   1   2
BRANCH   1   5
ATOM      5  C   LEU A   1       9.746   1.056  21.812  0.00  0.00    +0.322 C 
ATOM      6  OXT LEU A   1       8.897   0.650  21.035  0.00  0.00    -0.249 OA
BRANCH   5   7
ATOM      7  O   LEU A   1      10.321   2.284  21.721  0.00  0.00    -0.480 OA
ATOM      8  H   LEU A   1       9.929   2.707  20.915  0.00  0.00    +0.295 HD
ENDBRANCH   5   7
ENDBRANCH   1   5
BRANCH   1   9
ATOM      9  CB  LEU A   1      10.249  -1.245  22.759  0.00  0.00    +0.033 C 
BRANCH   9  11
ATOM     10  CD1 LEU A   1       8.058  -2.515  22.401  0.00  0.00    +0.007 C 
ATOM     11  CG  LEU A   1       9.068  -1.988  23.419  0.00  0.00    -0.015 C 
ATOM     12  CD2 LEU A   1       9.594  -3.145  24.272  0.00  0.00    +0.007 C 
ENDBRANCH   9  11
ENDBRANCH   1   9
TORSDOF 5
ENDMDL
