MODEL 1
REMARK VINA RESULT:      -4.1      0.000      0.000
REMARK  Name = 
REMARK  5 active torsions:
REMARK  status: ('A' for Active; 'I' for Inactive)
REMARK    1  A    between atoms: O_1  and  C_2
REMARK    2  A    between atoms: C_2  and  C_3
REMARK    3  A    between atoms: C_6  and  O_8
REMARK    4  A    between atoms: C_9  and  O_11
REMARK    5  A    between atoms: C_12  and  O_14
REMARK                            x       y       z     vdW  Elec       q    Type
REMARK                         _______ _______ _______ _____ _____    ______ ____
ROOT
ATOM      1  C   UNL     1       8.127  -4.253  24.339  0.00  0.00    +0.178 C 
ATOM      2  C   UNL     1       8.890  -5.241  25.219  0.00  0.00    +0.179 C 
ATOM      3  C   UNL     1       8.646  -4.742  26.642  0.00  0.00    +0.201 C 
ATOM      4  C   UNL     1       7.739  -3.518  26.471  0.00  0.00    +0.279 C 
ATOM      5  O   UNL     1       7.137  -3.635  25.186  0.00  0.00    -0.341 OA
ENDROOT
BRANCH   2   6
ATOM      6  O   UNL     1      10.277  -5.257  24.880  0.00  0.00    -0.386 OA
ATOM      7  H   UNL     1      10.692  -4.523  25.368  0.00  0.00    +0.210 HD
ENDBRANCH   2   6
BRANCH   3   8
ATOM      8  O   UNL     1       7.980  -5.776  27.391  0.00  0.00    -0.384 OA
ATOM      9  H   UNL     1       7.198  -6.048  26.873  0.00  0.00    +0.210 HD
ENDBRANCH   3   8
BRANCH   4  10
ATOM     10  O   UNL     1       8.494  -2.320  26.502  0.00  0.00    -0.365 OA
ATOM     11  H   UNL     1       7.853  -1.626  26.725  0.00  0.00    +0.213 HD
ENDBRANCH   4  10
BRANCH   1  12
ATOM     12  C   UNL     1       7.443  -4.914  23.142  0.00  0.00    +0.190 C 
BRANCH  12  13
ATOM     13  O   UNL     1       8.169  -6.067  22.706  0.00  0.00    -0.392 OA
ATOM     14  H   UNL     1       9.096  -5.925  22.967  0.00  0.00    +0.210 HD
ENDBRANCH  12  13
ENDBRANCH   1  12
TORSDOF 5
ENDMDL
MODEL 2
REMARK VINA RESULT:      -4.1      4.954      6.510
REMARK  Name = 
REMARK  5 active torsions:
REMARK  status: ('A' for Active; 'I' for Inactive)
REMARK    1  A    between atoms: O_1  and  C_2
REMARK    2  A    between atoms: C_2  and  C_3
REMARK    3  A    between atoms: C_6  and  O_8
REMARK    4  A    between atoms: C_9  and  O_11
REMARK    5  A    between atoms: C_12  and  O_14
REMARK                            x       y       z     vdW  Elec       q    Type
REMARK                         _______ _______ _______ _____ _____    ______ ____
ROOT
ATOM      1  C   UNL     1       9.018  -0.232  23.880  0.00  0.00    +0.178 C 
ATOM      2  C   UNL     1       9.851   1.001  23.537  0.00  0.00    +0.179 C 
ATOM      3  C   UNL     1      10.058   0.907  22.026  0.00  0.00    +0.201 C 
ATOM      4  C   UNL     1       9.305  -0.364  21.613  0.00  0.00    +0.279 C 
ATOM      5  O   UNL     1       8.376  -0.642  22.655  0.00  0.00    -0.341 OA
ENDROOT
BRANCH   2   6
ATOM      6  O   UNL     1      11.085   0.996  24.256  0.00  0.00    -0.386 OA
ATOM      7  H   UNL     1      10.945   0.445  25.048  0.00  0.00    +0.210 HD
ENDBRANCH   2   6
BRANCH   3   8
ATOM      8  O   UNL     1       9.486   2.071  21.404  0.00  0.00    -0.384 OA
ATOM      9  H   UNL     1       9.949   2.850  21.767  0.00  0.00    +0.210 HD
ENDBRANCH   3   8
BRANCH   4  10
ATOM     10  O   UNL     1      10.192  -1.463  21.502  0.00  0.00    -0.365 OA
ATOM     11  H   UNL     1       9.630  -2.249  21.603  0.00  0.00    +0.213 HD
ENDBRANCH   4  10
BRANCH   1  12
ATOM     12  C   UNL     1       7.962   0.031  24.953  0.00  0.00    +0.190 C 
BRANCH  12  13
ATOM     13  O   UNL     1       8.468   0.903  25.969  0.00  0.00    -0.392 OA
ATOM     14  H   UNL     1       9.423   0.991  25.808  0.00  0.00    +0.210 HD
ENDBRANCH  12  13
ENDBRANCH   1  12
TORSDOF 5
ENDMDL
MODEL 3
REMARK VINA RESULT:      -4.1      5.156      6.505
REMARK  Name = 
REMARK  5 active torsions:
REMARK  status: ('A' for Active; 'I' for Inactive)
REMARK    1  A    between atoms: O_1  and  C_2
REMARK    2  A    between atoms: C_2  and  C_3
REMARK    3  A    between atoms: C_6  and  O_8
REMARK    4  A    between atoms: C_9  and  O_11
REMARK    5  A    between atoms: C_12  and  O_14
REMARK                            x       y       z     vdW  Elec       q    Type
REMARK                         _______ _______ _______ _____ _____    ______ ____
ROOT
ATOM      1  C   UNL     1       9.024  -0.309  23.506  0.00  0.00    +0.178 C 
ATOM      2  C   UNL     1       9.690  -0.019  22.163  0.00  0.00    +0.179 C 
ATOM      3  C   UNL     1       8.898   1.160  21.598  0.00  0.00    +0.201 C 
ATOM      4  C   UNL     1       7.852   1.473  22.676  0.00  0.00    +0.279 C 
ATOM      5  O   UNL     1       8.333   0.898  23.886  0.00  0.00    -0.341 OA
ENDROOT
BRANCH   2   6
ATOM      6  O   UNL     1       9.637  -1.165  21.312  0.00  0.00    -0.386 OA
ATOM      7  H   UNL     1       9.354  -1.914  21.869  0.00  0.00    +0.210 HD
ENDBRANCH   2   6
BRANCH   3   8
ATOM      8  O   UNL     1       9.792   2.272  21.409  0.00  0.00    -0.384 OA
ATOM      9  H   UNL     1       9.702   2.559  20.479  0.00  0.00    +0.210 HD
ENDBRANCH   3   8
BRANCH   4  10
ATOM     10  O   UNL     1       6.608   0.874  22.361  0.00  0.00    -0.365 OA
ATOM     11  H   UNL     1       6.132   1.544  21.842  0.00  0.00    +0.213 HD
ENDBRANCH   4  10
BRANCH   1  12
ATOM     12  C   UNL     1      10.017  -0.702  24.600  0.00  0.00    +0.190 C 
BRANCH  12  13
ATOM     13  O   UNL     1      10.400   0.435  25.379  0.00  0.00    -0.392 OA
ATOM     14  H   UNL     1      10.787   0.089  26.202  0.00  0.00    +0.210 HD
ENDBRANCH  12  13
ENDBRANCH   1  12
TORSDOF 5
ENDMDL
MODEL 4
REMARK VINA RESULT:      -4.0      5.740      6.753
REMARK  Name = 
REMARK  5 active torsions:
REMARK  status: ('A' for Active; 'I' for Inactive)
REMARK    1  A    between atoms: O_1  and  C_2
REMARK    2  A    between atoms: C_2  and  C_3
REMARK    3  A    between atoms: C_6  and  O_8
REMARK    4  A    between atoms: C_9  and  O_11
REMARK    5  A    between atoms: C_12  and  O_14
REMARK                            x       y       z     vdW  Elec       q    Type
REMARK                         _______ _______ _______ _____ _____    ______ ____
ROOT
ATOM      1  C   UNL     1       9.481   0.178  23.007  0.00  0.00    +0.178 C 
ATOM      2  C   UNL     1       9.771   1.316  22.031  0.00  0.00    +0.179 C 
ATOM      3  C   UNL     1       9.695   2.577  22.892  0.00  0.00    +0.201 C 
ATOM      4  C   UNL     1       9.390   2.062  24.304  0.00  0.00    +0.279 C 
ATOM      5  O   UNL     1       9.767   0.689  24.325  0.00  0.00    -0.341 OA
ENDROOT
BRANCH   2   6
ATOM      6  O   UNL     1       8.820   1.327  20.967  0.00  0.00    -0.386 OA
ATOM      7  H   UNL     1       9.004   0.542  20.419  0.00  0.00    +0.210 HD
ENDBRANCH   2   6
BRANCH   3   8
ATOM      8  O   UNL     1      10.968   3.247  22.851  0.00  0.00    -0.384 OA
ATOM      9  H   UNL     1      11.092   3.575  21.939  0.00  0.00    +0.210 HD
ENDBRANCH   3   8
BRANCH   4  10
ATOM     10  O   UNL     1       8.004   2.148  24.585  0.00  0.00    -0.365 OA
ATOM     11  H   UNL     1       7.570   2.118  23.716  0.00  0.00    +0.213 HD
ENDBRANCH   4  10
BRANCH   1  12
ATOM     12  C   UNL     1      10.321  -1.072  22.745  0.00  0.00    +0.190 C 
BRANCH  12  13
ATOM     13  O   UNL     1      10.172  -1.517  21.393  0.00  0.00    -0.392 OA
ATOM     14  H   UNL     1       9.433  -1.010  21.014  0.00  0.00    +0.210 HD
ENDBRANCH  12  13
ENDBRANCH   1  12
TORSDOF 5
ENDMDL
MODEL 5
REMARK VINA RESULT:      -4.0      1.401      3.172
REMARK  Name = 
REMARK  5 active torsions:
REMARK  status: ('A' for Active; 'I' for Inactive)
REMARK    1  A    between atoms: O_1  and  C_2
REMARK    2  A    between atoms: C_2  and  C_3
REMARK    3  A    between atoms: C_6  and  O_8
REMARK    4  A    between atoms: C_9  and  O_11
REMARK    5  A    between atoms: C_12  and  O_14
REMARK                            x       y       z     vdW  Elec       q    Type
REMARK                         _______ _______ _______ _____ _____    ______ ____
ROOT
ATOM      1  C   UNL     1       7.740  -4.793  25.261  0.00  0.00    +0.178 C 
ATOM      2  C   UNL     1       9.174  -4.269  25.216  0.00  0.00    +0.179 C 
ATOM      3  C   UNL     1       9.168  -3.258  24.070  0.00  0.00    +0.201 C 
ATOM      4  C   UNL     1       7.722  -3.261  23.561  0.00  0.00    +0.279 C 
ATOM      5  O   UNL     1       6.924  -3.799  24.610  0.00  0.00    -0.341 OA
ENDROOT
BRANCH   2   6
ATOM      6  O   UNL     1      10.097  -5.336  24.994  0.00  0.00    -0.386 OA
ATOM      7  H   UNL     1      10.966  -4.925  24.833  0.00  0.00    +0.210 HD
ENDBRANCH   2   6
BRANCH   3   8
ATOM      8  O   UNL     1       9.530  -1.965  24.588  0.00  0.00    -0.384 OA
ATOM      9  H   UNL     1      10.474  -2.007  24.835  0.00  0.00    +0.210 HD
ENDBRANCH   3   8
BRANCH   4  10
ATOM     10  O   UNL     1       7.587  -4.097  22.425  0.00  0.00    -0.365 OA
ATOM     11  H   UNL     1       8.405  -4.621  22.402  0.00  0.00    +0.213 HD
ENDBRANCH   4  10
BRANCH   1  12
ATOM     12  C   UNL     1       7.229  -5.032  26.681  0.00  0.00    +0.190 C 
BRANCH  12  13
ATOM     13  O   UNL     1       8.127  -5.867  27.417  0.00  0.00    -0.392 OA
ATOM     14  H   UNL     1       8.663  -5.275  27.973  0.00  0.00    +0.210 HD
ENDBRANCH  12  13
ENDBRANCH   1  12
TORSDOF 5
ENDMDL
MODEL 6
REMARK VINA RESULT:      -4.0      4.762      6.225
REMARK  Name = 
REMARK  5 active torsions:
REMARK  status: ('A' for Active; 'I' for Inactive)
REMARK    1  A    between atoms: O_1  and  C_2
REMARK    2  A    between atoms: C_2  and  C_3
REMARK    3  A    between atoms: C_6  and  O_8
REMARK    4  A    between atoms: C_9  and  O_11
REMARK    5  A    between atoms: C_12  and  O_14
REMARK                            x       y       z     vdW  Elec       q    Type
REMARK                         _______ _______ _______ _____ _____    ______ ____
ROOT
ATOM      1  C   UNL     1       8.665   0.470  23.727  0.00  0.00    +0.178 C 
ATOM      2  C   UNL     1       8.525  -0.880  23.027  0.00  0.00    +0.179 C 
ATOM      3  C   UNL     1       9.244  -0.689  21.693  0.00  0.00    +0.201 C 
ATOM      4  C   UNL     1       9.765   0.753  21.740  0.00  0.00    +0.279 C 
ATOM      5  O   UNL     1       9.790   1.130  23.112  0.00  0.00    -0.341 OA
ENDROOT
BRANCH   2   6
ATOM      6  O   UNL     1       7.149  -1.223  22.857  0.00  0.00    -0.386 OA
ATOM      7  H   UNL     1       6.713  -0.445  22.463  0.00  0.00    +0.210 HD
ENDBRANCH   2   6
BRANCH   3   8
ATOM      8  O   UNL     1      10.332  -1.628  21.611  0.00  0.00    -0.384 OA
ATOM      9  H   UNL     1      10.207  -2.143  20.791  0.00  0.00    +0.210 HD
ENDBRANCH   3   8
BRANCH   4  10
ATOM     10  O   UNL     1       8.891   1.630  21.052  0.00  0.00    -0.365 OA
ATOM     11  H   UNL     1       8.053   1.143  20.983  0.00  0.00    +0.213 HD
ENDBRANCH   4  10
BRANCH   1  12
ATOM     12  C   UNL     1       8.897   0.348  25.232  0.00  0.00    +0.190 C 
BRANCH  12  13
ATOM     13  O   UNL     1      10.291   0.417  25.546  0.00  0.00    -0.392 OA
ATOM     14  H   UNL     1      10.601   1.287  25.239  0.00  0.00    +0.210 HD
ENDBRANCH  12  13
ENDBRANCH   1  12
TORSDOF 5
ENDMDL
MODEL 7
REMARK VINA RESULT:      -3.9      5.028      6.081
REMARK  Name = 
REMARK  5 active torsions:
REMARK  status: ('A' for Active; 'I' for Inactive)
REMARK    1  A    between atoms: O_1  and  C_2
REMARK    2  A    between atoms: C_2  and  C_3
REMARK    3  A    between atoms: C_6  and  O_8
REMARK    4  A    between atoms: C_9  and  O_11
REMARK    5  A    between atoms: C_12  and  O_14
REMARK                            x       y       z     vdW  Elec       q    Type
REMARK                         _______ _______ _______ _____ _____    ______ ____
ROOT
ATOM      1  C   UNL     1       8.412   0.992  23.081  0.00  0.00    +0.178 C 
ATOM      2  C   UNL     1       9.295   0.746  21.860  0.00  0.00    +0.179 C 
ATOM      3  C   UNL     1      10.308  -0.297  22.333  0.00  0.00    +0.201 C 
ATOM      4  C   UNL     1       9.911  -0.588  23.786  0.00  0.00    +0.279 C 
ATOM      5  O   UNL     1       8.559  -0.166  23.929  0.00  0.00    -0.341 OA
ENDROOT
BRANCH   2   6
ATOM      6  O   UNL     1       9.922   1.956  21.434  0.00  0.00    -0.386 OA
ATOM      7  H   UNL     1      10.882   1.825  21.535  0.00  0.00    +0.210 HD
ENDBRANCH   2   6
BRANCH   3   8
ATOM      8  O   UNL     1      10.179  -1.475  21.517  0.00  0.00    -0.384 OA
ATOM      9  H   UNL     1       9.646  -2.119  22.023  0.00  0.00    +0.210 HD
ENDBRANCH   3   8
BRANCH   4  10
ATOM     10  O   UNL     1      10.709   0.158  24.687  0.00  0.00    -0.365 OA
ATOM     11  H   UNL     1      10.112   0.390  25.417  0.00  0.00    +0.213 HD
ENDBRANCH   4  10
BRANCH   1  12
ATOM     12  C   UNL     1       6.938   1.190  22.730  0.00  0.00    +0.190 C 
BRANCH  12  13
ATOM     13  O   UNL     1       6.147   0.090  23.188  0.00  0.00    -0.392 OA
ATOM     14  H   UNL     1       5.335   0.090  22.651  0.00  0.00    +0.210 HD
ENDBRANCH  12  13
ENDBRANCH   1  12
TORSDOF 5
ENDMDL
MODEL 8
REMARK VINA RESULT:      -3.9      4.986      6.071
REMARK  Name = 
REMARK  5 active torsions:
REMARK  status: ('A' for Active; 'I' for Inactive)
REMARK    1  A    between atoms: O_1  and  C_2
REMARK    2  A    between atoms: C_2  and  C_3
REMARK    3  A    between atoms: C_6  and  O_8
REMARK    4  A    between atoms: C_9  and  O_11
REMARK    5  A    between atoms: C_12  and  O_14
REMARK                            x       y       z     vdW  Elec       q    Type
REMARK                         _______ _______ _______ _____ _____    ______ ____
ROOT
ATOM      1  C   UNL     1       9.907  -0.338  22.721  0.00  0.00    +0.178 C 
ATOM      2  C   UNL     1       8.745   0.073  23.624  0.00  0.00    +0.179 C 
ATOM      3  C   UNL     1       7.989   1.121  22.809  0.00  0.00    +0.201 C 
ATOM      4  C   UNL     1       8.763   1.213  21.488  0.00  0.00    +0.279 C 
ATOM      5  O   UNL     1       9.521   0.014  21.377  0.00  0.00    -0.341 OA
ENDROOT
BRANCH   2   6
ATOM      6  O   UNL     1       9.225   0.592  24.864  0.00  0.00    -0.386 OA
ATOM      7  H   UNL     1      10.171   0.362  24.916  0.00  0.00    +0.210 HD
ENDBRANCH   2   6
BRANCH   3   8
ATOM      8  O   UNL     1       6.644   0.658  22.587  0.00  0.00    -0.384 OA
ATOM      9  H   UNL     1       6.434   0.822  21.648  0.00  0.00    +0.210 HD
ENDBRANCH   3   8
BRANCH   4  10
ATOM     10  O   UNL     1       9.660   2.309  21.503  0.00  0.00    -0.365 OA
ATOM     11  H   UNL     1       9.500   2.751  22.353  0.00  0.00    +0.213 HD
ENDBRANCH   4  10
BRANCH   1  12
ATOM     12  C   UNL     1      10.229  -1.830  22.793  0.00  0.00    +0.190 C 
BRANCH  12  13
ATOM     13  O   UNL     1       9.914  -2.363  24.082  0.00  0.00    -0.392 OA
ATOM     14  H   UNL     1       9.762  -3.316  23.959  0.00  0.00    +0.210 HD
ENDBRANCH  12  13
ENDBRANCH   1  12
TORSDOF 5
ENDMDL
MODEL 9
REMARK VINA RESULT:      -3.8      4.792      5.505
REMARK  Name = 
REMARK  5 active torsions:
REMARK  status: ('A' for Active; 'I' for Inactive)
REMARK    1  A    between atoms: O_1  and  C_2
REMARK    2  A    between atoms: C_2  and  C_3
REMARK    3  A    between atoms: C_6  and  O_8
REMARK    4  A    between atoms: C_9  and  O_11
REMARK    5  A    between atoms: C_12  and  O_14
REMARK                            x       y       z     vdW  Elec       q    Type
REMARK                         _______ _______ _______ _____ _____    ______ ____
ROOT
ATOM      1  C   UNL     1       8.492  -0.383  22.391  0.00  0.00    +0.178 C 
ATOM      2  C   UNL     1       9.831  -0.863  22.948  0.00  0.00    +0.179 C 
ATOM      3  C   UNL     1      10.591   0.425  23.261  0.00  0.00    +0.201 C 
ATOM      4  C   UNL     1       9.617   1.549  22.882  0.00  0.00    +0.279 C 
ATOM      5  O   UNL     1       8.318   0.969  22.862  0.00  0.00    -0.341 OA
ENDROOT
BRANCH   2   6
ATOM      6  O   UNL     1      10.514  -1.678  21.995  0.00  0.00    -0.386 OA
ATOM      7  H   UNL     1      10.042  -2.531  21.967  0.00  0.00    +0.210 HD
ENDBRANCH   2   6
BRANCH   3   8
ATOM      8  O   UNL     1      10.893   0.458  24.668  0.00  0.00    -0.384 OA
ATOM      9  H   UNL     1      11.076  -0.461  24.944  0.00  0.00    +0.210 HD
ENDBRANCH   3   8
BRANCH   4  10
ATOM     10  O   UNL     1       9.903   2.050  21.589  0.00  0.00    -0.365 OA
ATOM     11  H   UNL     1      10.001   1.261  21.031  0.00  0.00    +0.213 HD
ENDBRANCH   4  10
BRANCH   1  12
ATOM     12  C   UNL     1       7.309  -1.242  22.837  0.00  0.00    +0.190 C 
BRANCH  12  13
ATOM     13  O   UNL     1       7.561  -2.629  22.596  0.00  0.00    -0.392 OA
ATOM     14  H   UNL     1       6.708  -3.028  22.353  0.00  0.00    +0.210 HD
ENDBRANCH  12  13
ENDBRANCH   1  12
TORSDOF 5
ENDMDL
