MODEL 1
REMARK VINA RESULT:      -5.9      0.000      0.000
REMARK  Name = 
REMARK  8 active torsions:
REMARK  status: ('A' for Active; 'I' for Inactive)
REMARK    1  A    between atoms: N_4  and  C_5
REMARK    2  A    between atoms: C_7  and  C_8
REMARK    3  A    between atoms: C_8  and  S_9
REMARK    4  A    between atoms: S_9  and  C_10
REMARK    5  A    between atoms: C_10  and  C_11
REMARK    6  A    between atoms: C_11  and  C_12
REMARK    7  A    between atoms: N_14  and  S_15
REMARK    8  A    between atoms: S_15  and  N_16
REMARK                            x       y       z     vdW  Elec       q    Type
REMARK                         _______ _______ _______ _____ _____    ______ ____
ROOT
ATOM      1  C   UNL     1       6.231  -2.053  23.429  0.00  0.00    +0.125 C 
ENDROOT
BRANCH   1   5
ATOM      2  C   UNL     1       9.362  -0.226  23.205  0.00  0.00    +0.272 A 
ATOM      3  S   UNL     1      10.201  -1.729  23.024  0.00  0.00    -0.038 S 
ATOM      4  C   UNL     1       8.729  -2.575  23.182  0.00  0.00    +0.074 A 
ATOM      5  C   UNL     1       7.676  -1.693  23.299  0.00  0.00    +0.062 A 
ATOM      6  N   UNL     1       8.046  -0.350  23.306  0.00  0.00    -0.211 NA
BRANCH   2  11
ATOM      7  N   UNL     1      10.608   2.973  22.419  0.00  0.00    -0.289 N 
ATOM      8  H   UNL     1      11.362   2.970  23.097  0.00  0.00    +0.255 HD
ATOM      9  H   UNL     1      10.785   3.505  21.583  0.00  0.00    +0.255 HD
ATOM     10  C   UNL     1       9.942   1.798  22.329  0.00  0.00    +0.384 C 
ATOM     11  N   UNL     1      10.119   0.900  23.239  0.00  0.00    -0.045 NA
ATOM     12  N   UNL     1       9.101   1.793  21.266  0.00  0.00    -0.289 N 
ATOM     13  H   UNL     1       8.734   0.859  21.081  0.00  0.00    +0.255 HD
ATOM     14  H   UNL     1       9.450   2.226  20.424  0.00  0.00    +0.255 HD
ENDBRANCH   2  11
ENDBRANCH   1   5
BRANCH   1  15
ATOM     15  S   UNL     1       5.774  -3.301  22.174  0.00  0.00    -0.154 S 
BRANCH  15  16
ATOM     16  C   UNL     1       4.599  -4.324  23.126  0.00  0.00    +0.081 C 
BRANCH  16  17
ATOM     17  C   UNL     1       5.213  -5.537  23.814  0.00  0.00    +0.141 C 
BRANCH  17  18
ATOM     18  C   UNL     1       5.849  -5.197  25.158  0.00  0.00    +0.313 C 
ATOM     19  N   UNL     1       7.138  -5.255  25.200  0.00  0.00    +0.101 NA
ATOM     20  N   UNL     1       4.985  -4.879  26.180  0.00  0.00    -0.249 N 
ATOM     21  H   UNL     1       5.372  -5.002  27.120  0.00  0.00    +0.288 HD
ATOM     22  H   UNL     1       4.062  -5.304  26.139  0.00  0.00    +0.288 HD
BRANCH  19  23
ATOM     23  S   UNL     1       7.941  -4.847  26.534  0.00  0.00    +0.216 S 
ATOM     24  O   UNL     1       7.572  -5.740  27.611  0.00  0.00    -0.113 OA
ATOM     25  O   UNL     1       7.884  -3.413  26.691  0.00  0.00    -0.113 OA
BRANCH  23  26
ATOM     26  N   UNL     1       9.542  -5.199  26.196  0.00  0.00    -0.168 NA
ATOM     27  H   UNL     1       9.712  -5.141  25.196  0.00  0.00    +0.148 HD
ATOM     28  H   UNL     1      10.150  -4.615  26.762  0.00  0.00    +0.148 HD
ENDBRANCH  23  26
ENDBRANCH  19  23
ENDBRANCH  17  18
ENDBRANCH  16  17
ENDBRANCH  15  16
ENDBRANCH   1  15
TORSDOF 8
ENDMDL
MODEL 2
REMARK VINA RESULT:      -5.9      3.165      4.987
REMARK  Name = 
REMARK  8 active torsions:
REMARK  status: ('A' for Active; 'I' for Inactive)
REMARK    1  A    between atoms: N_4  and  C_5
REMARK    2  A    between atoms: C_7  and  C_8
REMARK    3  A    between atoms: C_8  and  S_9
REMARK    4  A    between atoms: S_9  and  C_10
REMARK    5  A    between atoms: C_10  and  C_11
REMARK    6  A    between atoms: C_11  and  C_12
REMARK    7  A    between atoms: N_14  and  S_15
REMARK    8  A    between atoms: S_15  and  N_16
REMARK                            x       y       z     vdW  Elec       q    Type
REMARK                         _______ _______ _______ _____ _____    ______ ____
ROOT
ATOM      1  C   UNL     1       7.967   1.929  22.726  0.00  0.00    +0.125 C 
ENDROOT
BRANCH   1   5
ATOM      2  C   UNL     1       9.559   5.017  23.784  0.00  0.00    +0.272 A 
ATOM      3  S   UNL     1       8.206   5.902  23.162  0.00  0.00    -0.038 S 
ATOM      4  C   UNL     1       7.496   4.447  22.626  0.00  0.00    +0.074 A 
ATOM      5  C   UNL     1       8.272   3.368  22.993  0.00  0.00    +0.062 A 
ATOM      6  N   UNL     1       9.448   3.702  23.659  0.00  0.00    -0.211 NA
BRANCH   2  11
ATOM      7  N   UNL     1      12.734   6.483  24.196  0.00  0.00    -0.289 N 
ATOM      8  H   UNL     1      12.535   6.935  25.082  0.00  0.00    +0.255 HD
ATOM      9  H   UNL     1      13.692   6.206  24.061  0.00  0.00    +0.255 HD
ATOM     10  C   UNL     1      11.740   5.678  23.752  0.00  0.00    +0.384 C 
ATOM     11  N   UNL     1      10.578   5.743  24.309  0.00  0.00    -0.045 NA
ATOM     12  N   UNL     1      12.147   4.941  22.689  0.00  0.00    -0.289 N 
ATOM     13  H   UNL     1      11.476   4.205  22.464  0.00  0.00    +0.255 HD
ATOM     14  H   UNL     1      13.088   4.582  22.735  0.00  0.00    +0.255 HD
ENDBRANCH   2  11
ENDBRANCH   1   5
BRANCH   1  15
ATOM     15  S   UNL     1       9.332   1.155  21.789  0.00  0.00    -0.154 S 
BRANCH  15  16
ATOM     16  C   UNL     1      10.056   0.077  23.073  0.00  0.00    +0.081 C 
BRANCH  16  17
ATOM     17  C   UNL     1      10.241  -1.378  22.662  0.00  0.00    +0.141 C 
BRANCH  17  18
ATOM     18  C   UNL     1       9.363  -2.336  23.461  0.00  0.00    +0.313 C 
ATOM     19  N   UNL     1       9.979  -3.308  24.046  0.00  0.00    +0.101 NA
ATOM     20  N   UNL     1       8.013  -2.071  23.462  0.00  0.00    -0.249 N 
ATOM     21  H   UNL     1       7.419  -2.876  23.682  0.00  0.00    +0.288 HD
ATOM     22  H   UNL     1       7.646  -1.599  22.640  0.00  0.00    +0.288 HD
BRANCH  19  23
ATOM     23  S   UNL     1       9.184  -4.347  24.984  0.00  0.00    +0.216 S 
ATOM     24  O   UNL     1       8.213  -5.068  24.189  0.00  0.00    -0.113 OA
ATOM     25  O   UNL     1       8.808  -3.676  26.206  0.00  0.00    -0.113 OA
BRANCH  23  26
ATOM     26  N   UNL     1      10.326  -5.485  25.429  0.00  0.00    -0.168 NA
ATOM     27  H   UNL     1      10.770  -5.881  24.604  0.00  0.00    +0.148 HD
ATOM     28  H   UNL     1      10.970  -5.082  26.103  0.00  0.00    +0.148 HD
ENDBRANCH  23  26
ENDBRANCH  19  23
ENDBRANCH  17  18
ENDBRANCH  16  17
ENDBRANCH  15  16
ENDBRANCH   1  15
TORSDOF 8
ENDMDL
MODEL 3
REMARK VINA RESULT:      -5.9      3.355      7.497
REMARK  Name = 
REMARK  8 active torsions:
REMARK  status: ('A' for Active; 'I' for Inactive)
REMARK    1  A    between atoms: N_4  and  C_5
REMARK    2  A    between atoms: C_7  and  C_8
REMARK    3  A    between atoms: C_8  and  S_9
REMARK    4  A    between atoms: S_9  and  C_10
REMARK    5  A    between atoms: C_10  and  C_11
REMARK    6  A    between atoms: C_11  and  C_12
REMARK    7  A    between atoms: N_14  and  S_15
REMARK    8  A    between atoms: S_15  and  N_16
REMARK                            x       y       z     vdW  Elec       q    Type
REMARK                         _______ _______ _______ _____ _____    ______ ____
ROOT
ATOM      1  C   UNL     1       8.317  -1.235  22.997  0.00  0.00    +0.125 C 
ENDROOT
BRANCH   1   5
ATOM      2  C   UNL     1       7.263  -4.340  24.559  0.00  0.00    +0.272 A 
ATOM      3  S   UNL     1       7.040  -5.029  22.987  0.00  0.00    -0.038 S 
ATOM      4  C   UNL     1       7.488  -3.549  22.269  0.00  0.00    +0.074 A 
ATOM      5  C   UNL     1       7.842  -2.632  23.236  0.00  0.00    +0.062 A 
ATOM      6  N   UNL     1       7.716  -3.094  24.543  0.00  0.00    -0.211 NA
BRANCH   2  11
ATOM      7  N   UNL     1       7.532  -6.082  27.608  0.00  0.00    -0.289 N 
ATOM      8  H   UNL     1       6.609  -6.501  27.580  0.00  0.00    +0.255 HD
ATOM      9  H   UNL     1       8.235  -6.624  28.083  0.00  0.00    +0.255 HD
ATOM     10  C   UNL     1       7.863  -5.402  26.485  0.00  0.00    +0.384 C 
ATOM     11  N   UNL     1       6.945  -5.120  25.623  0.00  0.00    -0.045 NA
ATOM     12  N   UNL     1       9.174  -5.055  26.493  0.00  0.00    -0.289 N 
ATOM     13  H   UNL     1       9.477  -4.708  25.582  0.00  0.00    +0.255 HD
ATOM     14  H   UNL     1       9.812  -5.748  26.855  0.00  0.00    +0.255 HD
ENDBRANCH   2  11
ENDBRANCH   1   5
BRANCH   1  15
ATOM     15  S   UNL     1      10.141  -1.161  23.086  0.00  0.00    -0.154 S 
BRANCH  15  16
ATOM     16  C   UNL     1      10.365   0.024  24.457  0.00  0.00    +0.081 C 
BRANCH  16  17
ATOM     17  C   UNL     1      10.774   1.429  24.033  0.00  0.00    +0.141 C 
BRANCH  17  18
ATOM     18  C   UNL     1       9.750   2.092  23.116  0.00  0.00    +0.313 C 
ATOM     19  N   UNL     1       8.613   2.379  23.659  0.00  0.00    +0.101 NA
ATOM     20  N   UNL     1      10.141   2.301  21.814  0.00  0.00    -0.249 N 
ATOM     21  H   UNL     1       9.369   2.404  21.148  0.00  0.00    +0.288 HD
ATOM     22  H   UNL     1      10.823   1.648  21.438  0.00  0.00    +0.288 HD
BRANCH  19  23
ATOM     23  S   UNL     1       7.471   3.148  22.826  0.00  0.00    +0.216 S 
ATOM     24  O   UNL     1       6.385   3.506  23.714  0.00  0.00    -0.113 OA
ATOM     25  O   UNL     1       7.232   2.434  21.594  0.00  0.00    -0.113 OA
BRANCH  23  26
ATOM     26  N   UNL     1       8.171   4.600  22.376  0.00  0.00    -0.168 NA
ATOM     27  H   UNL     1       8.455   4.566  21.401  0.00  0.00    +0.148 HD
ATOM     28  H   UNL     1       7.550   5.369  22.609  0.00  0.00    +0.148 HD
ENDBRANCH  23  26
ENDBRANCH  19  23
ENDBRANCH  17  18
ENDBRANCH  16  17
ENDBRANCH  15  16
ENDBRANCH   1  15
TORSDOF 8
ENDMDL
MODEL 4
REMARK VINA RESULT:      -5.8      3.183      4.255
REMARK  Name = 
REMARK  8 active torsions:
REMARK  status: ('A' for Active; 'I' for Inactive)
REMARK    1  A    between atoms: N_4  and  C_5
REMARK    2  A    between atoms: C_7  and  C_8
REMARK    3  A    between atoms: C_8  and  S_9
REMARK    4  A    between atoms: S_9  and  C_10
REMARK    5  A    between atoms: C_10  and  C_11
REMARK    6  A    between atoms: C_11  and  C_12
REMARK    7  A    between atoms: N_14  and  S_15
REMARK    8  A    between atoms: S_15  and  N_16
REMARK                            x       y       z     vdW  Elec       q    Type
REMARK                         _______ _______ _______ _____ _____    ______ ____
ROOT
ATOM      1  C   UNL     1       5.745  -3.678  21.812  0.00  0.00    +0.125 C 
ENDROOT
BRANCH   1   5
ATOM      2  C   UNL     1       8.719  -3.445  23.884  0.00  0.00    +0.272 A 
ATOM      3  S   UNL     1       8.527  -1.724  23.927  0.00  0.00    -0.038 S 
ATOM      4  C   UNL     1       7.163  -1.847  22.912  0.00  0.00    +0.074 A 
ATOM      5  C   UNL     1       6.879  -3.169  22.642  0.00  0.00    +0.062 A 
ATOM      6  N   UNL     1       7.771  -4.077  23.206  0.00  0.00    -0.211 NA
BRANCH   2  11
ATOM      7  N   UNL     1      10.712  -5.519  25.915  0.00  0.00    -0.289 N 
ATOM      8  H   UNL     1      11.580  -5.012  25.777  0.00  0.00    +0.255 HD
ATOM      9  H   UNL     1      10.621  -5.979  26.806  0.00  0.00    +0.255 HD
ATOM     10  C   UNL     1       9.630  -4.923  25.361  0.00  0.00    +0.384 C 
ATOM     11  N   UNL     1       9.801  -3.958  24.521  0.00  0.00    -0.045 NA
ATOM     12  N   UNL     1       8.483  -5.525  25.760  0.00  0.00    -0.289 N 
ATOM     13  H   UNL     1       7.661  -4.978  25.501  0.00  0.00    +0.255 HD
ATOM     14  H   UNL     1       8.446  -5.809  26.728  0.00  0.00    +0.255 HD
ENDBRANCH   2  11
ENDBRANCH   1   5
BRANCH   1  15
ATOM     15  S   UNL     1       5.543  -5.479  22.051  0.00  0.00    -0.154 S 
BRANCH  15  16
ATOM     16  C   UNL     1       4.675  -5.512  23.656  0.00  0.00    +0.081 C 
BRANCH  16  17
ATOM     17  C   UNL     1       4.585  -6.885  24.311  0.00  0.00    +0.141 C 
BRANCH  17  18
ATOM     18  C   UNL     1       4.544  -6.813  25.835  0.00  0.00    +0.313 C 
ATOM     19  N   UNL     1       5.574  -6.277  26.399  0.00  0.00    +0.101 NA
ATOM     20  N   UNL     1       3.426  -7.337  26.441  0.00  0.00    -0.249 N 
ATOM     21  H   UNL     1       3.557  -7.604  27.421  0.00  0.00    +0.288 HD
ATOM     22  H   UNL     1       2.958  -8.092  25.948  0.00  0.00    +0.288 HD
BRANCH  19  23
ATOM     23  S   UNL     1       5.628  -6.069  27.995  0.00  0.00    +0.216 S 
ATOM     24  O   UNL     1       4.428  -5.390  28.434  0.00  0.00    -0.113 OA
ATOM     25  O   UNL     1       6.941  -5.589  28.357  0.00  0.00    -0.113 OA
BRANCH  23  26
ATOM     26  N   UNL     1       5.522  -7.613  28.632  0.00  0.00    -0.168 NA
ATOM     27  H   UNL     1       4.710  -7.688  29.240  0.00  0.00    +0.148 HD
ATOM     28  H   UNL     1       5.553  -8.298  27.883  0.00  0.00    +0.148 HD
ENDBRANCH  23  26
ENDBRANCH  19  23
ENDBRANCH  17  18
ENDBRANCH  16  17
ENDBRANCH  15  16
ENDBRANCH   1  15
TORSDOF 8
ENDMDL
MODEL 5
REMARK VINA RESULT:      -5.8      3.714      7.422
REMARK  Name = 
REMARK  8 active torsions:
REMARK  status: ('A' for Active; 'I' for Inactive)
REMARK    1  A    between atoms: N_4  and  C_5
REMARK    2  A    between atoms: C_7  and  C_8
REMARK    3  A    between atoms: C_8  and  S_9
REMARK    4  A    between atoms: S_9  and  C_10
REMARK    5  A    between atoms: C_10  and  C_11
REMARK    6  A    between atoms: C_11  and  C_12
REMARK    7  A    between atoms: N_14  and  S_15
REMARK    8  A    between atoms: S_15  and  N_16
REMARK                            x       y       z     vdW  Elec       q    Type
REMARK                         _______ _______ _______ _____ _____    ______ ____
ROOT
ATOM      1  C   UNL     1      10.444  -1.315  22.870  0.00  0.00    +0.125 C 
ENDROOT
BRANCH   1   5
ATOM      2  C   UNL     1       8.122  -3.632  24.430  0.00  0.00    +0.272 A 
ATOM      3  S   UNL     1       7.128  -3.554  23.015  0.00  0.00    -0.038 S 
ATOM      4  C   UNL     1       8.201  -2.428  22.317  0.00  0.00    +0.074 A 
ATOM      5  C   UNL     1       9.281  -2.212  23.147  0.00  0.00    +0.062 A 
ATOM      6  N   UNL     1       9.231  -2.909  24.351  0.00  0.00    -0.211 NA
BRANCH   2  11
ATOM      7  N   UNL     1       8.061  -5.958  27.073  0.00  0.00    -0.289 N 
ATOM      8  H   UNL     1       7.073  -5.868  27.280  0.00  0.00    +0.255 HD
ATOM      9  H   UNL     1       8.458  -6.864  27.261  0.00  0.00    +0.255 HD
ATOM     10  C   UNL     1       8.460  -5.273  25.976  0.00  0.00    +0.384 C 
ATOM     11  N   UNL     1       7.670  -4.394  25.458  0.00  0.00    -0.045 NA
ATOM     12  N   UNL     1       9.728  -5.604  25.627  0.00  0.00    -0.289 N 
ATOM     13  H   UNL     1       9.973  -5.238  24.706  0.00  0.00    +0.255 HD
ATOM     14  H   UNL     1       9.969  -6.580  25.713  0.00  0.00    +0.255 HD
ENDBRANCH   2  11
ENDBRANCH   1   5
BRANCH   1  15
ATOM     15  S   UNL     1      10.145   0.345  23.575  0.00  0.00    -0.154 S 
BRANCH  15  16
ATOM     16  C   UNL     1       9.968   1.334  22.051  0.00  0.00    +0.081 C 
BRANCH  16  17
ATOM     17  C   UNL     1       8.644   1.153  21.317  0.00  0.00    +0.141 C 
BRANCH  17  18
ATOM     18  C   UNL     1       7.461   1.749  22.075  0.00  0.00    +0.313 C 
ATOM     19  N   UNL     1       7.363   3.036  22.042  0.00  0.00    +0.101 NA
ATOM     20  N   UNL     1       6.636   0.856  22.719  0.00  0.00    -0.249 N 
ATOM     21  H   UNL     1       6.087   1.258  23.485  0.00  0.00    +0.288 HD
ATOM     22  H   UNL     1       7.067  -0.009  23.034  0.00  0.00    +0.288 HD
BRANCH  19  23
ATOM     23  S   UNL     1       6.121   3.789  22.734  0.00  0.00    +0.216 S 
ATOM     24  O   UNL     1       6.339   3.867  24.162  0.00  0.00    -0.113 OA
ATOM     25  O   UNL     1       4.893   3.259  22.189  0.00  0.00    -0.113 OA
BRANCH  23  26
ATOM     26  N   UNL     1       6.214   5.366  22.184  0.00  0.00    -0.168 NA
ATOM     27  H   UNL     1       6.406   5.998  22.957  0.00  0.00    +0.148 HD
ATOM     28  H   UNL     1       6.875   5.425  21.415  0.00  0.00    +0.148 HD
ENDBRANCH  23  26
ENDBRANCH  19  23
ENDBRANCH  17  18
ENDBRANCH  16  17
ENDBRANCH  15  16
ENDBRANCH   1  15
TORSDOF 8
ENDMDL
MODEL 6
REMARK VINA RESULT:      -5.8      2.908      6.293
REMARK  Name = 
REMARK  8 active torsions:
REMARK  status: ('A' for Active; 'I' for Inactive)
REMARK    1  A    between atoms: N_4  and  C_5
REMARK    2  A    between atoms: C_7  and  C_8
REMARK    3  A    between atoms: C_8  and  S_9
REMARK    4  A    between atoms: S_9  and  C_10
REMARK    5  A    between atoms: C_10  and  C_11
REMARK    6  A    between atoms: C_11  and  C_12
REMARK    7  A    between atoms: N_14  and  S_15
REMARK    8  A    between atoms: S_15  and  N_16
REMARK                            x       y       z     vdW  Elec       q    Type
REMARK                         _______ _______ _______ _____ _____    ______ ____
ROOT
ATOM      1  C   UNL     1      10.304  -1.224  22.772  0.00  0.00    +0.125 C 
ENDROOT
BRANCH   1   5
ATOM      2  C   UNL     1       8.113  -3.602  24.427  0.00  0.00    +0.272 A 
ATOM      3  S   UNL     1       7.129  -3.652  23.003  0.00  0.00    -0.038 S 
ATOM      4  C   UNL     1       8.139  -2.497  22.259  0.00  0.00    +0.074 A 
ATOM      5  C   UNL     1       9.196  -2.177  23.084  0.00  0.00    +0.062 A 
ATOM      6  N   UNL     1       9.176  -2.817  24.321  0.00  0.00    -0.211 NA
BRANCH   2  11
ATOM      7  N   UNL     1       8.129  -5.913  27.084  0.00  0.00    -0.289 N 
ATOM      8  H   UNL     1       7.160  -5.781  27.354  0.00  0.00    +0.255 HD
ATOM      9  H   UNL     1       8.500  -6.833  27.252  0.00  0.00    +0.255 HD
ATOM     10  C   UNL     1       8.483  -5.249  25.958  0.00  0.00    +0.384 C 
ATOM     11  N   UNL     1       7.697  -4.340  25.486  0.00  0.00    -0.045 NA
ATOM     12  N   UNL     1       9.711  -5.633  25.531  0.00  0.00    -0.289 N 
ATOM     13  H   UNL     1       9.910  -5.282  24.593  0.00  0.00    +0.255 HD
ATOM     14  H   UNL     1       9.917  -6.618  25.607  0.00  0.00    +0.255 HD
ENDBRANCH   2  11
ENDBRANCH   1   5
BRANCH   1  15
ATOM     15  S   UNL     1       9.676   0.176  21.779  0.00  0.00    -0.154 S 
BRANCH  15  16
ATOM     16  C   UNL     1       9.843   1.543  22.978  0.00  0.00    +0.081 C 
BRANCH  16  17
ATOM     17  C   UNL     1      10.044   1.108  24.425  0.00  0.00    +0.141 C 
BRANCH  17  18
ATOM     18  C   UNL     1       8.745   0.683  25.103  0.00  0.00    +0.313 C 
ATOM     19  N   UNL     1       7.660   1.138  24.572  0.00  0.00    +0.101 NA
ATOM     20  N   UNL     1       8.869  -0.126  26.208  0.00  0.00    -0.249 N 
ATOM     21  H   UNL     1       8.064  -0.111  26.841  0.00  0.00    +0.288 HD
ATOM     22  H   UNL     1       9.723  -0.021  26.750  0.00  0.00    +0.288 HD
BRANCH  19  23
ATOM     23  S   UNL     1       6.217   0.706  25.140  0.00  0.00    +0.216 S 
ATOM     24  O   UNL     1       6.041   1.247  26.470  0.00  0.00    -0.113 OA
ATOM     25  O   UNL     1       6.010  -0.696  24.864  0.00  0.00    -0.113 OA
BRANCH  23  26
ATOM     26  N   UNL     1       5.116   1.521  24.180  0.00  0.00    -0.168 NA
ATOM     27  H   UNL     1       5.499   2.416  23.885  0.00  0.00    +0.148 HD
ATOM     28  H   UNL     1       4.811   0.921  23.419  0.00  0.00    +0.148 HD
ENDBRANCH  23  26
ENDBRANCH  19  23
ENDBRANCH  17  18
ENDBRANCH  16  17
ENDBRANCH  15  16
ENDBRANCH   1  15
TORSDOF 8
ENDMDL
MODEL 7
REMARK VINA RESULT:      -5.8      2.805      5.929
REMARK  Name = 
REMARK  8 active torsions:
REMARK  status: ('A' for Active; 'I' for Inactive)
REMARK    1  A    between atoms: N_4  and  C_5
REMARK    2  A    between atoms: C_7  and  C_8
REMARK    3  A    between atoms: C_8  and  S_9
REMARK    4  A    between atoms: S_9  and  C_10
REMARK    5  A    between atoms: C_10  and  C_11
REMARK    6  A    between atoms: C_11  and  C_12
REMARK    7  A    between atoms: N_14  and  S_15
REMARK    8  A    between atoms: S_15  and  N_16
REMARK                            x       y       z     vdW  Elec       q    Type
REMARK                         _______ _______ _______ _____ _____    ______ ____
ROOT
ATOM      1  C   UNL     1      10.247  -1.165  22.742  0.00  0.00    +0.125 C 
ENDROOT
BRANCH   1   5
ATOM      2  C   UNL     1       8.646  -4.115  24.130  0.00  0.00    +0.272 A 
ATOM      3  S   UNL     1       7.344  -3.910  23.007  0.00  0.00    -0.038 S 
ATOM      4  C   UNL     1       8.084  -2.498  22.401  0.00  0.00    +0.074 A 
ATOM      5  C   UNL     1       9.296  -2.284  23.022  0.00  0.00    +0.062 A 
ATOM      6  N   UNL     1       9.612  -3.216  24.007  0.00  0.00    -0.211 NA
BRANCH   2  11
ATOM      7  N   UNL     1       8.014  -5.901  27.099  0.00  0.00    -0.289 N 
ATOM      8  H   UNL     1       8.313  -6.806  26.752  0.00  0.00    +0.255 HD
ATOM      9  H   UNL     1       8.149  -5.753  28.086  0.00  0.00    +0.255 HD
ATOM     10  C   UNL     1       8.235  -4.879  26.238  0.00  0.00    +0.384 C 
ATOM     11  N   UNL     1       8.540  -5.141  25.012  0.00  0.00    -0.045 NA
ATOM     12  N   UNL     1       8.019  -3.681  26.836  0.00  0.00    -0.289 N 
ATOM     13  H   UNL     1       8.356  -2.908  26.261  0.00  0.00    +0.255 HD
ATOM     14  H   UNL     1       8.340  -3.599  27.790  0.00  0.00    +0.255 HD
ENDBRANCH   2  11
ENDBRANCH   1   5
BRANCH   1  15
ATOM     15  S   UNL     1       9.520  -0.001  21.536  0.00  0.00    -0.154 S 
BRANCH  15  16
ATOM     16  C   UNL     1       9.552   1.549  22.500  0.00  0.00    +0.081 C 
BRANCH  16  17
ATOM     17  C   UNL     1       8.184   2.085  22.903  0.00  0.00    +0.141 C 
BRANCH  17  18
ATOM     18  C   UNL     1       7.478   1.199  23.924  0.00  0.00    +0.313 C 
ATOM     19  N   UNL     1       8.195   0.818  24.928  0.00  0.00    +0.101 NA
ATOM     20  N   UNL     1       6.163   0.891  23.661  0.00  0.00    -0.249 N 
ATOM     21  H   UNL     1       5.820   0.047  24.129  0.00  0.00    +0.288 HD
ATOM     22  H   UNL     1       5.894   0.864  22.681  0.00  0.00    +0.288 HD
BRANCH  19  23
ATOM     23  S   UNL     1       7.555  -0.057  26.117  0.00  0.00    +0.216 S 
ATOM     24  O   UNL     1       7.022  -1.289  25.577  0.00  0.00    -0.113 OA
ATOM     25  O   UNL     1       6.753   0.808  26.951  0.00  0.00    -0.113 OA
BRANCH  23  26
ATOM     26  N   UNL     1       8.856  -0.515  27.064  0.00  0.00    -0.168 NA
ATOM     27  H   UNL     1       9.482  -1.118  26.536  0.00  0.00    +0.148 HD
ATOM     28  H   UNL     1       9.300   0.309  27.461  0.00  0.00    +0.148 HD
ENDBRANCH  23  26
ENDBRANCH  19  23
ENDBRANCH  17  18
ENDBRANCH  16  17
ENDBRANCH  15  16
ENDBRANCH   1  15
TORSDOF 8
ENDMDL
MODEL 8
REMARK VINA RESULT:      -5.8      2.221      2.817
REMARK  Name = 
REMARK  8 active torsions:
REMARK  status: ('A' for Active; 'I' for Inactive)
REMARK    1  A    between atoms: N_4  and  C_5
REMARK    2  A    between atoms: C_7  and  C_8
REMARK    3  A    between atoms: C_8  and  S_9
REMARK    4  A    between atoms: S_9  and  C_10
REMARK    5  A    between atoms: C_10  and  C_11
REMARK    6  A    between atoms: C_11  and  C_12
REMARK    7  A    between atoms: N_14  and  S_15
REMARK    8  A    between atoms: S_15  and  N_16
REMARK                            x       y       z     vdW  Elec       q    Type
REMARK                         _______ _______ _______ _____ _____    ______ ____
ROOT
ATOM      1  C   UNL     1       7.775  -2.602  22.345  0.00  0.00    +0.125 C 
ENDROOT
BRANCH   1   5
ATOM      2  C   UNL     1       8.748   0.619  23.712  0.00  0.00    +0.272 A 
ATOM      3  S   UNL     1       7.173   0.773  24.412  0.00  0.00    -0.038 S 
ATOM      4  C   UNL     1       6.715  -0.717  23.721  0.00  0.00    +0.074 A 
ATOM      5  C   UNL     1       7.779  -1.286  23.055  0.00  0.00    +0.062 A 
ATOM      6  N   UNL     1       8.940  -0.518  23.058  0.00  0.00    -0.211 NA
BRANCH   2  11
ATOM      7  N   UNL     1      10.805   3.390  23.009  0.00  0.00    -0.289 N 
ATOM      8  H   UNL     1      11.139   3.526  23.957  0.00  0.00    +0.255 HD
ATOM      9  H   UNL     1      11.450   3.659  22.284  0.00  0.00    +0.255 HD
ATOM     10  C   UNL     1      10.045   2.281  22.845  0.00  0.00    +0.384 C 
ATOM     11  N   UNL     1       9.602   1.660  23.885  0.00  0.00    -0.045 NA
ATOM     12  N   UNL     1       9.814   2.038  21.531  0.00  0.00    -0.289 N 
ATOM     13  H   UNL     1       9.404   1.114  21.387  0.00  0.00    +0.255 HD
ATOM     14  H   UNL     1      10.591   2.199  20.908  0.00  0.00    +0.255 HD
ENDBRANCH   2  11
ENDBRANCH   1   5
BRANCH   1  15
ATOM     15  S   UNL     1       7.520  -3.964  23.537  0.00  0.00    -0.154 S 
BRANCH  15  16
ATOM     16  C   UNL     1       8.916  -3.681  24.679  0.00  0.00    +0.081 C 
BRANCH  16  17
ATOM     17  C   UNL     1       8.518  -3.390  26.122  0.00  0.00    +0.141 C 
BRANCH  17  18
ATOM     18  C   UNL     1       7.829  -4.572  26.796  0.00  0.00    +0.313 C 
ATOM     19  N   UNL     1       6.724  -4.303  27.408  0.00  0.00    +0.101 NA
ATOM     20  N   UNL     1       8.461  -5.789  26.691  0.00  0.00    -0.249 N 
ATOM     21  H   UNL     1       8.202  -6.469  27.412  0.00  0.00    +0.288 HD
ATOM     22  H   UNL     1       9.473  -5.765  26.602  0.00  0.00    +0.288 HD
BRANCH  19  23
ATOM     23  S   UNL     1       5.855  -5.470  28.097  0.00  0.00    +0.216 S 
ATOM     24  O   UNL     1       4.560  -4.948  28.477  0.00  0.00    -0.113 OA
ATOM     25  O   UNL     1       6.690  -6.175  29.041  0.00  0.00    -0.113 OA
BRANCH  23  26
ATOM     26  N   UNL     1       5.549  -6.561  26.866  0.00  0.00    -0.168 NA
ATOM     27  H   UNL     1       6.412  -6.806  26.389  0.00  0.00    +0.148 HD
ATOM     28  H   UNL     1       5.028  -7.354  27.229  0.00  0.00    +0.148 HD
ENDBRANCH  23  26
ENDBRANCH  19  23
ENDBRANCH  17  18
ENDBRANCH  16  17
ENDBRANCH  15  16
ENDBRANCH   1  15
TORSDOF 8
ENDMDL
MODEL 9
REMARK VINA RESULT:      -5.7      3.506      7.728
REMARK  Name = 
REMARK  8 active torsions:
REMARK  status: ('A' for Active; 'I' for Inactive)
REMARK    1  A    between atoms: N_4  and  C_5
REMARK    2  A    between atoms: C_7  and  C_8
REMARK    3  A    between atoms: C_8  and  S_9
REMARK    4  A    between atoms: S_9  and  C_10
REMARK    5  A    between atoms: C_10  and  C_11
REMARK    6  A    between atoms: C_11  and  C_12
REMARK    7  A    between atoms: N_14  and  S_15
REMARK    8  A    between atoms: S_15  and  N_16
REMARK                            x       y       z     vdW  Elec       q    Type
REMARK                         _______ _______ _______ _____ _____    ______ ____
ROOT
ATOM      1  C   UNL     1       8.374  -2.407  22.517  0.00  0.00    +0.125 C 
ENDROOT
BRANCH   1   5
ATOM      2  C   UNL     1       6.638  -4.786  24.643  0.00  0.00    +0.272 A 
ATOM      3  S   UNL     1       6.041  -5.583  23.226  0.00  0.00    -0.038 S 
ATOM      4  C   UNL     1       6.821  -4.428  22.243  0.00  0.00    +0.074 A 
ATOM      5  C   UNL     1       7.539  -3.542  23.017  0.00  0.00    +0.062 A 
ATOM      6  N   UNL     1       7.434  -3.756  24.388  0.00  0.00    -0.211 NA
BRANCH   2  11
ATOM      7  N   UNL     1       6.728  -6.037  27.933  0.00  0.00    -0.289 N 
ATOM      8  H   UNL     1       5.729  -6.188  28.024  0.00  0.00    +0.255 HD
ATOM      9  H   UNL     1       7.307  -6.668  28.462  0.00  0.00    +0.255 HD
ATOM     10  C   UNL     1       7.118  -5.656  26.694  0.00  0.00    +0.384 C 
ATOM     11  N   UNL     1       6.229  -5.274  25.841  0.00  0.00    -0.045 NA
ATOM     12  N   UNL     1       8.469  -5.682  26.579  0.00  0.00    -0.289 N 
ATOM     13  H   UNL     1       8.765  -5.577  25.607  0.00  0.00    +0.255 HD
ATOM     14  H   UNL     1       8.936  -6.457  27.025  0.00  0.00    +0.255 HD
ENDBRANCH   2  11
ENDBRANCH   1   5
BRANCH   1  15
ATOM     15  S   UNL     1       9.846  -2.188  23.577  0.00  0.00    -0.154 S 
BRANCH  15  16
ATOM     16  C   UNL     1       9.641  -0.446  24.086  0.00  0.00    +0.081 C 
BRANCH  16  17
ATOM     17  C   UNL     1      10.689   0.513  23.533  0.00  0.00    +0.141 C 
BRANCH  17  18
ATOM     18  C   UNL     1      10.111   1.880  23.177  0.00  0.00    +0.313 C 
ATOM     19  N   UNL     1       9.640   2.565  24.165  0.00  0.00    +0.101 NA
ATOM     20  N   UNL     1      10.141   2.227  21.846  0.00  0.00    -0.249 N 
ATOM     21  H   UNL     1       9.461   2.944  21.577  0.00  0.00    +0.288 HD
ATOM     22  H   UNL     1      10.103   1.462  21.179  0.00  0.00    +0.288 HD
BRANCH  19  23
ATOM     23  S   UNL     1       9.071   4.054  23.941  0.00  0.00    +0.216 S 
ATOM     24  O   UNL     1       8.756   4.648  25.223  0.00  0.00    -0.113 OA
ATOM     25  O   UNL     1       8.106   4.026  22.867  0.00  0.00    -0.113 OA
BRANCH  23  26
ATOM     26  N   UNL     1      10.371   4.928  23.355  0.00  0.00    -0.168 NA
ATOM     27  H   UNL     1      10.105   5.435  22.515  0.00  0.00    +0.148 HD
ATOM     28  H   UNL     1      10.758   5.508  24.094  0.00  0.00    +0.148 HD
ENDBRANCH  23  26
ENDBRANCH  19  23
ENDBRANCH  17  18
ENDBRANCH  16  17
ENDBRANCH  15  16
ENDBRANCH   1  15
TORSDOF 8
ENDMDL
