MODEL 1
REMARK VINA RESULT:      -5.7      0.000      0.000
REMARK  Name = 
REMARK  3 active torsions:
REMARK  status: ('A' for Active; 'I' for Inactive)
REMARK    1  A    between atoms: C_1  and  C_2
REMARK    2  A    between atoms: C_2  and  N_3
REMARK    3  A    between atoms: C_7  and  C_10
REMARK                            x       y       z     vdW  Elec       q    Type
REMARK                         _______ _______ _______ _____ _____    ______ ____
ROOT
ATOM      1  N   UNL     1       8.036  -3.258  23.905  0.00  0.00    -0.224 N 
ATOM      2  C   UNL     1       8.094  -2.328  22.898  0.00  0.00    +0.248 C 
ATOM      3  O   UNL     1       7.142  -1.898  22.258  0.00  0.00    -0.273 OA
ATOM      4  C   UNL     1       9.558  -1.909  22.718  0.00  0.00    +0.191 C 
ATOM      5  N   UNL     1      10.188  -2.734  23.713  0.00  0.00    -0.284 N 
ATOM      6  H   UNL     1      11.170  -2.726  23.952  0.00  0.00    +0.151 HD
ATOM      7  C   UNL     1       9.279  -3.493  24.411  0.00  0.00    +0.309 C 
ATOM      8  O   UNL     1       9.577  -4.230  25.335  0.00  0.00    -0.252 OA
ENDROOT
BRANCH   4   9
ATOM      9  C   UNL     1       9.816  -0.441  22.951  0.00  0.00    -0.018 A 
ATOM     10  C   UNL     1      10.095   0.064  24.234  0.00  0.00    +0.006 A 
ATOM     11  C   UNL     1      10.333   1.426  24.428  0.00  0.00    +0.000 A 
ATOM     12  C   UNL     1      10.301   2.300  23.344  0.00  0.00    +0.000 A 
ATOM     13  C   UNL     1      10.032   1.815  22.066  0.00  0.00    +0.000 A 
ATOM     14  C   UNL     1       9.792   0.453  21.870  0.00  0.00    +0.006 A 
ENDBRANCH   4   9
BRANCH   1  16
ATOM     15  C   UNL     1       6.450  -5.120  23.738  0.00  0.00    +0.025 C 
ATOM     16  C   UNL     1       6.816  -3.821  24.440  0.00  0.00    +0.114 C 
ENDBRANCH   1  16
TORSDOF 2
ENDMDL
MODEL 2
REMARK VINA RESULT:      -5.5      1.440      2.410
REMARK  Name = 
REMARK  3 active torsions:
REMARK  status: ('A' for Active; 'I' for Inactive)
REMARK    1  A    between atoms: C_1  and  C_2
REMARK    2  A    between atoms: C_2  and  N_3
REMARK    3  A    between atoms: C_7  and  C_10
REMARK                            x       y       z     vdW  Elec       q    Type
REMARK                         _______ _______ _______ _____ _____    ______ ____
ROOT
ATOM      1  N   UNL     1       7.953  -3.513  24.337  0.00  0.00    -0.224 N 
ATOM      2  C   UNL     1       9.165  -2.871  24.335  0.00  0.00    +0.248 C 
ATOM      3  O   UNL     1      10.234  -3.349  23.979  0.00  0.00    -0.273 OA
ATOM      4  C   UNL     1       8.947  -1.441  24.846  0.00  0.00    +0.191 C 
ATOM      5  N   UNL     1       7.534  -1.469  25.106  0.00  0.00    -0.284 N 
ATOM      6  H   UNL     1       6.975  -0.689  25.420  0.00  0.00    +0.151 HD
ATOM      7  C   UNL     1       6.969  -2.679  24.777  0.00  0.00    +0.309 C 
ATOM      8  O   UNL     1       5.777  -2.919  24.867  0.00  0.00    -0.252 OA
ENDROOT
BRANCH   4   9
ATOM      9  C   UNL     1       9.320  -0.365  23.856  0.00  0.00    -0.018 A 
ATOM     10  C   UNL     1       8.993  -0.472  22.493  0.00  0.00    +0.006 A 
ATOM     11  C   UNL     1       9.346   0.536  21.594  0.00  0.00    +0.000 A 
ATOM     12  C   UNL     1      10.025   1.665  22.044  0.00  0.00    +0.000 A 
ATOM     13  C   UNL     1      10.352   1.789  23.392  0.00  0.00    +0.000 A 
ATOM     14  C   UNL     1      10.001   0.782  24.294  0.00  0.00    +0.006 A 
ENDBRANCH   4   9
BRANCH   1  16
ATOM     15  C   UNL     1       7.334  -4.821  22.357  0.00  0.00    +0.025 C 
ATOM     16  C   UNL     1       7.725  -4.848  23.828  0.00  0.00    +0.114 C 
ENDBRANCH   1  16
TORSDOF 2
ENDMDL
MODEL 3
REMARK VINA RESULT:      -5.4      2.542      3.543
REMARK  Name = 
REMARK  3 active torsions:
REMARK  status: ('A' for Active; 'I' for Inactive)
REMARK    1  A    between atoms: C_1  and  C_2
REMARK    2  A    between atoms: C_2  and  N_3
REMARK    3  A    between atoms: C_7  and  C_10
REMARK                            x       y       z     vdW  Elec       q    Type
REMARK                         _______ _______ _______ _____ _____    ______ ____
ROOT
ATOM      1  N   UNL     1       6.655  -5.592  25.928  0.00  0.00    -0.224 N 
ATOM      2  C   UNL     1       7.289  -5.034  24.847  0.00  0.00    +0.248 C 
ATOM      3  O   UNL     1       6.813  -4.888  23.728  0.00  0.00    -0.273 OA
ATOM      4  C   UNL     1       8.697  -4.614  25.284  0.00  0.00    +0.191 C 
ATOM      5  N   UNL     1       8.681  -5.036  26.658  0.00  0.00    -0.284 N 
ATOM      6  H   UNL     1       9.423  -4.896  27.329  0.00  0.00    +0.151 HD
ATOM      7  C   UNL     1       7.470  -5.580  27.019  0.00  0.00    +0.309 C 
ATOM      8  O   UNL     1       7.208  -5.963  28.146  0.00  0.00    -0.252 OA
ENDROOT
BRANCH   4   9
ATOM      9  C   UNL     1       8.974  -3.136  25.149  0.00  0.00    -0.018 A 
ATOM     10  C   UNL     1       8.545  -2.214  26.120  0.00  0.00    +0.006 A 
ATOM     11  C   UNL     1       8.812  -0.851  25.977  0.00  0.00    +0.000 A 
ATOM     12  C   UNL     1       9.515  -0.392  24.866  0.00  0.00    +0.000 A 
ATOM     13  C   UNL     1       9.952  -1.293  23.897  0.00  0.00    +0.000 A 
ATOM     14  C   UNL     1       9.684  -2.657  24.037  0.00  0.00    +0.006 A 
ENDBRANCH   4   9
BRANCH   1  16
ATOM     15  C   UNL     1       4.341  -4.874  26.305  0.00  0.00    +0.025 C 
ATOM     16  C   UNL     1       5.273  -6.021  25.944  0.00  0.00    +0.114 C 
ENDBRANCH   1  16
TORSDOF 2
ENDMDL
MODEL 4
REMARK VINA RESULT:      -5.4      1.972      2.427
REMARK  Name = 
REMARK  3 active torsions:
REMARK  status: ('A' for Active; 'I' for Inactive)
REMARK    1  A    between atoms: C_1  and  C_2
REMARK    2  A    between atoms: C_2  and  N_3
REMARK    3  A    between atoms: C_7  and  C_10
REMARK                            x       y       z     vdW  Elec       q    Type
REMARK                         _______ _______ _______ _____ _____    ______ ____
ROOT
ATOM      1  N   UNL     1       8.913  -3.046  24.830  0.00  0.00    -0.224 N 
ATOM      2  C   UNL     1       9.736  -2.269  24.055  0.00  0.00    +0.248 C 
ATOM      3  O   UNL     1      10.405  -2.654  23.104  0.00  0.00    -0.273 OA
ATOM      4  C   UNL     1       9.663  -0.829  24.576  0.00  0.00    +0.191 C 
ATOM      5  N   UNL     1       8.751  -0.995  25.675  0.00  0.00    -0.284 N 
ATOM      6  H   UNL     1       8.397  -0.257  26.266  0.00  0.00    +0.151 HD
ATOM      7  C   UNL     1       8.306  -2.291  25.789  0.00  0.00    +0.309 C 
ATOM      8  O   UNL     1       7.490  -2.658  26.616  0.00  0.00    -0.252 OA
ENDROOT
BRANCH   4   9
ATOM      9  C   UNL     1       9.158   0.172  23.566  0.00  0.00    -0.018 A 
ATOM     10  C   UNL     1       7.787   0.455  23.432  0.00  0.00    +0.006 A 
ATOM     11  C   UNL     1       7.340   1.386  22.492  0.00  0.00    +0.000 A 
ATOM     12  C   UNL     1       8.255   2.049  21.678  0.00  0.00    +0.000 A 
ATOM     13  C   UNL     1       9.617   1.783  21.802  0.00  0.00    +0.000 A 
ATOM     14  C   UNL     1      10.067   0.851  22.740  0.00  0.00    +0.006 A 
ENDBRANCH   4   9
BRANCH   1  16
ATOM     15  C   UNL     1       9.538  -5.341  25.424  0.00  0.00    +0.025 C 
ATOM     16  C   UNL     1       8.632  -4.445  24.592  0.00  0.00    +0.114 C 
ENDBRANCH   1  16
TORSDOF 2
ENDMDL
MODEL 5
REMARK VINA RESULT:      -5.4      1.766      5.376
REMARK  Name = 
REMARK  3 active torsions:
REMARK  status: ('A' for Active; 'I' for Inactive)
REMARK    1  A    between atoms: C_1  and  C_2
REMARK    2  A    between atoms: C_2  and  N_3
REMARK    3  A    between atoms: C_7  and  C_10
REMARK                            x       y       z     vdW  Elec       q    Type
REMARK                         _______ _______ _______ _____ _____    ______ ____
ROOT
ATOM      1  N   UNL     1       8.921  -0.770  22.383  0.00  0.00    -0.224 N 
ATOM      2  C   UNL     1       7.690  -0.972  22.953  0.00  0.00    +0.248 C 
ATOM      3  O   UNL     1       6.699  -0.271  22.793  0.00  0.00    -0.273 OA
ATOM      4  C   UNL     1       7.766  -2.236  23.817  0.00  0.00    +0.191 C 
ATOM      5  N   UNL     1       9.142  -2.603  23.622  0.00  0.00    -0.284 N 
ATOM      6  H   UNL     1       9.592  -3.427  23.994  0.00  0.00    +0.151 HD
ATOM      7  C   UNL     1       9.790  -1.750  22.761  0.00  0.00    +0.309 C 
ATOM      8  O   UNL     1      10.948  -1.892  22.408  0.00  0.00    -0.252 OA
ENDROOT
BRANCH   4   9
ATOM      9  C   UNL     1       6.820  -3.333  23.396  0.00  0.00    -0.018 A 
ATOM     10  C   UNL     1       5.437  -3.247  23.634  0.00  0.00    +0.006 A 
ATOM     11  C   UNL     1       4.579  -4.273  23.234  0.00  0.00    +0.000 A 
ATOM     12  C   UNL     1       5.089  -5.396  22.588  0.00  0.00    +0.000 A 
ATOM     13  C   UNL     1       6.456  -5.495  22.340  0.00  0.00    +0.000 A 
ATOM     14  C   UNL     1       7.318  -4.471  22.740  0.00  0.00    +0.006 A 
ENDBRANCH   4   9
BRANCH   1  16
ATOM     15  C   UNL     1       9.950   1.434  22.072  0.00  0.00    +0.025 C 
ATOM     16  C   UNL     1       9.226   0.265  21.419  0.00  0.00    +0.114 C 
ENDBRANCH   1  16
TORSDOF 2
ENDMDL
MODEL 6
REMARK VINA RESULT:      -5.4      1.840      5.620
REMARK  Name = 
REMARK  3 active torsions:
REMARK  status: ('A' for Active; 'I' for Inactive)
REMARK    1  A    between atoms: C_1  and  C_2
REMARK    2  A    between atoms: C_2  and  N_3
REMARK    3  A    between atoms: C_7  and  C_10
REMARK                            x       y       z     vdW  Elec       q    Type
REMARK                         _______ _______ _______ _____ _____    ______ ____
ROOT
ATOM      1  N   UNL     1       9.055  -1.050  23.991  0.00  0.00    -0.224 N 
ATOM      2  C   UNL     1       9.274  -2.332  23.555  0.00  0.00    +0.248 C 
ATOM      3  O   UNL     1      10.154  -3.086  23.949  0.00  0.00    -0.273 OA
ATOM      4  C   UNL     1       8.216  -2.662  22.495  0.00  0.00    +0.191 C 
ATOM      5  N   UNL     1       7.492  -1.422  22.454  0.00  0.00    -0.284 N 
ATOM      6  H   UNL     1       6.667  -1.236  21.900  0.00  0.00    +0.151 HD
ATOM      7  C   UNL     1       7.981  -0.504  23.353  0.00  0.00    +0.309 C 
ATOM      8  O   UNL     1       7.494   0.600  23.530  0.00  0.00    -0.252 OA
ENDROOT
BRANCH   4   9
ATOM      9  C   UNL     1       7.326  -3.828  22.849  0.00  0.00    -0.018 A 
ATOM     10  C   UNL     1       7.072  -4.866  21.935  0.00  0.00    +0.006 A 
ATOM     11  C   UNL     1       6.246  -5.936  22.283  0.00  0.00    +0.000 A 
ATOM     12  C   UNL     1       5.667  -5.987  23.548  0.00  0.00    +0.000 A 
ATOM     13  C   UNL     1       5.912  -4.970  24.468  0.00  0.00    +0.000 A 
ATOM     14  C   UNL     1       6.737  -3.896  24.121  0.00  0.00    +0.006 A 
ENDBRANCH   4   9
BRANCH   1  16
ATOM     15  C   UNL     1      10.845   0.539  24.523  0.00  0.00    +0.025 C 
ATOM     16  C   UNL     1       9.782  -0.406  25.063  0.00  0.00    +0.114 C 
ENDBRANCH   1  16
TORSDOF 2
ENDMDL
MODEL 7
REMARK VINA RESULT:      -5.3      2.039      5.212
REMARK  Name = 
REMARK  3 active torsions:
REMARK  status: ('A' for Active; 'I' for Inactive)
REMARK    1  A    between atoms: C_1  and  C_2
REMARK    2  A    between atoms: C_2  and  N_3
REMARK    3  A    between atoms: C_7  and  C_10
REMARK                            x       y       z     vdW  Elec       q    Type
REMARK                         _______ _______ _______ _____ _____    ______ ____
ROOT
ATOM      1  N   UNL     1       9.083  -0.168  22.418  0.00  0.00    -0.224 N 
ATOM      2  C   UNL     1       9.510  -1.469  22.491  0.00  0.00    +0.248 C 
ATOM      3  O   UNL     1      10.665  -1.857  22.364  0.00  0.00    -0.273 OA
ATOM      4  C   UNL     1       8.292  -2.357  22.770  0.00  0.00    +0.191 C 
ATOM      5  N   UNL     1       7.250  -1.367  22.805  0.00  0.00    -0.284 N 
ATOM      6  H   UNL     1       6.277  -1.539  23.013  0.00  0.00    +0.151 HD
ATOM      7  C   UNL     1       7.738  -0.094  22.624  0.00  0.00    +0.309 C 
ATOM      8  O   UNL     1       7.047   0.910  22.663  0.00  0.00    -0.252 OA
ENDROOT
BRANCH   4   9
ATOM      9  C   UNL     1       8.375  -3.138  24.059  0.00  0.00    -0.018 A 
ATOM     10  C   UNL     1       8.373  -4.544  24.070  0.00  0.00    +0.006 A 
ATOM     11  C   UNL     1       8.452  -5.247  25.274  0.00  0.00    +0.000 A 
ATOM     12  C   UNL     1       8.539  -4.557  26.480  0.00  0.00    +0.000 A 
ATOM     13  C   UNL     1       8.548  -3.164  26.486  0.00  0.00    +0.000 A 
ATOM     14  C   UNL     1       8.467  -2.458  25.283  0.00  0.00    +0.006 A 
ENDBRANCH   4   9
BRANCH   1  16
ATOM     15  C   UNL     1      10.425   1.497  23.617  0.00  0.00    +0.025 C 
ATOM     16  C   UNL     1       9.951   0.980  22.267  0.00  0.00    +0.114 C 
ENDBRANCH   1  16
TORSDOF 2
ENDMDL
MODEL 8
REMARK VINA RESULT:      -5.1      1.976      2.665
REMARK  Name = 
REMARK  3 active torsions:
REMARK  status: ('A' for Active; 'I' for Inactive)
REMARK    1  A    between atoms: C_1  and  C_2
REMARK    2  A    between atoms: C_2  and  N_3
REMARK    3  A    between atoms: C_7  and  C_10
REMARK                            x       y       z     vdW  Elec       q    Type
REMARK                         _______ _______ _______ _____ _____    ______ ____
ROOT
ATOM      1  N   UNL     1       9.028  -1.848  24.265  0.00  0.00    -0.224 N 
ATOM      2  C   UNL     1       9.952  -0.957  23.781  0.00  0.00    +0.248 C 
ATOM      3  O   UNL     1      10.449  -0.970  22.662  0.00  0.00    -0.273 OA
ATOM      4  C   UNL     1      10.248   0.068  24.882  0.00  0.00    +0.191 C 
ATOM      5  N   UNL     1       9.399  -0.425  25.932  0.00  0.00    -0.284 N 
ATOM      6  H   UNL     1       9.264   0.007  26.836  0.00  0.00    +0.151 HD
ATOM      7  C   UNL     1       8.676  -1.527  25.542  0.00  0.00    +0.309 C 
ATOM      8  O   UNL     1       7.856  -2.087  26.249  0.00  0.00    -0.252 OA
ENDROOT
BRANCH   4   9
ATOM      9  C   UNL     1       9.919   1.493  24.508  0.00  0.00    -0.018 A 
ATOM     10  C   UNL     1       8.703   2.091  24.883  0.00  0.00    +0.006 A 
ATOM     11  C   UNL     1       8.418   3.411  24.528  0.00  0.00    +0.000 A 
ATOM     12  C   UNL     1       9.345   4.152  23.800  0.00  0.00    +0.000 A 
ATOM     13  C   UNL     1      10.557   3.576  23.426  0.00  0.00    +0.000 A 
ATOM     14  C   UNL     1      10.844   2.255  23.778  0.00  0.00    +0.006 A 
ENDBRANCH   4   9
BRANCH   1  16
ATOM     15  C   UNL     1       7.238  -2.391  22.678  0.00  0.00    +0.025 C 
ATOM     16  C   UNL     1       8.417  -2.907  23.491  0.00  0.00    +0.114 C 
ENDBRANCH   1  16
TORSDOF 2
ENDMDL
MODEL 9
REMARK VINA RESULT:      -5.1      2.225      2.995
REMARK  Name = 
REMARK  3 active torsions:
REMARK  status: ('A' for Active; 'I' for Inactive)
REMARK    1  A    between atoms: C_1  and  C_2
REMARK    2  A    between atoms: C_2  and  N_3
REMARK    3  A    between atoms: C_7  and  C_10
REMARK                            x       y       z     vdW  Elec       q    Type
REMARK                         _______ _______ _______ _____ _____    ______ ____
ROOT
ATOM      1  N   UNL     1       8.643  -1.316  22.941  0.00  0.00    -0.224 N 
ATOM      2  C   UNL     1       7.780  -0.268  22.746  0.00  0.00    +0.248 C 
ATOM      3  O   UNL     1       6.658  -0.159  23.224  0.00  0.00    -0.273 OA
ATOM      4  C   UNL     1       8.469   0.752  21.832  0.00  0.00    +0.191 C 
ATOM      5  N   UNL     1       9.722   0.089  21.598  0.00  0.00    -0.284 N 
ATOM      6  H   UNL     1      10.498   0.460  21.067  0.00  0.00    +0.151 HD
ATOM      7  C   UNL     1       9.813  -1.104  22.275  0.00  0.00    +0.309 C 
ATOM      8  O   UNL     1      10.802  -1.817  22.266  0.00  0.00    -0.252 OA
ENDROOT
BRANCH   4   9
ATOM      9  C   UNL     1       8.656   2.115  22.454  0.00  0.00    -0.018 A 
ATOM     10  C   UNL     1       7.674   3.115  22.346  0.00  0.00    +0.006 A 
ATOM     11  C   UNL     1       7.867   4.369  22.930  0.00  0.00    +0.000 A 
ATOM     12  C   UNL     1       9.039   4.638  23.632  0.00  0.00    +0.000 A 
ATOM     13  C   UNL     1      10.019   3.656  23.753  0.00  0.00    +0.000 A 
ATOM     14  C   UNL     1       9.830   2.401  23.168  0.00  0.00    +0.006 A 
ENDBRANCH   4   9
BRANCH   1  16
ATOM     15  C   UNL     1       7.735  -3.590  23.090  0.00  0.00    +0.025 C 
ATOM     16  C   UNL     1       8.398  -2.434  23.826  0.00  0.00    +0.114 C 
ENDBRANCH   1  16
TORSDOF 2
ENDMDL
