MODEL 1
REMARK VINA RESULT:      -4.2      0.000      0.000
REMARK  Name = 
REMARK  32 active torsions:
REMARK  status: ('A' for Active; 'I' for Inactive)
REMARK    1  A    between atoms: C_1  and  C_2
REMARK    2  A    between atoms: C_2  and  C_3
REMARK    3  A    between atoms: C_3  and  C_5
REMARK    4  A    between atoms: C_3  and  C_50
REMARK    5  A    between atoms: N_7  and  C_8
REMARK    6  A    between atoms: C_8  and  C_9
REMARK    7  A    between atoms: C_10  and  C_11
REMARK    8  A    between atoms: C_12  and  C_13
REMARK    9  A    between atoms: C_12  and  C_14
REMARK   10  A    between atoms: C_14  and  O_16
REMARK   11  A    between atoms: C_14  and  C_18
REMARK   12  A    between atoms: O_16  and  C_17
REMARK   13  A    between atoms: C_18  and  C_20
REMARK   14  A    between atoms: C_18  and  C_21
REMARK   15  A    between atoms: C_24  and  C_26
REMARK   16  A    between atoms: C_27  and  C_28
REMARK   17  A    between atoms: C_29  and  C_30
REMARK   18  A    between atoms: C_31  and  C_32
REMARK   19  A    between atoms: C_31  and  C_33
REMARK   20  A    between atoms: C_33  and  C_35
REMARK   21  A    between atoms: C_36  and  O_37
REMARK   22  A    between atoms: N_40  and  C_41
REMARK   23  A    between atoms: C_44  and  O_46
REMARK   24  A    between atoms: C_47  and  O_49
REMARK   25  A    between atoms: C_50  and  O_51
REMARK   26  A    between atoms: C_53  and  C_55
REMARK   27  A    between atoms: C_56  and  C_57
REMARK   28  A    between atoms: C_58  and  C_59
REMARK   29  A    between atoms: C_60  and  C_61
REMARK   30  A    between atoms: C_60  and  C_62
REMARK   31  A    between atoms: C_63  and  O_65
REMARK   32  A    between atoms: C_66  and  O_68
REMARK                            x       y       z     vdW  Elec       q    Type
REMARK                         _______ _______ _______ _____ _____    ______ ____
ROOT
ATOM      1  C   UNL     1       2.335   5.927  27.494  0.00  0.00    +0.149 C 
ENDROOT
BRANCH   1   3
ATOM      2  C   UNL     1       3.838   4.232  28.698  0.00  0.00    +0.001 C 
ATOM      3  C   UNL     1       3.676   5.292  27.890  0.00  0.00    -0.044 C 
ATOM      4  C   UNL     1       4.877   5.931  27.195  0.00  0.00    +0.042 C 
BRANCH   2   6
ATOM      5  C   UNL     1       5.254   2.255  28.552  0.00  0.00    -0.008 C 
ATOM      6  C   UNL     1       5.071   3.527  28.938  0.00  0.00    -0.003 C 
BRANCH   5   7
ATOM      7  C   UNL     1       6.521   1.514  28.773  0.00  0.00    +0.131 C 
BRANCH   7   9
ATOM      8  C   UNL     1       6.586   0.206  26.742  0.00  0.00    +0.222 C 
ATOM      9  N   UNL     1       6.393   0.257  28.106  0.00  0.00    -0.311 N 
ATOM     10  H   UNL     1       6.760  -0.560  28.605  0.00  0.00    +0.149 HD
ATOM     11  O   UNL     1       6.774   1.198  26.051  0.00  0.00    -0.275 OA
BRANCH   8  12
ATOM     12  C   UNL     1       6.655  -1.212  26.214  0.00  0.00    +0.136 C 
BRANCH  12  13
ATOM     13  C   UNL     1       5.297  -1.832  26.448  0.00  0.00    +0.208 C 
ATOM     14  C   UNL     1       4.902  -2.942  25.430  0.00  0.00    +0.203 C 
ATOM     15  C   UNL     1       3.704  -3.720  25.968  0.00  0.00    +0.157 C 
ATOM     16  C   UNL     1       3.881  -4.350  27.334  0.00  0.00    +0.024 C 
ATOM     17  C   UNL     1       5.085  -5.318  27.348  0.00  0.00    +0.016 C 
ATOM     18  C   UNL     1       2.811  -5.579  27.579  0.00  0.00    +0.016 C 
ATOM     19  C   UNL     1       4.159  -2.943  28.252  0.00  0.00    +0.153 C 
ATOM     20  O   UNL     1       5.355  -2.332  27.790  0.00  0.00    -0.338 OA
BRANCH  19  21
ATOM     21  C   UNL     1       3.217  -1.612  28.448  0.00  0.00    +0.005 C 
ATOM     22  C   UNL     1       2.754  -1.007  29.574  0.00  0.00    -0.002 C 
BRANCH  22  23
ATOM     23  C   UNL     1       1.632  -0.045  29.673  0.00  0.00    -0.005 C 
ATOM     24  C   UNL     1       1.646   1.299  29.573  0.00  0.00    -0.030 C 
ATOM     25  C   UNL     1       0.451   2.185  29.430  0.00  0.00    +0.035 C 
ENDBRANCH  22  23
ENDBRANCH  19  21
BRANCH  15  26
ATOM     26  O   UNL     1       2.708  -2.710  26.071  0.00  0.00    -0.388 OA
ATOM     27  H   UNL     1       2.637  -2.374  26.960  0.00  0.00    +0.210 HD
ENDBRANCH  15  26
BRANCH  14  28
ATOM     28  O   UNL     1       4.471  -2.305  24.206  0.00  0.00    -0.384 OA
ATOM     29  H   UNL     1       5.131  -1.581  24.108  0.00  0.00    +0.210 HD
ENDBRANCH  14  28
BRANCH  13  30
ATOM     30  O   UNL     1       4.374  -0.730  26.299  0.00  0.00    -0.362 OA
ATOM     31  H   UNL     1       3.927  -0.616  27.154  0.00  0.00    +0.213 HD
ENDBRANCH  13  30
ENDBRANCH  12  13
BRANCH  12  33
ATOM     32  C   UNL     1       9.102  -1.427  26.449  0.00  0.00    +0.005 C 
ATOM     33  C   UNL     1       7.776  -2.044  26.814  0.00  0.00    +0.015 C 
ENDBRANCH  12  33
ENDBRANCH   8  12
ENDBRANCH   7   9
ENDBRANCH   5   7
ENDBRANCH   2   6
ENDBRANCH   1   3
BRANCH   1  34
ATOM     34  C   UNL     1       1.788   6.355  26.064  0.00  0.00    +0.050 C 
ATOM     35  C   UNL     1       0.447   7.102  26.312  0.00  0.00    +0.013 C 
BRANCH  34  36
ATOM     36  C   UNL     1       1.534   5.295  24.945  0.00  0.00    +0.156 C 
ATOM     37  C   UNL     1       1.670   5.887  23.509  0.00  0.00    +0.175 C 
ATOM     38  C   UNL     1       3.121   5.648  23.115  0.00  0.00    +0.178 C 
ATOM     39  C   UNL     1       3.653   4.759  24.225  0.00  0.00    +0.173 C 
ATOM     40  O   UNL     1       2.531   4.260  24.961  0.00  0.00    -0.364 OA
BRANCH  37  41
ATOM     41  O   UNL     1       0.829   5.158  22.600  0.00  0.00    -0.387 OA
ATOM     42  H   UNL     1       0.171   5.789  22.253  0.00  0.00    +0.210 HD
ENDBRANCH  37  41
BRANCH  38  43
ATOM     43  O   UNL     1       3.888   6.851  23.034  0.00  0.00    -0.386 OA
ATOM     44  H   UNL     1       3.463   7.491  23.636  0.00  0.00    +0.210 HD
ENDBRANCH  38  43
BRANCH  39  45
ATOM     45  C   UNL     1       4.422   3.631  23.621  0.00  0.00    +0.007 C 
ATOM     46  C   UNL     1       5.710   3.715  23.285  0.00  0.00    -0.002 C 
BRANCH  46  47
ATOM     47  C   UNL     1       6.498   2.599  22.808  0.00  0.00    -0.000 C 
ATOM     48  C   UNL     1       7.834   2.259  22.585  0.00  0.00    +0.000 C 
BRANCH  48  49
ATOM     49  C   UNL     1       8.472   0.905  22.131  0.00  0.00    +0.007 C 
ATOM     50  C   UNL     1       8.118  -0.406  22.376  0.00  0.00    -0.003 C 
ATOM     51  C   UNL     1       6.918  -0.427  23.117  0.00  0.00    +0.048 C 
BRANCH  50  52
ATOM     52  C   UNL     1       8.521  -1.962  22.066  0.00  0.00    +0.198 C 
ATOM     53  O   UNL     1       9.686  -2.144  21.688  0.00  0.00    -0.287 OA
BRANCH  52  54
ATOM     54  C   UNL     1       7.698  -3.348  22.462  0.00  0.00    +0.128 A 
ATOM     55  C   UNL     1       6.398  -4.120  21.884  0.00  0.00    +0.265 A 
ATOM     56  O   UNL     1       5.921  -3.879  20.778  0.00  0.00    -0.267 OA
ATOM     57  N   UNL     1       5.722  -5.024  22.810  0.00  0.00    -0.317 N 
ATOM     58  C   UNL     1       4.288  -5.553  22.737  0.00  0.00    +0.152 C 
ATOM     59  C   UNL     1       6.394  -5.541  23.907  0.00  0.00    +0.092 A 
ATOM     60  C   UNL     1       7.656  -5.130  24.174  0.00  0.00    +0.064 A 
ATOM     61  C   UNL     1       8.268  -4.016  23.494  0.00  0.00    +0.134 A 
BRANCH  61  62
ATOM     62  O   UNL     1       9.463  -3.678  24.096  0.00  0.00    -0.506 OA
ATOM     63  H   UNL     1      10.167  -3.709  23.421  0.00  0.00    +0.292 HD
ENDBRANCH  61  62
ENDBRANCH  52  54
ENDBRANCH  50  52
ENDBRANCH  48  49
ENDBRANCH  46  47
ENDBRANCH  39  45
ENDBRANCH  34  36
ENDBRANCH   1  34
BRANCH   1  64
ATOM     64  O   UNL     1       2.226   7.108  28.352  0.00  0.00    -0.375 OA
ATOM     65  C   UNL     1       1.526   6.903  29.582  0.00  0.00    +0.194 C 
ENDBRANCH   1  64
TORSDOF 23
ENDMDL
MODEL 2
REMARK VINA RESULT:      -4.1      3.157      8.954
REMARK  Name = 
REMARK  32 active torsions:
REMARK  status: ('A' for Active; 'I' for Inactive)
REMARK    1  A    between atoms: C_1  and  C_2
REMARK    2  A    between atoms: C_2  and  C_3
REMARK    3  A    between atoms: C_3  and  C_5
REMARK    4  A    between atoms: C_3  and  C_50
REMARK    5  A    between atoms: N_7  and  C_8
REMARK    6  A    between atoms: C_8  and  C_9
REMARK    7  A    between atoms: C_10  and  C_11
REMARK    8  A    between atoms: C_12  and  C_13
REMARK    9  A    between atoms: C_12  and  C_14
REMARK   10  A    between atoms: C_14  and  O_16
REMARK   11  A    between atoms: C_14  and  C_18
REMARK   12  A    between atoms: O_16  and  C_17
REMARK   13  A    between atoms: C_18  and  C_20
REMARK   14  A    between atoms: C_18  and  C_21
REMARK   15  A    between atoms: C_24  and  C_26
REMARK   16  A    between atoms: C_27  and  C_28
REMARK   17  A    between atoms: C_29  and  C_30
REMARK   18  A    between atoms: C_31  and  C_32
REMARK   19  A    between atoms: C_31  and  C_33
REMARK   20  A    between atoms: C_33  and  C_35
REMARK   21  A    between atoms: C_36  and  O_37
REMARK   22  A    between atoms: N_40  and  C_41
REMARK   23  A    between atoms: C_44  and  O_46
REMARK   24  A    between atoms: C_47  and  O_49
REMARK   25  A    between atoms: C_50  and  O_51
REMARK   26  A    between atoms: C_53  and  C_55
REMARK   27  A    between atoms: C_56  and  C_57
REMARK   28  A    between atoms: C_58  and  C_59
REMARK   29  A    between atoms: C_60  and  C_61
REMARK   30  A    between atoms: C_60  and  C_62
REMARK   31  A    between atoms: C_63  and  O_65
REMARK   32  A    between atoms: C_66  and  O_68
REMARK                            x       y       z     vdW  Elec       q    Type
REMARK                         _______ _______ _______ _____ _____    ______ ____
ROOT
ATOM      1  C   UNL     1       2.558  -5.238  25.247  0.00  0.00    +0.149 C 
ENDROOT
BRANCH   1   3
ATOM      2  C   UNL     1       3.084  -3.198  26.710  0.00  0.00    +0.001 C 
ATOM      3  C   UNL     1       2.402  -4.332  26.476  0.00  0.00    -0.044 C 
ATOM      4  C   UNL     1       1.297  -4.784  27.427  0.00  0.00    +0.042 C 
BRANCH   2   6
ATOM      5  C   UNL     1       3.801  -1.800  28.571  0.00  0.00    -0.008 C 
ATOM      6  C   UNL     1       2.827  -2.256  27.768  0.00  0.00    -0.003 C 
BRANCH   5   7
ATOM      7  C   UNL     1       3.563  -0.817  29.658  0.00  0.00    +0.131 C 
BRANCH   7   9
ATOM      8  C   UNL     1       3.594   1.522  29.051  0.00  0.00    +0.222 C 
ATOM      9  N   UNL     1       2.926   0.316  29.066  0.00  0.00    -0.311 N 
ATOM     10  H   UNL     1       2.380   0.137  28.218  0.00  0.00    +0.149 HD
ATOM     11  O   UNL     1       4.673   1.701  29.599  0.00  0.00    -0.275 OA
BRANCH   8  12
ATOM     12  C   UNL     1       2.905   2.561  28.191  0.00  0.00    +0.136 C 
BRANCH  12  13
ATOM     13  C   UNL     1       3.607   2.555  26.852  0.00  0.00    +0.208 C 
ATOM     14  C   UNL     1       2.752   3.089  25.665  0.00  0.00    +0.203 C 
ATOM     15  C   UNL     1       3.661   3.365  24.470  0.00  0.00    +0.157 C 
ATOM     16  C   UNL     1       4.809   4.323  24.717  0.00  0.00    +0.024 C 
ATOM     17  C   UNL     1       4.293   5.693  25.211  0.00  0.00    +0.016 C 
ATOM     18  C   UNL     1       5.369   4.973  23.310  0.00  0.00    +0.016 C 
ATOM     19  C   UNL     1       5.635   3.457  25.927  0.00  0.00    +0.153 C 
ATOM     20  O   UNL     1       4.787   3.343  27.061  0.00  0.00    -0.338 OA
BRANCH  19  21
ATOM     21  C   UNL     1       6.266   1.942  25.891  0.00  0.00    +0.005 C 
ATOM     22  C   UNL     1       7.126   1.314  26.737  0.00  0.00    -0.002 C 
BRANCH  22  23
ATOM     23  C   UNL     1       7.926   0.099  26.458  0.00  0.00    -0.005 C 
ATOM     24  C   UNL     1       7.600  -1.198  26.631  0.00  0.00    -0.030 C 
ATOM     25  C   UNL     1       8.350  -2.374  26.095  0.00  0.00    +0.035 C 
ENDBRANCH  22  23
ENDBRANCH  19  21
BRANCH  15  26
ATOM     26  O   UNL     1       4.207   2.080  24.201  0.00  0.00    -0.388 OA
ATOM     27  H   UNL     1       5.137   2.041  24.405  0.00  0.00    +0.210 HD
ENDBRANCH  15  26
BRANCH  14  28
ATOM     28  O   UNL     1       1.835   2.048  25.261  0.00  0.00    -0.384 OA
ATOM     29  H   UNL     1       1.884   1.424  26.020  0.00  0.00    +0.210 HD
ENDBRANCH  14  28
BRANCH  13  30
ATOM     30  O   UNL     1       3.899   1.161  26.611  0.00  0.00    -0.362 OA
ATOM     31  H   UNL     1       3.123   0.781  26.166  0.00  0.00    +0.213 HD
ENDBRANCH  13  30
ENDBRANCH  12  13
BRANCH  12  33
ATOM     32  C   UNL     1       1.449   4.258  29.235  0.00  0.00    +0.005 C 
ATOM     33  C   UNL     1       2.862   3.949  28.809  0.00  0.00    +0.015 C 
ENDBRANCH  12  33
ENDBRANCH   8  12
ENDBRANCH   7   9
ENDBRANCH   5   7
ENDBRANCH   2   6
ENDBRANCH   1   3
BRANCH   1  34
ATOM     34  C   UNL     1       3.870  -5.820  24.563  0.00  0.00    +0.050 C 
ATOM     35  C   UNL     1       3.903  -7.338  24.896  0.00  0.00    +0.013 C 
BRANCH  34  36
ATOM     36  C   UNL     1       5.281  -5.237  24.896  0.00  0.00    +0.156 C 
ATOM     37  C   UNL     1       6.423  -5.916  24.079  0.00  0.00    +0.175 C 
ATOM     38  C   UNL     1       6.590  -5.053  22.836  0.00  0.00    +0.178 C 
ATOM     39  C   UNL     1       5.716  -3.844  23.116  0.00  0.00    +0.173 C 
ATOM     40  O   UNL     1       5.387  -3.856  24.509  0.00  0.00    -0.364 OA
BRANCH  37  41
ATOM     41  O   UNL     1       7.649  -5.872  24.827  0.00  0.00    -0.387 OA
ATOM     42  H   UNL     1       8.369  -5.728  24.185  0.00  0.00    +0.210 HD
ENDBRANCH  37  41
BRANCH  38  43
ATOM     43  O   UNL     1       6.164  -5.705  21.637  0.00  0.00    -0.386 OA
ATOM     44  H   UNL     1       6.171  -6.663  21.826  0.00  0.00    +0.210 HD
ENDBRANCH  38  43
BRANCH  39  45
ATOM     45  C   UNL     1       6.473  -2.604  22.772  0.00  0.00    +0.007 C 
ATOM     46  C   UNL     1       6.179  -1.400  23.267  0.00  0.00    -0.002 C 
BRANCH  46  47
ATOM     47  C   UNL     1       6.972  -0.213  23.036  0.00  0.00    -0.000 C 
ATOM     48  C   UNL     1       8.263   0.144  22.641  0.00  0.00    +0.000 C 
BRANCH  48  49
ATOM     49  C   UNL     1       8.886   1.551  22.366  0.00  0.00    +0.007 C 
ATOM     50  C   UNL     1      10.061   2.136  22.795  0.00  0.00    -0.003 C 
ATOM     51  C   UNL     1      10.792   1.198  23.553  0.00  0.00    +0.048 C 
BRANCH  50  52
ATOM     52  C   UNL     1      10.973   3.491  22.694  0.00  0.00    +0.198 C 
ATOM     53  O   UNL     1      11.612   3.625  21.642  0.00  0.00    -0.287 OA
BRANCH  52  54
ATOM     54  C   UNL     1      10.939   4.842  23.659  0.00  0.00    +0.128 A 
ATOM     55  C   UNL     1      12.046   5.726  24.441  0.00  0.00    +0.265 A 
ATOM     56  O   UNL     1      13.249   5.647  24.202  0.00  0.00    -0.267 OA
ATOM     57  N   UNL     1      11.557   6.525  25.562  0.00  0.00    -0.317 N 
ATOM     58  C   UNL     1      12.358   7.108  26.728  0.00  0.00    +0.152 C 
ATOM     59  C   UNL     1      10.218   6.873  25.647  0.00  0.00    +0.092 A 
ATOM     60  C   UNL     1       9.341   6.388  24.737  0.00  0.00    +0.064 A 
ATOM     61  C   UNL     1       9.691   5.351  23.799  0.00  0.00    +0.134 A 
BRANCH  61  62
ATOM     62  O   UNL     1       8.569   4.897  23.136  0.00  0.00    -0.506 OA
ATOM     63  H   UNL     1       8.023   4.391  23.768  0.00  0.00    +0.292 HD
ENDBRANCH  61  62
ENDBRANCH  52  54
ENDBRANCH  50  52
ENDBRANCH  48  49
ENDBRANCH  46  47
ENDBRANCH  39  45
ENDBRANCH  34  36
ENDBRANCH   1  34
BRANCH   1  64
ATOM     64  O   UNL     1       1.809  -4.552  24.193  0.00  0.00    -0.375 OA
ATOM     65  C   UNL     1       0.668  -5.258  23.699  0.00  0.00    +0.194 C 
ENDBRANCH   1  64
TORSDOF 23
ENDMDL
MODEL 3
REMARK VINA RESULT:      -3.1      3.216      7.531
REMARK  Name = 
REMARK  32 active torsions:
REMARK  status: ('A' for Active; 'I' for Inactive)
REMARK    1  A    between atoms: C_1  and  C_2
REMARK    2  A    between atoms: C_2  and  C_3
REMARK    3  A    between atoms: C_3  and  C_5
REMARK    4  A    between atoms: C_3  and  C_50
REMARK    5  A    between atoms: N_7  and  C_8
REMARK    6  A    between atoms: C_8  and  C_9
REMARK    7  A    between atoms: C_10  and  C_11
REMARK    8  A    between atoms: C_12  and  C_13
REMARK    9  A    between atoms: C_12  and  C_14
REMARK   10  A    between atoms: C_14  and  O_16
REMARK   11  A    between atoms: C_14  and  C_18
REMARK   12  A    between atoms: O_16  and  C_17
REMARK   13  A    between atoms: C_18  and  C_20
REMARK   14  A    between atoms: C_18  and  C_21
REMARK   15  A    between atoms: C_24  and  C_26
REMARK   16  A    between atoms: C_27  and  C_28
REMARK   17  A    between atoms: C_29  and  C_30
REMARK   18  A    between atoms: C_31  and  C_32
REMARK   19  A    between atoms: C_31  and  C_33
REMARK   20  A    between atoms: C_33  and  C_35
REMARK   21  A    between atoms: C_36  and  O_37
REMARK   22  A    between atoms: N_40  and  C_41
REMARK   23  A    between atoms: C_44  and  O_46
REMARK   24  A    between atoms: C_47  and  O_49
REMARK   25  A    between atoms: C_50  and  O_51
REMARK   26  A    between atoms: C_53  and  C_55
REMARK   27  A    between atoms: C_56  and  C_57
REMARK   28  A    between atoms: C_58  and  C_59
REMARK   29  A    between atoms: C_60  and  C_61
REMARK   30  A    between atoms: C_60  and  C_62
REMARK   31  A    between atoms: C_63  and  O_65
REMARK   32  A    between atoms: C_66  and  O_68
REMARK                            x       y       z     vdW  Elec       q    Type
REMARK                         _______ _______ _______ _____ _____    ______ ____
ROOT
ATOM      1  C   UNL     1      10.607   4.159  23.297  0.00  0.00    +0.149 C 
ENDROOT
BRANCH   1   3
ATOM      2  C   UNL     1       8.504   5.591  23.623  0.00  0.00    +0.001 C 
ATOM      3  C   UNL     1       9.772   5.278  23.936  0.00  0.00    -0.044 C 
ATOM      4  C   UNL     1      10.492   5.995  25.076  0.00  0.00    +0.042 C 
BRANCH   2   6
ATOM      5  C   UNL     1       6.539   6.133  24.956  0.00  0.00    -0.008 C 
ATOM      6  C   UNL     1       7.660   6.520  24.329  0.00  0.00    -0.003 C 
BRANCH   5   7
ATOM      7  C   UNL     1       5.662   7.068  25.704  0.00  0.00    +0.131 C 
BRANCH   7   9
ATOM      8  C   UNL     1       3.668   6.236  26.786  0.00  0.00    +0.222 C 
ATOM      9  N   UNL     1       5.044   6.318  26.750  0.00  0.00    -0.311 N 
ATOM     10  H   UNL     1       5.516   5.450  27.025  0.00  0.00    +0.149 HD
ATOM     11  O   UNL     1       2.937   6.848  26.020  0.00  0.00    -0.275 OA
BRANCH   8  12
ATOM     12  C   UNL     1       3.169   5.224  27.796  0.00  0.00    +0.136 C 
BRANCH  12  13
ATOM     13  C   UNL     1       3.134   3.886  27.095  0.00  0.00    +0.208 C 
ATOM     14  C   UNL     1       4.082   2.808  27.698  0.00  0.00    +0.203 C 
ATOM     15  C   UNL     1       3.703   1.435  27.148  0.00  0.00    +0.157 C 
ATOM     16  C   UNL     1       2.267   1.004  27.370  0.00  0.00    +0.024 C 
ATOM     17  C   UNL     1       1.916   0.995  28.875  0.00  0.00    +0.016 C 
ATOM     18  C   UNL     1       2.100  -0.631  27.258  0.00  0.00    +0.016 C 
ATOM     19  C   UNL     1       1.473   2.246  26.518  0.00  0.00    +0.153 C 
ATOM     20  O   UNL     1       1.759   3.484  27.152  0.00  0.00    -0.338 OA
BRANCH  19  21
ATOM     21  C   UNL     1       1.609   2.694  24.944  0.00  0.00    +0.005 C 
ATOM     22  C   UNL     1       0.806   3.468  24.165  0.00  0.00    -0.002 C 
BRANCH  22  23
ATOM     23  C   UNL     1       0.792   3.534  22.686  0.00  0.00    -0.005 C 
ATOM     24  C   UNL     1       0.746   2.532  21.786  0.00  0.00    -0.030 C 
ATOM     25  C   UNL     1       0.479   2.673  20.322  0.00  0.00    +0.035 C 
ENDBRANCH  22  23
ENDBRANCH  19  21
BRANCH  15  26
ATOM     26  O   UNL     1       3.905   1.602  25.751  0.00  0.00    -0.388 OA
ATOM     27  H   UNL     1       3.344   2.284  25.392  0.00  0.00    +0.210 HD
ENDBRANCH  15  26
BRANCH  14  28
ATOM     28  O   UNL     1       5.428   3.081  27.249  0.00  0.00    -0.384 OA
ATOM     29  H   UNL     1       5.558   2.391  26.559  0.00  0.00    +0.210 HD
ENDBRANCH  14  28
BRANCH  13  30
ATOM     30  O   UNL     1       3.578   4.179  25.751  0.00  0.00    -0.362 OA
ATOM     31  H   UNL     1       3.200   3.497  25.172  0.00  0.00    +0.213 HD
ENDBRANCH  13  30
ENDBRANCH  12  13
BRANCH  12  33
ATOM     32  C   UNL     1       2.011   5.786  29.902  0.00  0.00    +0.005 C 
ATOM     33  C   UNL     1       1.829   5.578  28.420  0.00  0.00    +0.015 C 
ENDBRANCH  12  33
ENDBRANCH   8  12
ENDBRANCH   7   9
ENDBRANCH   5   7
ENDBRANCH   2   6
ENDBRANCH   1   3
BRANCH   1  34
ATOM     34  C   UNL     1      10.573   2.588  23.544  0.00  0.00    +0.050 C 
ATOM     35  C   UNL     1      10.092   1.945  22.212  0.00  0.00    +0.013 C 
BRANCH  34  36
ATOM     36  C   UNL     1       9.720   1.970  24.697  0.00  0.00    +0.156 C 
ATOM     37  C   UNL     1       8.354   2.696  24.895  0.00  0.00    +0.175 C 
ATOM     38  C   UNL     1       7.364   1.926  24.031  0.00  0.00    +0.178 C 
ATOM     39  C   UNL     1       8.151   0.708  23.582  0.00  0.00    +0.173 C 
ATOM     40  O   UNL     1       9.325   0.620  24.396  0.00  0.00    -0.364 OA
BRANCH  37  41
ATOM     41  O   UNL     1       7.938   2.585  26.266  0.00  0.00    -0.387 OA
ATOM     42  H   UNL     1       8.082   3.457  26.678  0.00  0.00    +0.210 HD
ENDBRANCH  37  41
BRANCH  38  43
ATOM     43  O   UNL     1       6.910   2.669  22.898  0.00  0.00    -0.386 OA
ATOM     44  H   UNL     1       7.649   2.679  22.259  0.00  0.00    +0.210 HD
ENDBRANCH  38  43
BRANCH  39  45
ATOM     45  C   UNL     1       7.306  -0.510  23.756  0.00  0.00    +0.007 C 
ATOM     46  C   UNL     1       7.098  -1.407  22.790  0.00  0.00    -0.002 C 
BRANCH  46  47
ATOM     47  C   UNL     1       6.379  -2.648  22.977  0.00  0.00    -0.000 C 
ATOM     48  C   UNL     1       5.194  -3.116  23.550  0.00  0.00    +0.000 C 
BRANCH  48  49
ATOM     49  C   UNL     1       4.563  -4.546  23.548  0.00  0.00    +0.007 C 
ATOM     50  C   UNL     1       3.407  -5.041  24.117  0.00  0.00    -0.003 C 
ATOM     51  C   UNL     1       2.705  -3.982  24.728  0.00  0.00    +0.048 C 
BRANCH  50  52
ATOM     52  C   UNL     1       2.493  -6.389  24.289  0.00  0.00    +0.198 C 
ATOM     53  O   UNL     1       2.522  -7.176  23.334  0.00  0.00    -0.287 OA
BRANCH  52  54
ATOM     54  C   UNL     1       1.775  -6.990  25.660  0.00  0.00    +0.128 A 
ATOM     55  C   UNL     1       1.726  -6.556  27.218  0.00  0.00    +0.265 A 
ATOM     56  O   UNL     1       2.063  -5.440  27.607  0.00  0.00    -0.267 OA
ATOM     57  N   UNL     1       1.397  -7.614  28.170  0.00  0.00    -0.317 N 
ATOM     58  C   UNL     1       1.676  -7.651  29.675  0.00  0.00    +0.152 C 
ATOM     59  C   UNL     1       0.724  -8.751  27.755  0.00  0.00    +0.092 A 
ATOM     60  C   UNL     1       0.453  -8.927  26.440  0.00  0.00    +0.064 A 
ATOM     61  C   UNL     1       1.019  -8.087  25.414  0.00  0.00    +0.134 A 
BRANCH  61  62
ATOM     62  O   UNL     1       0.755  -8.606  24.163  0.00  0.00    -0.506 OA
ATOM     63  H   UNL     1       1.584  -8.972  23.801  0.00  0.00    +0.292 HD
ENDBRANCH  61  62
ENDBRANCH  52  54
ENDBRANCH  50  52
ENDBRANCH  48  49
ENDBRANCH  46  47
ENDBRANCH  39  45
ENDBRANCH  34  36
ENDBRANCH   1  34
BRANCH   1  64
ATOM     64  O   UNL     1      11.994   4.581  23.498  0.00  0.00    -0.375 OA
ATOM     65  C   UNL     1      12.637   5.128  22.344  0.00  0.00    +0.194 C 
ENDBRANCH   1  64
TORSDOF 23
ENDMDL
MODEL 4
REMARK VINA RESULT:      -1.8      2.902      9.100
REMARK  Name = 
REMARK  32 active torsions:
REMARK  status: ('A' for Active; 'I' for Inactive)
REMARK    1  A    between atoms: C_1  and  C_2
REMARK    2  A    between atoms: C_2  and  C_3
REMARK    3  A    between atoms: C_3  and  C_5
REMARK    4  A    between atoms: C_3  and  C_50
REMARK    5  A    between atoms: N_7  and  C_8
REMARK    6  A    between atoms: C_8  and  C_9
REMARK    7  A    between atoms: C_10  and  C_11
REMARK    8  A    between atoms: C_12  and  C_13
REMARK    9  A    between atoms: C_12  and  C_14
REMARK   10  A    between atoms: C_14  and  O_16
REMARK   11  A    between atoms: C_14  and  C_18
REMARK   12  A    between atoms: O_16  and  C_17
REMARK   13  A    between atoms: C_18  and  C_20
REMARK   14  A    between atoms: C_18  and  C_21
REMARK   15  A    between atoms: C_24  and  C_26
REMARK   16  A    between atoms: C_27  and  C_28
REMARK   17  A    between atoms: C_29  and  C_30
REMARK   18  A    between atoms: C_31  and  C_32
REMARK   19  A    between atoms: C_31  and  C_33
REMARK   20  A    between atoms: C_33  and  C_35
REMARK   21  A    between atoms: C_36  and  O_37
REMARK   22  A    between atoms: N_40  and  C_41
REMARK   23  A    between atoms: C_44  and  O_46
REMARK   24  A    between atoms: C_47  and  O_49
REMARK   25  A    between atoms: C_50  and  O_51
REMARK   26  A    between atoms: C_53  and  C_55
REMARK   27  A    between atoms: C_56  and  C_57
REMARK   28  A    between atoms: C_58  and  C_59
REMARK   29  A    between atoms: C_60  and  C_61
REMARK   30  A    between atoms: C_60  and  C_62
REMARK   31  A    between atoms: C_63  and  O_65
REMARK   32  A    between atoms: C_66  and  O_68
REMARK                            x       y       z     vdW  Elec       q    Type
REMARK                         _______ _______ _______ _____ _____    ______ ____
ROOT
ATOM      1  C   UNL     1       7.911  -5.424  23.960  0.00  0.00    +0.149 C 
ENDROOT
BRANCH   1   3
ATOM      2  C   UNL     1       7.723  -5.186  26.507  0.00  0.00    +0.001 C 
ATOM      3  C   UNL     1       7.204  -5.534  25.318  0.00  0.00    -0.044 C 
ATOM      4  C   UNL     1       5.757  -6.012  25.211  0.00  0.00    +0.042 C 
BRANCH   2   6
ATOM      5  C   UNL     1       6.168  -6.091  28.149  0.00  0.00    -0.008 C 
ATOM      6  C   UNL     1       7.013  -5.125  27.758  0.00  0.00    -0.003 C 
BRANCH   5   7
ATOM      7  C   UNL     1       5.437  -6.058  29.441  0.00  0.00    +0.131 C 
BRANCH   7   9
ATOM      8  C   UNL     1       3.805  -4.288  29.646  0.00  0.00    +0.222 C 
ATOM      9  N   UNL     1       4.133  -5.540  29.172  0.00  0.00    -0.311 N 
ATOM     10  H   UNL     1       3.747  -5.744  28.245  0.00  0.00    +0.149 HD
ATOM     11  O   UNL     1       4.541  -3.626  30.365  0.00  0.00    -0.275 OA
BRANCH   8  12
ATOM     12  C   UNL     1       2.493  -3.777  29.088  0.00  0.00    +0.136 C 
BRANCH  12  13
ATOM     13  C   UNL     1       2.792  -2.468  28.395  0.00  0.00    +0.208 C 
ATOM     14  C   UNL     1       1.654  -1.944  27.470  0.00  0.00    +0.203 C 
ATOM     15  C   UNL     1       1.917  -0.482  27.121  0.00  0.00    +0.157 C 
ATOM     16  C   UNL     1       2.067   0.464  28.295  0.00  0.00    +0.024 C 
ATOM     17  C   UNL     1       0.811   0.439  29.193  0.00  0.00    +0.016 C 
ATOM     18  C   UNL     1       1.795   2.028  27.853  0.00  0.00    +0.016 C 
ATOM     19  C   UNL     1       3.425  -0.240  29.044  0.00  0.00    +0.153 C 
ATOM     20  O   UNL     1       3.080  -1.554  29.462  0.00  0.00    -0.338 OA
BRANCH  19  21
ATOM     21  C   UNL     1       4.929  -0.518  28.447  0.00  0.00    +0.005 C 
ATOM     22  C   UNL     1       5.987   0.318  28.275  0.00  0.00    -0.002 C 
BRANCH  22  23
ATOM     23  C   UNL     1       7.170   0.096  27.411  0.00  0.00    -0.005 C 
ATOM     24  C   UNL     1       7.638   0.845  26.393  0.00  0.00    -0.030 C 
ATOM     25  C   UNL     1       8.971   0.701  25.732  0.00  0.00    +0.035 C 
ENDBRANCH  22  23
ENDBRANCH  19  21
BRANCH  15  26
ATOM     26  O   UNL     1       3.166  -0.552  26.445  0.00  0.00    -0.388 OA
ATOM     27  H   UNL     1       3.778   0.106  26.764  0.00  0.00    +0.210 HD
ENDBRANCH  15  26
BRANCH  14  28
ATOM     28  O   UNL     1       1.699  -2.685  26.230  0.00  0.00    -0.384 OA
ATOM     29  H   UNL     1       0.861  -2.407  25.794  0.00  0.00    +0.210 HD
ENDBRANCH  14  28
BRANCH  13  30
ATOM     30  O   UNL     1       3.947  -2.756  27.576  0.00  0.00    -0.362 OA
ATOM     31  H   UNL     1       4.411  -1.915  27.433  0.00  0.00    +0.213 HD
ENDBRANCH  13  30
ENDBRANCH  12  13
BRANCH  12  33
ATOM     32  C   UNL     1       0.524  -4.873  30.097  0.00  0.00    +0.005 C 
ATOM     33  C   UNL     1       1.390  -3.638  30.125  0.00  0.00    +0.015 C 
ENDBRANCH  12  33
ENDBRANCH   8  12
ENDBRANCH   7   9
ENDBRANCH   5   7
ENDBRANCH   2   6
ENDBRANCH   1   3
BRANCH   1  34
ATOM     34  C   UNL     1       7.311  -5.468  22.488  0.00  0.00    +0.050 C 
ATOM     35  C   UNL     1       8.249  -6.391  21.658  0.00  0.00    +0.013 C 
BRANCH  34  36
ATOM     36  C   UNL     1       7.095  -4.159  21.663  0.00  0.00    +0.156 C 
ATOM     37  C   UNL     1       5.592  -3.761  21.543  0.00  0.00    +0.175 C 
ATOM     38  C   UNL     1       5.335  -2.820  22.712  0.00  0.00    +0.178 C 
ATOM     39  C   UNL     1       6.718  -2.566  23.281  0.00  0.00    +0.173 C 
ATOM     40  O   UNL     1       7.677  -3.019  22.319  0.00  0.00    -0.364 OA
BRANCH  37  41
ATOM     41  O   UNL     1       5.377  -3.035  20.322  0.00  0.00    -0.387 OA
ATOM     42  H   UNL     1       6.040  -3.352  19.682  0.00  0.00    +0.210 HD
ENDBRANCH  37  41
BRANCH  38  43
ATOM     43  O   UNL     1       4.483  -3.385  23.712  0.00  0.00    -0.386 OA
ATOM     44  H   UNL     1       4.994  -3.383  24.544  0.00  0.00    +0.210 HD
ENDBRANCH  38  43
BRANCH  39  45
ATOM     45  C   UNL     1       6.883  -1.103  23.529  0.00  0.00    +0.007 C 
ATOM     46  C   UNL     1       7.135  -0.217  22.564  0.00  0.00    -0.002 C 
BRANCH  46  47
ATOM     47  C   UNL     1       7.181   1.215  22.770  0.00  0.00    -0.000 C 
ATOM     48  C   UNL     1       7.377   2.389  22.039  0.00  0.00    +0.000 C 
BRANCH  48  49
ATOM     49  C   UNL     1       7.290   3.885  22.483  0.00  0.00    +0.007 C 
ATOM     50  C   UNL     1       7.994   4.607  23.425  0.00  0.00    -0.003 C 
ATOM     51  C   UNL     1       8.992   3.782  23.985  0.00  0.00    +0.048 C 
BRANCH  50  52
ATOM     52  C   UNL     1       8.165   6.092  24.093  0.00  0.00    +0.198 C 
ATOM     53  O   UNL     1       8.464   6.998  23.305  0.00  0.00    -0.287 OA
BRANCH  52  54
ATOM     54  C   UNL     1       7.712   6.611  25.604  0.00  0.00    +0.128 A 
ATOM     55  C   UNL     1       8.485   6.944  26.986  0.00  0.00    +0.265 A 
ATOM     56  O   UNL     1       9.701   7.107  27.044  0.00  0.00    -0.267 OA
ATOM     57  N   UNL     1       7.678   6.894  28.203  0.00  0.00    -0.317 N 
ATOM     58  C   UNL     1       8.156   6.736  29.648  0.00  0.00    +0.152 C 
ATOM     59  C   UNL     1       6.300   7.026  28.140  0.00  0.00    +0.092 A 
ATOM     60  C   UNL     1       5.689   7.108  26.934  0.00  0.00    +0.064 A 
ATOM     61  C   UNL     1       6.381   6.848  25.696  0.00  0.00    +0.134 A 
BRANCH  61  62
ATOM     62  O   UNL     1       5.489   6.791  24.645  0.00  0.00    -0.506 OA
ATOM     63  H   UNL     1       4.982   7.625  24.627  0.00  0.00    +0.292 HD
ENDBRANCH  61  62
ENDBRANCH  52  54
ENDBRANCH  50  52
ENDBRANCH  48  49
ENDBRANCH  46  47
ENDBRANCH  39  45
ENDBRANCH  34  36
ENDBRANCH   1  34
BRANCH   1  64
ATOM     64  O   UNL     1       8.959  -6.445  24.013  0.00  0.00    -0.375 OA
ATOM     65  C   UNL     1      10.018  -6.181  24.937  0.00  0.00    +0.194 C 
ENDBRANCH   1  64
TORSDOF 23
ENDMDL
