MODEL 1
REMARK VINA RESULT:      -5.9      0.000      0.000
REMARK  Name = 
REMARK  3 active torsions:
REMARK  status: ('A' for Active; 'I' for Inactive)
REMARK    1  A    between atoms: O_1  and  C_2
REMARK    2  A    between atoms: C_2  and  CA_4
REMARK    3  A    between atoms: C_7  and  C_9
REMARK                            x       y       z     vdW  Elec       q    Type
REMARK                         _______ _______ _______ _____ _____    ______ ____
ROOT
ATOM      1  CA  UNL     1       9.998   0.301  22.687  0.00  0.00    +0.166 A 
ATOM      2  N   UNL     1      10.453   1.286  23.554  0.00  0.00    -0.221 NA
ATOM      3  C   UNL     1      10.193   2.446  22.969  0.00  0.00    +0.139 A 
ATOM      4  N   UNL     1       9.542   2.224  21.774  0.00  0.00    -0.344 N 
ATOM      5  H   UNL     1       9.228   2.939  21.134  0.00  0.00    +0.167 HD
ATOM      6  C   UNL     1       9.428   0.878  21.577  0.00  0.00    +0.119 A 
ENDROOT
BRANCH   3   7
ATOM      7  C   UNL     1      10.562   3.777  23.474  0.00  0.00    +0.017 A 
ATOM      8  C   UNL     1      11.876   4.238  23.305  0.00  0.00    +0.011 A 
ATOM      9  C   UNL     1      12.252   5.518  23.724  0.00  0.00    +0.001 A 
ATOM     10  C   UNL     1      11.317   6.358  24.323  0.00  0.00    +0.000 A 
ATOM     11  C   UNL     1      10.012   5.915  24.512  0.00  0.00    +0.001 A 
ATOM     12  C   UNL     1       9.636   4.633  24.094  0.00  0.00    +0.011 A 
ENDBRANCH   3   7
BRANCH   1  13
ATOM     13  C   UNL     1      10.151  -1.118  22.982  0.00  0.00    +0.357 C 
ATOM     14  OXT UNL     1       9.978  -1.626  24.080  0.00  0.00    -0.243 OA
BRANCH  13  15
ATOM     15  O   UNL     1      10.509  -1.829  21.879  0.00  0.00    -0.476 OA
ATOM     16  H   UNL     1      10.912  -2.667  22.203  0.00  0.00    +0.295 HD
ENDBRANCH  13  15
ENDBRANCH   1  13
TORSDOF 3
ENDMDL
MODEL 2
REMARK VINA RESULT:      -5.9      3.591      4.983
REMARK  Name = 
REMARK  3 active torsions:
REMARK  status: ('A' for Active; 'I' for Inactive)
REMARK    1  A    between atoms: O_1  and  C_2
REMARK    2  A    between atoms: C_2  and  CA_4
REMARK    3  A    between atoms: C_7  and  C_9
REMARK                            x       y       z     vdW  Elec       q    Type
REMARK                         _______ _______ _______ _____ _____    ______ ____
ROOT
ATOM      1  CA  UNL     1       8.789  -4.121  24.475  0.00  0.00    +0.166 A 
ATOM      2  N   UNL     1       9.433  -2.902  24.635  0.00  0.00    -0.221 NA
ATOM      3  C   UNL     1       9.039  -2.137  23.628  0.00  0.00    +0.139 A 
ATOM      4  N   UNL     1       8.124  -2.825  22.857  0.00  0.00    -0.344 N 
ATOM      5  H   UNL     1       7.665  -2.470  22.032  0.00  0.00    +0.167 HD
ATOM      6  C   UNL     1       7.971  -4.081  23.372  0.00  0.00    +0.119 A 
ENDROOT
BRANCH   3   7
ATOM      7  C   UNL     1       9.512  -0.777  23.329  0.00  0.00    +0.017 A 
ATOM      8  C   UNL     1       9.318  -0.248  22.045  0.00  0.00    +0.011 A 
ATOM      9  C   UNL     1       9.705   1.060  21.737  0.00  0.00    +0.001 A 
ATOM     10  C   UNL     1      10.298   1.859  22.711  0.00  0.00    +0.000 A 
ATOM     11  C   UNL     1      10.512   1.347  23.988  0.00  0.00    +0.001 A 
ATOM     12  C   UNL     1      10.125   0.039  24.295  0.00  0.00    +0.011 A 
ENDBRANCH   3   7
BRANCH   1  13
ATOM     13  C   UNL     1       9.011  -5.237  25.386  0.00  0.00    +0.357 C 
ATOM     14  OXT UNL     1       8.153  -5.741  26.097  0.00  0.00    -0.243 OA
BRANCH  13  15
ATOM     15  O   UNL     1      10.301  -5.668  25.354  0.00  0.00    -0.476 OA
ATOM     16  H   UNL     1      10.381  -6.367  26.044  0.00  0.00    +0.295 HD
ENDBRANCH  13  15
ENDBRANCH   1  13
TORSDOF 3
ENDMDL
MODEL 3
REMARK VINA RESULT:      -5.8      3.624      5.023
REMARK  Name = 
REMARK  3 active torsions:
REMARK  status: ('A' for Active; 'I' for Inactive)
REMARK    1  A    between atoms: O_1  and  C_2
REMARK    2  A    between atoms: C_2  and  CA_4
REMARK    3  A    between atoms: C_7  and  C_9
REMARK                            x       y       z     vdW  Elec       q    Type
REMARK                         _______ _______ _______ _____ _____    ______ ____
ROOT
ATOM      1  CA  UNL     1       8.750  -4.145  24.482  0.00  0.00    +0.166 A 
ATOM      2  N   UNL     1       9.355  -2.904  24.630  0.00  0.00    -0.221 NA
ATOM      3  C   UNL     1       8.948  -2.167  23.607  0.00  0.00    +0.139 A 
ATOM      4  N   UNL     1       8.063  -2.894  22.839  0.00  0.00    -0.344 N 
ATOM      5  H   UNL     1       7.602  -2.565  22.003  0.00  0.00    +0.167 HD
ATOM      6  C   UNL     1       7.943  -4.146  23.370  0.00  0.00    +0.119 A 
ENDROOT
BRANCH   3   7
ATOM      7  C   UNL     1       9.383  -0.797  23.293  0.00  0.00    +0.017 A 
ATOM      8  C   UNL     1      10.046  -0.044  24.273  0.00  0.00    +0.011 A 
ATOM      9  C   UNL     1      10.522   1.241  23.996  0.00  0.00    +0.001 A 
ATOM     10  C   UNL     1      10.336   1.796  22.733  0.00  0.00    +0.000 A 
ATOM     11  C   UNL     1       9.667   1.071  21.751  0.00  0.00    +0.001 A 
ATOM     12  C   UNL     1       9.191  -0.215  22.029  0.00  0.00    +0.011 A 
ENDBRANCH   3   7
BRANCH   1  13
ATOM     13  C   UNL     1       8.997  -5.240  25.412  0.00  0.00    +0.357 C 
ATOM     14  OXT UNL     1       8.162  -5.720  26.165  0.00  0.00    -0.243 OA
BRANCH  13  15
ATOM     15  O   UNL     1      10.282  -5.681  25.346  0.00  0.00    -0.476 OA
ATOM     16  H   UNL     1      10.576  -5.554  24.414  0.00  0.00    +0.295 HD
ENDBRANCH  13  15
ENDBRANCH   1  13
TORSDOF 3
ENDMDL
MODEL 4
REMARK VINA RESULT:      -5.7      1.169      2.025
REMARK  Name = 
REMARK  3 active torsions:
REMARK  status: ('A' for Active; 'I' for Inactive)
REMARK    1  A    between atoms: O_1  and  C_2
REMARK    2  A    between atoms: C_2  and  CA_4
REMARK    3  A    between atoms: C_7  and  C_9
REMARK                            x       y       z     vdW  Elec       q    Type
REMARK                         _______ _______ _______ _____ _____    ______ ____
ROOT
ATOM      1  CA  UNL     1      10.212  -0.287  23.391  0.00  0.00    +0.166 A 
ATOM      2  N   UNL     1      10.370   0.977  22.838  0.00  0.00    -0.221 NA
ATOM      3  C   UNL     1      10.290   1.836  23.843  0.00  0.00    +0.139 A 
ATOM      4  N   UNL     1      10.132   1.146  25.028  0.00  0.00    -0.344 N 
ATOM      5  H   UNL     1      10.050   1.561  25.944  0.00  0.00    +0.167 HD
ATOM      6  C   UNL     1      10.065  -0.190  24.754  0.00  0.00    +0.119 A 
ENDROOT
BRANCH   3   7
ATOM      7  C   UNL     1      10.325   3.302  23.741  0.00  0.00    +0.017 A 
ATOM      8  C   UNL     1       9.151   4.036  23.967  0.00  0.00    +0.011 A 
ATOM      9  C   UNL     1       9.155   5.434  23.931  0.00  0.00    +0.001 A 
ATOM     10  C   UNL     1      10.336   6.121  23.663  0.00  0.00    +0.000 A 
ATOM     11  C   UNL     1      11.509   5.411  23.422  0.00  0.00    +0.001 A 
ATOM     12  C   UNL     1      11.504   4.012  23.457  0.00  0.00    +0.011 A 
ENDBRANCH   3   7
BRANCH   1  13
ATOM     13  C   UNL     1      10.204  -1.493  22.572  0.00  0.00    +0.357 C 
ATOM     14  OXT UNL     1      10.385  -2.626  22.994  0.00  0.00    -0.243 OA
BRANCH  13  15
ATOM     15  O   UNL     1       9.964  -1.214  21.262  0.00  0.00    -0.476 OA
ATOM     16  H   UNL     1       9.259  -1.836  20.967  0.00  0.00    +0.295 HD
ENDBRANCH  13  15
ENDBRANCH   1  13
TORSDOF 3
ENDMDL
MODEL 5
REMARK VINA RESULT:      -5.6      3.596      5.013
REMARK  Name = 
REMARK  3 active torsions:
REMARK  status: ('A' for Active; 'I' for Inactive)
REMARK    1  A    between atoms: O_1  and  C_2
REMARK    2  A    between atoms: C_2  and  CA_4
REMARK    3  A    between atoms: C_7  and  C_9
REMARK                            x       y       z     vdW  Elec       q    Type
REMARK                         _______ _______ _______ _____ _____    ______ ____
ROOT
ATOM      1  CA  UNL     1       7.656  -3.759  22.629  0.00  0.00    +0.166 A 
ATOM      2  N   UNL     1       8.042  -2.499  22.190  0.00  0.00    -0.221 NA
ATOM      3  C   UNL     1       8.835  -2.004  23.129  0.00  0.00    +0.139 A 
ATOM      4  N   UNL     1       9.000  -2.938  24.131  0.00  0.00    -0.344 N 
ATOM      5  H   UNL     1       9.560  -2.816  24.962  0.00  0.00    +0.167 HD
ATOM      6  C   UNL     1       8.250  -4.040  23.836  0.00  0.00    +0.119 A 
ENDROOT
BRANCH   3   7
ATOM      7  C   UNL     1       9.432  -0.661  23.146  0.00  0.00    +0.017 A 
ATOM      8  C   UNL     1       9.367   0.136  21.993  0.00  0.00    +0.011 A 
ATOM      9  C   UNL     1       9.876   1.438  21.986  0.00  0.00    +0.001 A 
ATOM     10  C   UNL     1      10.463   1.964  23.134  0.00  0.00    +0.000 A 
ATOM     11  C   UNL     1      10.550   1.184  24.284  0.00  0.00    +0.001 A 
ATOM     12  C   UNL     1      10.042  -0.119  24.290  0.00  0.00    +0.011 A 
ENDBRANCH   3   7
BRANCH   1  13
ATOM     13  C   UNL     1       6.740  -4.595  21.863  0.00  0.00    +0.357 C 
ATOM     14  OXT UNL     1       5.697  -4.208  21.357  0.00  0.00    -0.243 OA
BRANCH  13  15
ATOM     15  O   UNL     1       7.185  -5.877  21.767  0.00  0.00    -0.476 OA
ATOM     16  H   UNL     1       6.538  -6.358  21.200  0.00  0.00    +0.295 HD
ENDBRANCH  13  15
ENDBRANCH   1  13
TORSDOF 3
ENDMDL
MODEL 6
REMARK VINA RESULT:      -5.4      4.445      6.069
REMARK  Name = 
REMARK  3 active torsions:
REMARK  status: ('A' for Active; 'I' for Inactive)
REMARK    1  A    between atoms: O_1  and  C_2
REMARK    2  A    between atoms: C_2  and  CA_4
REMARK    3  A    between atoms: C_7  and  C_9
REMARK                            x       y       z     vdW  Elec       q    Type
REMARK                         _______ _______ _______ _____ _____    ______ ____
ROOT
ATOM      1  CA  UNL     1       7.138  -4.683  22.496  0.00  0.00    +0.166 A 
ATOM      2  N   UNL     1       7.717  -3.486  22.095  0.00  0.00    -0.221 NA
ATOM      3  C   UNL     1       8.310  -2.982  23.168  0.00  0.00    +0.139 A 
ATOM      4  N   UNL     1       8.160  -3.851  24.228  0.00  0.00    -0.344 N 
ATOM      5  H   UNL     1       8.520  -3.709  25.160  0.00  0.00    +0.167 HD
ATOM      6  C   UNL     1       7.410  -4.918  23.822  0.00  0.00    +0.119 A 
ENDROOT
BRANCH   3   7
ATOM      7  C   UNL     1       8.996  -1.684  23.255  0.00  0.00    +0.017 A 
ATOM      8  C   UNL     1       9.464  -1.236  24.499  0.00  0.00    +0.011 A 
ATOM      9  C   UNL     1      10.167  -0.032  24.615  0.00  0.00    +0.001 A 
ATOM     10  C   UNL     1      10.410   0.745  23.485  0.00  0.00    +0.000 A 
ATOM     11  C   UNL     1       9.941   0.324  22.244  0.00  0.00    +0.001 A 
ATOM     12  C   UNL     1       9.237  -0.880  22.129  0.00  0.00    +0.011 A 
ENDBRANCH   3   7
BRANCH   1  13
ATOM     13  C   UNL     1       6.358  -5.507  21.580  0.00  0.00    +0.357 C 
ATOM     14  OXT UNL     1       5.901  -5.125  20.512  0.00  0.00    -0.243 OA
BRANCH  13  15
ATOM     15  O   UNL     1       6.196  -6.773  22.051  0.00  0.00    -0.476 OA
ATOM     16  H   UNL     1       5.620  -7.242  21.405  0.00  0.00    +0.295 HD
ENDBRANCH  13  15
ENDBRANCH   1  13
TORSDOF 3
ENDMDL
MODEL 7
REMARK VINA RESULT:      -5.3      3.244      5.685
REMARK  Name = 
REMARK  3 active torsions:
REMARK  status: ('A' for Active; 'I' for Inactive)
REMARK    1  A    between atoms: O_1  and  C_2
REMARK    2  A    between atoms: C_2  and  CA_4
REMARK    3  A    between atoms: C_7  and  C_9
REMARK                            x       y       z     vdW  Elec       q    Type
REMARK                         _______ _______ _______ _____ _____    ______ ____
ROOT
ATOM      1  CA  UNL     1      10.984   4.488  23.575  0.00  0.00    +0.166 A 
ATOM      2  N   UNL     1      11.279   3.192  23.174  0.00  0.00    -0.221 NA
ATOM      3  C   UNL     1      10.186   2.476  23.397  0.00  0.00    +0.139 A 
ATOM      4  N   UNL     1       9.190   3.295  23.886  0.00  0.00    -0.344 N 
ATOM      5  H   UNL     1       8.257   3.002  24.135  0.00  0.00    +0.167 HD
ATOM      6  C   UNL     1       9.685   4.561  24.019  0.00  0.00    +0.119 A 
ENDROOT
BRANCH   3   7
ATOM      7  C   UNL     1      10.040   1.026  23.198  0.00  0.00    +0.017 A 
ATOM      8  C   UNL     1      10.082   0.172  24.310  0.00  0.00    +0.011 A 
ATOM      9  C   UNL     1       9.894  -1.207  24.168  0.00  0.00    +0.001 A 
ATOM     10  C   UNL     1       9.663  -1.753  22.908  0.00  0.00    +0.000 A 
ATOM     11  C   UNL     1       9.632  -0.923  21.791  0.00  0.00    +0.001 A 
ATOM     12  C   UNL     1       9.821   0.456  21.933  0.00  0.00    +0.011 A 
ENDBRANCH   3   7
BRANCH   1  13
ATOM     13  C   UNL     1      11.972   5.559  23.513  0.00  0.00    +0.357 C 
ATOM     14  OXT UNL     1      12.273   6.287  24.448  0.00  0.00    -0.243 OA
BRANCH  13  15
ATOM     15  O   UNL     1      12.534   5.658  22.279  0.00  0.00    -0.476 OA
ATOM     16  H   UNL     1      13.123   4.876  22.174  0.00  0.00    +0.295 HD
ENDBRANCH  13  15
ENDBRANCH   1  13
TORSDOF 3
ENDMDL
MODEL 8
REMARK VINA RESULT:      -5.2      3.330      6.754
REMARK  Name = 
REMARK  3 active torsions:
REMARK  status: ('A' for Active; 'I' for Inactive)
REMARK    1  A    between atoms: O_1  and  C_2
REMARK    2  A    between atoms: C_2  and  CA_4
REMARK    3  A    between atoms: C_7  and  C_9
REMARK                            x       y       z     vdW  Elec       q    Type
REMARK                         _______ _______ _______ _____ _____    ______ ____
ROOT
ATOM      1  CA  UNL     1       9.769   0.339  22.666  0.00  0.00    +0.166 A 
ATOM      2  N   UNL     1       9.513  -0.428  23.795  0.00  0.00    -0.221 NA
ATOM      3  C   UNL     1       9.119  -1.615  23.357  0.00  0.00    +0.139 A 
ATOM      4  N   UNL     1       9.163  -1.636  21.978  0.00  0.00    -0.344 N 
ATOM      5  H   UNL     1       8.917  -2.421  21.394  0.00  0.00    +0.167 HD
ATOM      6  C   UNL     1       9.555  -0.407  21.531  0.00  0.00    +0.119 A 
ENDROOT
BRANCH   3   7
ATOM      7  C   UNL     1       8.664  -2.742  24.186  0.00  0.00    +0.017 A 
ATOM      8  C   UNL     1       8.164  -3.896  23.563  0.00  0.00    +0.011 A 
ATOM      9  C   UNL     1       7.772  -5.008  24.313  0.00  0.00    +0.001 A 
ATOM     10  C   UNL     1       7.870  -4.982  25.702  0.00  0.00    +0.000 A 
ATOM     11  C   UNL     1       8.350  -3.842  26.339  0.00  0.00    +0.001 A 
ATOM     12  C   UNL     1       8.742  -2.729  25.588  0.00  0.00    +0.011 A 
ENDBRANCH   3   7
BRANCH   1  13
ATOM     13  C   UNL     1      10.192   1.731  22.758  0.00  0.00    +0.357 C 
ATOM     14  OXT UNL     1      10.443   2.317  23.801  0.00  0.00    -0.243 OA
BRANCH  13  15
ATOM     15  O   UNL     1      10.281   2.315  21.534  0.00  0.00    -0.476 OA
ATOM     16  H   UNL     1      10.702   1.655  20.936  0.00  0.00    +0.295 HD
ENDBRANCH  13  15
ENDBRANCH   1  13
TORSDOF 3
ENDMDL
MODEL 9
REMARK VINA RESULT:      -5.2      3.986      7.416
REMARK  Name = 
REMARK  3 active torsions:
REMARK  status: ('A' for Active; 'I' for Inactive)
REMARK    1  A    between atoms: O_1  and  C_2
REMARK    2  A    between atoms: C_2  and  CA_4
REMARK    3  A    between atoms: C_7  and  C_9
REMARK                            x       y       z     vdW  Elec       q    Type
REMARK                         _______ _______ _______ _____ _____    ______ ____
ROOT
ATOM      1  CA  UNL     1       8.779   0.251  21.995  0.00  0.00    +0.166 A 
ATOM      2  N   UNL     1       7.715  -0.463  22.530  0.00  0.00    -0.221 NA
ATOM      3  C   UNL     1       8.060  -1.742  22.476  0.00  0.00    +0.139 A 
ATOM      4  N   UNL     1       9.336  -1.853  21.963  0.00  0.00    -0.344 N 
ATOM      5  H   UNL     1       9.839  -2.717  21.821  0.00  0.00    +0.167 HD
ATOM      6  C   UNL     1       9.793  -0.607  21.641  0.00  0.00    +0.119 A 
ENDROOT
BRANCH   3   7
ATOM      7  C   UNL     1       7.222  -2.887  22.861  0.00  0.00    +0.017 A 
ATOM      8  C   UNL     1       5.836  -2.826  22.654  0.00  0.00    +0.011 A 
ATOM      9  C   UNL     1       5.012  -3.914  22.958  0.00  0.00    +0.001 A 
ATOM     10  C   UNL     1       5.563  -5.082  23.479  0.00  0.00    +0.000 A 
ATOM     11  C   UNL     1       6.934  -5.157  23.706  0.00  0.00    +0.001 A 
ATOM     12  C   UNL     1       7.758  -4.068  23.402  0.00  0.00    +0.011 A 
ENDBRANCH   3   7
BRANCH   1  13
ATOM     13  C   UNL     1       8.742   1.701  21.854  0.00  0.00    +0.357 C 
ATOM     14  OXT UNL     1       7.751   2.395  22.030  0.00  0.00    -0.243 OA
BRANCH  13  15
ATOM     15  O   UNL     1       9.954   2.207  21.503  0.00  0.00    -0.476 OA
ATOM     16  H   UNL     1       9.841   2.620  20.616  0.00  0.00    +0.295 HD
ENDBRANCH  13  15
ENDBRANCH   1  13
TORSDOF 3
ENDMDL
