MODEL 1
REMARK VINA RESULT:      -6.1      0.000      0.000
REMARK  Name = 
REMARK  3 active torsions:
REMARK  status: ('A' for Active; 'I' for Inactive)
REMARK    1  A    between atoms: C_1  and  C_2
REMARK    2  A    between atoms: C_2  and  C_3
REMARK    3  A    between atoms: C_4  and  C_11
REMARK                            x       y       z     vdW  Elec       q    Type
REMARK                         _______ _______ _______ _____ _____    ______ ____
ROOT
ATOM      1  C   UNL     1       6.343  -3.741  25.228  0.00  0.00    +0.056 A 
ATOM      2  N   UNL     1       5.562  -4.797  25.573  0.00  0.00    -0.219 NA
ATOM      3  C   UNL     1       6.101  -5.769  26.294  0.00  0.00    +0.214 A 
ATOM      4  N   UNL     1       5.287  -6.826  26.654  0.00  0.00    -0.327 N 
ATOM      5  H   UNL     1       4.499  -6.876  26.022  0.00  0.00    +0.145 HD
ATOM      6  H   UNL     1       5.841  -7.662  26.771  0.00  0.00    +0.145 HD
ATOM      7  N   UNL     1       7.374  -5.815  26.651  0.00  0.00    -0.199 NA
ATOM      8  C   UNL     1       8.135  -4.753  26.331  0.00  0.00    +0.129 A 
ATOM      9  N   UNL     1       9.458  -4.916  26.772  0.00  0.00    -0.343 N 
ATOM     10  H   UNL     1       9.489  -5.804  27.262  0.00  0.00    +0.144 HD
ATOM     11  H   UNL     1       9.740  -4.144  27.359  0.00  0.00    +0.144 HD
ATOM     12  C   UNL     1       7.689  -3.621  25.627  0.00  0.00    +0.043 A 
ENDROOT
BRANCH  12  13
ATOM     13  C   UNL     1       8.570  -2.450  25.308  0.00  0.00    -0.013 A 
ATOM     14  C   UNL     1       9.347  -2.391  24.133  0.00  0.00    +0.010 A 
ATOM     15  C   UNL     1      10.105  -1.262  23.787  0.00  0.00    +0.020 A 
ATOM     16  C   UNL     1      10.064  -0.130  24.589  0.00  0.00    +0.041 A 
ATOM     17 CL   UNL     1      10.900   1.295  24.119  0.00  0.00    -0.084 Cl
ATOM     18  C   UNL     1       9.340  -0.153  25.773  0.00  0.00    +0.020 A 
ATOM     19  C   UNL     1       8.650  -1.317  26.145  0.00  0.00    +0.010 A 
ENDBRANCH  12  13
BRANCH   1  21
ATOM     20  C   UNL     1       5.758  -2.977  22.859  0.00  0.00    +0.010 C 
ATOM     21  C   UNL     1       5.595  -2.758  24.357  0.00  0.00    +0.053 C 
ENDBRANCH   1  21
TORSDOF 2
ENDMDL
MODEL 2
REMARK VINA RESULT:      -6.0      4.173      5.922
REMARK  Name = 
REMARK  3 active torsions:
REMARK  status: ('A' for Active; 'I' for Inactive)
REMARK    1  A    between atoms: C_1  and  C_2
REMARK    2  A    between atoms: C_2  and  C_3
REMARK    3  A    between atoms: C_4  and  C_11
REMARK                            x       y       z     vdW  Elec       q    Type
REMARK                         _______ _______ _______ _____ _____    ______ ____
ROOT
ATOM      1  C   UNL     1       7.359  -5.039  23.819  0.00  0.00    +0.056 A 
ATOM      2  N   UNL     1       8.677  -5.082  24.140  0.00  0.00    -0.219 NA
ATOM      3  C   UNL     1       9.013  -5.413  25.378  0.00  0.00    +0.214 A 
ATOM      4  N   UNL     1      10.360  -5.472  25.682  0.00  0.00    -0.327 N 
ATOM      5  H   UNL     1      10.881  -4.915  25.018  0.00  0.00    +0.145 HD
ATOM      6  H   UNL     1      10.500  -5.275  26.663  0.00  0.00    +0.145 HD
ATOM      7  N   UNL     1       8.146  -5.646  26.350  0.00  0.00    -0.199 NA
ATOM      8  C   UNL     1       6.843  -5.630  26.018  0.00  0.00    +0.129 A 
ATOM      9  N   UNL     1       6.027  -5.901  27.128  0.00  0.00    -0.343 N 
ATOM     10  H   UNL     1       6.652  -6.076  27.907  0.00  0.00    +0.144 HD
ATOM     11  H   UNL     1       5.414  -6.682  26.944  0.00  0.00    +0.144 HD
ATOM     12  C   UNL     1       6.337  -5.360  24.735  0.00  0.00    +0.043 A 
ENDROOT
BRANCH  12  13
ATOM     13  C   UNL     1       4.873  -5.371  24.407  0.00  0.00    -0.013 A 
ATOM     14  C   UNL     1       4.048  -4.246  24.611  0.00  0.00    +0.010 A 
ATOM     15  C   UNL     1       2.699  -4.223  24.226  0.00  0.00    +0.020 A 
ATOM     16  C   UNL     1       2.148  -5.316  23.572  0.00  0.00    +0.041 A 
ATOM     17 CL   UNL     1       0.529  -5.257  22.999  0.00  0.00    -0.084 Cl
ATOM     18  C   UNL     1       2.912  -6.458  23.379  0.00  0.00    +0.020 A 
ATOM     19  C   UNL     1       4.237  -6.495  23.840  0.00  0.00    +0.010 A 
ENDBRANCH  12  13
BRANCH   1  21
ATOM     20  C   UNL     1       6.926  -5.707  21.388  0.00  0.00    +0.010 C 
ATOM     21  C   UNL     1       7.148  -4.584  22.393  0.00  0.00    +0.053 C 
ENDBRANCH   1  21
TORSDOF 2
ENDMDL
MODEL 3
REMARK VINA RESULT:      -5.8      4.688      6.479
REMARK  Name = 
REMARK  3 active torsions:
REMARK  status: ('A' for Active; 'I' for Inactive)
REMARK    1  A    between atoms: C_1  and  C_2
REMARK    2  A    between atoms: C_2  and  C_3
REMARK    3  A    between atoms: C_4  and  C_11
REMARK                            x       y       z     vdW  Elec       q    Type
REMARK                         _______ _______ _______ _____ _____    ______ ____
ROOT
ATOM      1  C   UNL     1       8.670   0.400  24.311  0.00  0.00    +0.056 A 
ATOM      2  N   UNL     1       9.321   1.589  24.239  0.00  0.00    -0.219 NA
ATOM      3  C   UNL     1       9.963   1.889  23.119  0.00  0.00    +0.214 A 
ATOM      4  N   UNL     1      10.602   3.112  23.056  0.00  0.00    -0.327 N 
ATOM      5  H   UNL     1      10.784   3.448  23.992  0.00  0.00    +0.145 HD
ATOM      6  H   UNL     1      11.387   3.058  22.422  0.00  0.00    +0.145 HD
ATOM      7  N   UNL     1      10.068   1.078  22.079  0.00  0.00    -0.199 NA
ATOM      8  C   UNL     1       9.398  -0.086  22.146  0.00  0.00    +0.129 A 
ATOM      9  N   UNL     1       9.580  -0.851  20.982  0.00  0.00    -0.343 N 
ATOM     10  H   UNL     1      10.159  -0.296  20.362  0.00  0.00    +0.144 HD
ATOM     11  H   UNL     1       8.692  -1.091  20.566  0.00  0.00    +0.144 HD
ATOM     12  C   UNL     1       8.623  -0.514  23.238  0.00  0.00    +0.043 A 
ENDROOT
BRANCH  12  13
ATOM     13  C   UNL     1       7.877  -1.815  23.261  0.00  0.00    -0.013 A 
ATOM     14  C   UNL     1       6.527  -1.914  22.868  0.00  0.00    +0.010 A 
ATOM     15  C   UNL     1       5.850  -3.142  22.805  0.00  0.00    +0.020 A 
ATOM     16  C   UNL     1       6.529  -4.320  23.084  0.00  0.00    +0.041 A 
ATOM     17 CL   UNL     1       5.741  -5.836  22.903  0.00  0.00    -0.084 Cl
ATOM     18  C   UNL     1       7.849  -4.268  23.507  0.00  0.00    +0.020 A 
ATOM     19  C   UNL     1       8.490  -3.027  23.641  0.00  0.00    +0.010 A 
ENDBRANCH  12  13
BRANCH   1  21
ATOM     20  C   UNL     1       8.833  -0.731  26.598  0.00  0.00    +0.010 C 
ATOM     21  C   UNL     1       8.048   0.188  25.672  0.00  0.00    +0.053 C 
ENDBRANCH   1  21
TORSDOF 2
ENDMDL
MODEL 4
REMARK VINA RESULT:      -5.8      1.962      2.328
REMARK  Name = 
REMARK  3 active torsions:
REMARK  status: ('A' for Active; 'I' for Inactive)
REMARK    1  A    between atoms: C_1  and  C_2
REMARK    2  A    between atoms: C_2  and  C_3
REMARK    3  A    between atoms: C_4  and  C_11
REMARK                            x       y       z     vdW  Elec       q    Type
REMARK                         _______ _______ _______ _____ _____    ______ ____
ROOT
ATOM      1  C   UNL     1       7.215  -4.282  23.833  0.00  0.00    +0.056 A 
ATOM      2  N   UNL     1       6.679  -5.311  24.538  0.00  0.00    -0.219 NA
ATOM      3  C   UNL     1       6.684  -5.237  25.861  0.00  0.00    +0.214 A 
ATOM      4  N   UNL     1       6.117  -6.284  26.562  0.00  0.00    -0.327 N 
ATOM      5  H   UNL     1       6.097  -7.110  25.980  0.00  0.00    +0.145 HD
ATOM      6  H   UNL     1       6.553  -6.366  27.470  0.00  0.00    +0.145 HD
ATOM      7  N   UNL     1       7.236  -4.253  26.551  0.00  0.00    -0.199 NA
ATOM      8  C   UNL     1       7.739  -3.223  25.847  0.00  0.00    +0.129 A 
ATOM      9  N   UNL     1       8.285  -2.242  26.690  0.00  0.00    -0.343 N 
ATOM     10  H   UNL     1       8.122  -2.558  27.640  0.00  0.00    +0.144 HD
ATOM     11  H   UNL     1       7.869  -1.340  26.508  0.00  0.00    +0.144 HD
ATOM     12  C   UNL     1       7.748  -3.129  24.444  0.00  0.00    +0.043 A 
ENDROOT
BRANCH  12  13
ATOM     13  C   UNL     1       8.305  -1.952  23.701  0.00  0.00    -0.013 A 
ATOM     14  C   UNL     1       7.519  -0.828  23.375  0.00  0.00    +0.010 A 
ATOM     15  C   UNL     1       8.056   0.312  22.757  0.00  0.00    +0.020 A 
ATOM     16  C   UNL     1       9.417   0.379  22.494  0.00  0.00    +0.041 A 
ATOM     17 CL   UNL     1      10.103   1.812  21.839  0.00  0.00    -0.084 Cl
ATOM     18  C   UNL     1      10.224  -0.716  22.767  0.00  0.00    +0.020 A 
ATOM     19  C   UNL     1       9.660  -1.878  23.313  0.00  0.00    +0.010 A 
ENDBRANCH  12  13
BRANCH   1  21
ATOM     20  C   UNL     1       7.098  -6.025  21.965  0.00  0.00    +0.010 C 
ATOM     21  C   UNL     1       7.187  -4.553  22.346  0.00  0.00    +0.053 C 
ENDBRANCH   1  21
TORSDOF 2
ENDMDL
MODEL 5
REMARK VINA RESULT:      -5.8      1.972      3.109
REMARK  Name = 
REMARK  3 active torsions:
REMARK  status: ('A' for Active; 'I' for Inactive)
REMARK    1  A    between atoms: C_1  and  C_2
REMARK    2  A    between atoms: C_2  and  C_3
REMARK    3  A    between atoms: C_4  and  C_11
REMARK                            x       y       z     vdW  Elec       q    Type
REMARK                         _______ _______ _______ _____ _____    ______ ____
ROOT
ATOM      1  C   UNL     1       6.403  -5.018  24.720  0.00  0.00    +0.056 A 
ATOM      2  N   UNL     1       5.446  -5.927  24.402  0.00  0.00    -0.219 NA
ATOM      3  C   UNL     1       4.671  -5.685  23.354  0.00  0.00    +0.214 A 
ATOM      4  N   UNL     1       3.715  -6.630  23.033  0.00  0.00    -0.327 N 
ATOM      5  H   UNL     1       3.513  -7.197  23.845  0.00  0.00    +0.145 HD
ATOM      6  H   UNL     1       2.935  -6.187  22.570  0.00  0.00    +0.145 HD
ATOM      7  N   UNL     1       4.722  -4.581  22.628  0.00  0.00    -0.199 NA
ATOM      8  C   UNL     1       5.691  -3.699  22.930  0.00  0.00    +0.129 A 
ATOM      9  N   UNL     1       5.648  -2.578  22.084  0.00  0.00    -0.343 N 
ATOM     10  H   UNL     1       4.897  -2.746  21.424  0.00  0.00    +0.144 HD
ATOM     11  H   UNL     1       6.537  -2.438  21.627  0.00  0.00    +0.144 HD
ATOM     12  C   UNL     1       6.626  -3.847  23.969  0.00  0.00    +0.043 A 
ENDROOT
BRANCH  12  13
ATOM     13  C   UNL     1       7.703  -2.843  24.259  0.00  0.00    -0.013 A 
ATOM     14  C   UNL     1       8.944  -2.858  23.592  0.00  0.00    +0.010 A 
ATOM     15  C   UNL     1       9.921  -1.871  23.796  0.00  0.00    +0.020 A 
ATOM     16  C   UNL     1       9.656  -0.803  24.642  0.00  0.00    +0.041 A 
ATOM     17 CL   UNL     1      10.799   0.468  24.815  0.00  0.00    -0.084 Cl
ATOM     18  C   UNL     1       8.461  -0.763  25.345  0.00  0.00    +0.020 A 
ATOM     19  C   UNL     1       7.527  -1.799  25.190  0.00  0.00    +0.010 A 
ENDBRANCH  12  13
BRANCH   1  21
ATOM     20  C   UNL     1       6.597  -4.824  27.262  0.00  0.00    +0.010 C 
ATOM     21  C   UNL     1       7.151  -5.414  25.973  0.00  0.00    +0.053 C 
ENDBRANCH   1  21
TORSDOF 2
ENDMDL
MODEL 6
REMARK VINA RESULT:      -5.7      2.579      3.626
REMARK  Name = 
REMARK  3 active torsions:
REMARK  status: ('A' for Active; 'I' for Inactive)
REMARK    1  A    between atoms: C_1  and  C_2
REMARK    2  A    between atoms: C_2  and  C_3
REMARK    3  A    between atoms: C_4  and  C_11
REMARK                            x       y       z     vdW  Elec       q    Type
REMARK                         _______ _______ _______ _____ _____    ______ ____
ROOT
ATOM      1  C   UNL     1       8.192  -2.341  25.688  0.00  0.00    +0.056 A 
ATOM      2  N   UNL     1       8.525  -3.622  25.993  0.00  0.00    -0.219 NA
ATOM      3  C   UNL     1       9.447  -4.225  25.257  0.00  0.00    +0.214 A 
ATOM      4  N   UNL     1       9.788  -5.521  25.593  0.00  0.00    -0.327 N 
ATOM      5  H   UNL     1       9.039  -5.940  26.128  0.00  0.00    +0.145 HD
ATOM      6  H   UNL     1      10.107  -6.017  24.773  0.00  0.00    +0.145 HD
ATOM      7  N   UNL     1      10.026  -3.685  24.197  0.00  0.00    -0.199 NA
ATOM      8  C   UNL     1       9.713  -2.407  23.918  0.00  0.00    +0.129 A 
ATOM      9  N   UNL     1      10.397  -1.946  22.782  0.00  0.00    -0.343 N 
ATOM     10  H   UNL     1      10.993  -2.708  22.478  0.00  0.00    +0.144 HD
ATOM     11  H   UNL     1      10.921  -1.109  22.992  0.00  0.00    +0.144 HD
ATOM     12  C   UNL     1       8.803  -1.618  24.645  0.00  0.00    +0.043 A 
ENDROOT
BRANCH  12  13
ATOM     13  C   UNL     1       8.498  -0.189  24.307  0.00  0.00    -0.013 A 
ATOM     14  C   UNL     1       9.251   0.883  24.827  0.00  0.00    +0.010 A 
ATOM     15  C   UNL     1       9.025   2.215  24.447  0.00  0.00    +0.020 A 
ATOM     16  C   UNL     1       8.065   2.506  23.487  0.00  0.00    +0.041 A 
ATOM     17 CL   UNL     1       7.855   4.119  22.933  0.00  0.00    -0.084 Cl
ATOM     18  C   UNL     1       7.278   1.487  22.972  0.00  0.00    +0.020 A 
ATOM     19  C   UNL     1       7.462   0.170  23.420  0.00  0.00    +0.010 A 
ENDBRANCH  12  13
BRANCH   1  21
ATOM     20  C   UNL     1       5.680  -1.989  26.015  0.00  0.00    +0.010 C 
ATOM     21  C   UNL     1       7.084  -1.828  26.581  0.00  0.00    +0.053 C 
ENDBRANCH   1  21
TORSDOF 2
ENDMDL
MODEL 7
REMARK VINA RESULT:      -5.4      4.002      5.561
REMARK  Name = 
REMARK  3 active torsions:
REMARK  status: ('A' for Active; 'I' for Inactive)
REMARK    1  A    between atoms: C_1  and  C_2
REMARK    2  A    between atoms: C_2  and  C_3
REMARK    3  A    between atoms: C_4  and  C_11
REMARK                            x       y       z     vdW  Elec       q    Type
REMARK                         _______ _______ _______ _____ _____    ______ ____
ROOT
ATOM      1  C   UNL     1       8.296  -1.864  22.898  0.00  0.00    +0.056 A 
ATOM      2  N   UNL     1       8.726  -0.953  21.988  0.00  0.00    -0.219 NA
ATOM      3  C   UNL     1       9.355   0.127  22.427  0.00  0.00    +0.214 A 
ATOM      4  N   UNL     1       9.804   1.034  21.485  0.00  0.00    -0.327 N 
ATOM      5  H   UNL     1       9.281   0.917  20.627  0.00  0.00    +0.145 HD
ATOM      6  H   UNL     1       9.836   1.960  21.887  0.00  0.00    +0.145 HD
ATOM      7  N   UNL     1       9.542   0.414  23.705  0.00  0.00    -0.199 NA
ATOM      8  C   UNL     1       9.140  -0.506  24.600  0.00  0.00    +0.129 A 
ATOM      9  N   UNL     1       9.401  -0.091  25.915  0.00  0.00    -0.343 N 
ATOM     10  H   UNL     1       9.869   0.806  25.845  0.00  0.00    +0.144 HD
ATOM     11  H   UNL     1       9.956  -0.777  26.406  0.00  0.00    +0.144 HD
ATOM     12  C   UNL     1       8.516  -1.725  24.283  0.00  0.00    +0.043 A 
ENDROOT
BRANCH  12  13
ATOM     13  C   UNL     1       8.101  -2.730  25.316  0.00  0.00    -0.013 A 
ATOM     14  C   UNL     1       6.884  -2.625  26.021  0.00  0.00    +0.010 A 
ATOM     15  C   UNL     1       6.451  -3.607  26.924  0.00  0.00    +0.020 A 
ATOM     16  C   UNL     1       7.205  -4.758  27.109  0.00  0.00    +0.041 A 
ATOM     17 CL   UNL     1       6.631  -6.016  28.128  0.00  0.00    -0.084 Cl
ATOM     18  C   UNL     1       8.425  -4.890  26.462  0.00  0.00    +0.020 A 
ATOM     19  C   UNL     1       8.883  -3.864  25.621  0.00  0.00    +0.010 A 
ENDBRANCH  12  13
BRANCH   1  21
ATOM     20  C   UNL     1       6.028  -2.858  22.259  0.00  0.00    +0.010 C 
ATOM     21  C   UNL     1       7.544  -2.997  22.238  0.00  0.00    +0.053 C 
ENDBRANCH   1  21
TORSDOF 2
ENDMDL
MODEL 8
REMARK VINA RESULT:      -5.4      3.789      5.862
REMARK  Name = 
REMARK  3 active torsions:
REMARK  status: ('A' for Active; 'I' for Inactive)
REMARK    1  A    between atoms: C_1  and  C_2
REMARK    2  A    between atoms: C_2  and  C_3
REMARK    3  A    between atoms: C_4  and  C_11
REMARK                            x       y       z     vdW  Elec       q    Type
REMARK                         _______ _______ _______ _____ _____    ______ ____
ROOT
ATOM      1  C   UNL     1       7.225  -2.849  23.991  0.00  0.00    +0.056 A 
ATOM      2  N   UNL     1       8.212  -1.958  23.716  0.00  0.00    -0.219 NA
ATOM      3  C   UNL     1       9.470  -2.354  23.839  0.00  0.00    +0.214 A 
ATOM      4  N   UNL     1      10.462  -1.441  23.535  0.00  0.00    -0.327 N 
ATOM      5  H   UNL     1      10.090  -0.503  23.603  0.00  0.00    +0.145 HD
ATOM      6  H   UNL     1      11.295  -1.649  24.066  0.00  0.00    +0.145 HD
ATOM      7  N   UNL     1       9.837  -3.549  24.274  0.00  0.00    -0.199 NA
ATOM      8  C   UNL     1       8.856  -4.435  24.517  0.00  0.00    +0.129 A 
ATOM      9  N   UNL     1       9.371  -5.664  24.962  0.00  0.00    -0.343 N 
ATOM     10  H   UNL     1      10.381  -5.571  24.952  0.00  0.00    +0.144 HD
ATOM     11  H   UNL     1       9.049  -6.422  24.378  0.00  0.00    +0.144 HD
ATOM     12  C   UNL     1       7.481  -4.182  24.371  0.00  0.00    +0.043 A 
ENDROOT
BRANCH  12  13
ATOM     13  C   UNL     1       6.421  -5.209  24.637  0.00  0.00    -0.013 A 
ATOM     14  C   UNL     1       6.046  -5.583  25.943  0.00  0.00    +0.010 A 
ATOM     15  C   UNL     1       4.996  -6.479  26.198  0.00  0.00    +0.020 A 
ATOM     16  C   UNL     1       4.252  -6.989  25.144  0.00  0.00    +0.041 A 
ATOM     17 CL   UNL     1       2.896  -7.999  25.449  0.00  0.00    -0.084 Cl
ATOM     18  C   UNL     1       4.605  -6.676  23.839  0.00  0.00    +0.020 A 
ATOM     19  C   UNL     1       5.706  -5.840  23.597  0.00  0.00    +0.010 A 
ENDBRANCH  12  13
BRANCH   1  21
ATOM     20  C   UNL     1       5.221  -1.799  25.183  0.00  0.00    +0.010 C 
ATOM     21  C   UNL     1       5.857  -2.219  23.865  0.00  0.00    +0.053 C 
ENDBRANCH   1  21
TORSDOF 2
ENDMDL
MODEL 9
REMARK VINA RESULT:      -5.4      4.097      6.234
REMARK  Name = 
REMARK  3 active torsions:
REMARK  status: ('A' for Active; 'I' for Inactive)
REMARK    1  A    between atoms: C_1  and  C_2
REMARK    2  A    between atoms: C_2  and  C_3
REMARK    3  A    between atoms: C_4  and  C_11
REMARK                            x       y       z     vdW  Elec       q    Type
REMARK                         _______ _______ _______ _____ _____    ______ ____
ROOT
ATOM      1  C   UNL     1       8.506  -3.962  24.174  0.00  0.00    +0.056 A 
ATOM      2  N   UNL     1       9.517  -3.163  23.746  0.00  0.00    -0.219 NA
ATOM      3  C   UNL     1       9.233  -2.191  22.892  0.00  0.00    +0.214 A 
ATOM      4  N   UNL     1      10.269  -1.374  22.483  0.00  0.00    -0.327 N 
ATOM      5  H   UNL     1      11.150  -1.851  22.620  0.00  0.00    +0.145 HD
ATOM      6  H   UNL     1      10.077  -1.009  21.561  0.00  0.00    +0.145 HD
ATOM      7  N   UNL     1       8.034  -1.981  22.372  0.00  0.00    -0.199 NA
ATOM      8  C   UNL     1       7.032  -2.758  22.821  0.00  0.00    +0.129 A 
ATOM      9  N   UNL     1       5.814  -2.433  22.204  0.00  0.00    -0.343 N 
ATOM     10  H   UNL     1       6.005  -1.652  21.587  0.00  0.00    +0.144 HD
ATOM     11  H   UNL     1       5.108  -2.216  22.893  0.00  0.00    +0.144 HD
ATOM     12  C   UNL     1       7.168  -3.785  23.772  0.00  0.00    +0.043 A 
ENDROOT
BRANCH  12  13
ATOM     13  C   UNL     1       6.017  -4.616  24.257  0.00  0.00    -0.013 A 
ATOM     14  C   UNL     1       5.637  -5.817  23.625  0.00  0.00    +0.010 A 
ATOM     15  C   UNL     1       4.618  -6.641  24.126  0.00  0.00    +0.020 A 
ATOM     16  C   UNL     1       3.980  -6.309  25.313  0.00  0.00    +0.041 A 
ATOM     17 CL   UNL     1       2.808  -7.365  25.992  0.00  0.00    -0.084 Cl
ATOM     18  C   UNL     1       4.297  -5.119  25.952  0.00  0.00    +0.020 A 
ATOM     19  C   UNL     1       5.264  -4.266  25.398  0.00  0.00    +0.010 A 
ENDBRANCH  12  13
BRANCH   1  21
ATOM     20  C   UNL     1       8.897  -4.747  26.576  0.00  0.00    +0.010 C 
ATOM     21  C   UNL     1       9.011  -5.054  25.089  0.00  0.00    +0.053 C 
ENDBRANCH   1  21
TORSDOF 2
ENDMDL
