MODEL 1
REMARK VINA RESULT:      -6.3      0.000      0.000
REMARK  Name = 
REMARK  6 active torsions:
REMARK  status: ('A' for Active; 'I' for Inactive)
REMARK    1  A    between atoms: C_1  and  C_2
REMARK    2  A    between atoms: C_5  and  C_8
REMARK    3  A    between atoms: N_10  and  C_18
REMARK    4  A    between atoms: C_18  and  C_19
REMARK    5  A    between atoms: C_18  and  C_20
REMARK    6  A    between atoms: C_18  and  C_21
REMARK                            x       y       z     vdW  Elec       q    Type
REMARK                         _______ _______ _______ _____ _____    ______ ____
ROOT
ATOM      1  C   UNL     1       8.004  -2.186  23.801  0.00  0.00    +0.105 A 
ATOM      2  C   UNL     1       7.877  -3.045  24.940  0.00  0.00    +0.086 A 
ATOM      3  C   UNL     1       8.201  -3.062  26.308  0.00  0.00    +0.131 A 
ATOM      4  N   UNL     1       7.920  -4.164  27.034  0.00  0.00    -0.220 NA
ATOM      5  C   UNL     1       7.311  -5.198  26.431  0.00  0.00    +0.225 A 
ATOM      6  N   UNL     1       6.914  -5.281  25.157  0.00  0.00    -0.216 NA
ATOM      7  N   UNL     1       8.768  -2.015  27.022  0.00  0.00    -0.342 N 
ATOM      8  H   UNL     1       8.708  -2.219  28.014  0.00  0.00    +0.144 HD
ATOM      9  H   UNL     1       8.407  -1.104  26.757  0.00  0.00    +0.144 HD
ATOM     10  C   UNL     1       7.228  -4.174  24.461  0.00  0.00    +0.164 A 
ATOM     11  N   UNL     1       6.963  -3.940  23.135  0.00  0.00    -0.240 N 
ATOM     12  N   UNL     1       7.412  -2.736  22.724  0.00  0.00    -0.168 NA
ENDROOT
BRANCH   1  17
ATOM     13  C   UNL     1      10.655   2.955  23.266  0.00  0.00    +0.044 C 
ATOM     14  C   UNL     1       9.958   1.637  23.432  0.00  0.00    -0.050 A 
ATOM     15  C   UNL     1       8.602   1.505  23.115  0.00  0.00    +0.004 A 
ATOM     16  C   UNL     1       7.951   0.271  23.249  0.00  0.00    +0.010 A 
ATOM     17  C   UNL     1       8.650  -0.870  23.655  0.00  0.00    +0.003 A 
ATOM     18  C   UNL     1      10.010  -0.725  23.980  0.00  0.00    +0.010 A 
ATOM     19  C   UNL     1      10.658   0.511  23.870  0.00  0.00    +0.004 A 
ENDBRANCH   1  17
BRANCH  11  20
ATOM     20  C   UNL     1       6.289  -4.843  22.181  0.00  0.00    +0.058 C 
ATOM     21  C   UNL     1       7.178  -6.066  21.874  0.00  0.00    +0.036 C 
ATOM     22  C   UNL     1       5.969  -4.093  20.875  0.00  0.00    +0.036 C 
ATOM     23  C   UNL     1       4.952  -5.379  22.749  0.00  0.00    +0.036 C 
ENDBRANCH  11  20
TORSDOF 2
ENDMDL
MODEL 2
REMARK VINA RESULT:      -6.2      2.805      6.623
REMARK  Name = 
REMARK  6 active torsions:
REMARK  status: ('A' for Active; 'I' for Inactive)
REMARK    1  A    between atoms: C_1  and  C_2
REMARK    2  A    between atoms: C_5  and  C_8
REMARK    3  A    between atoms: N_10  and  C_18
REMARK    4  A    between atoms: C_18  and  C_19
REMARK    5  A    between atoms: C_18  and  C_20
REMARK    6  A    between atoms: C_18  and  C_21
REMARK                            x       y       z     vdW  Elec       q    Type
REMARK                         _______ _______ _______ _____ _____    ______ ____
ROOT
ATOM      1  C   UNL     1       7.272  -0.810  23.384  0.00  0.00    +0.105 A 
ATOM      2  C   UNL     1       8.249   0.135  22.931  0.00  0.00    +0.086 A 
ATOM      3  C   UNL     1       9.344   0.203  22.052  0.00  0.00    +0.131 A 
ATOM      4  N   UNL     1      10.050   1.350  21.972  0.00  0.00    -0.220 NA
ATOM      5  C   UNL     1       9.663   2.401  22.714  0.00  0.00    +0.225 A 
ATOM      6  N   UNL     1       8.618   2.472  23.545  0.00  0.00    -0.216 NA
ATOM      7  N   UNL     1       9.769  -0.811  21.204  0.00  0.00    -0.342 N 
ATOM      8  H   UNL     1      10.442  -0.432  20.546  0.00  0.00    +0.144 HD
ATOM      9  H   UNL     1       9.006  -1.325  20.776  0.00  0.00    +0.144 HD
ATOM     10  C   UNL     1       7.951   1.307  23.613  0.00  0.00    +0.164 A 
ATOM     11  N   UNL     1       6.838   1.045  24.372  0.00  0.00    -0.240 N 
ATOM     12  N   UNL     1       6.405  -0.225  24.233  0.00  0.00    -0.168 NA
ENDROOT
BRANCH   1  17
ATOM     13  C   UNL     1       6.476  -6.414  22.084  0.00  0.00    +0.044 C 
ATOM     14  C   UNL     1       6.669  -4.973  22.448  0.00  0.00    -0.050 A 
ATOM     15  C   UNL     1       7.761  -4.576  23.227  0.00  0.00    +0.004 A 
ATOM     16  C   UNL     1       7.957  -3.227  23.554  0.00  0.00    +0.010 A 
ATOM     17  C   UNL     1       7.096  -2.238  23.069  0.00  0.00    +0.003 A 
ATOM     18  C   UNL     1       5.996  -2.647  22.296  0.00  0.00    +0.010 A 
ATOM     19  C   UNL     1       5.783  -3.995  21.987  0.00  0.00    +0.004 A 
ENDBRANCH   1  17
BRANCH  11  20
ATOM     20  C   UNL     1       6.133   1.971  25.280  0.00  0.00    +0.058 C 
ATOM     21  C   UNL     1       5.579   3.180  24.497  0.00  0.00    +0.036 C 
ATOM     22  C   UNL     1       7.088   2.461  26.384  0.00  0.00    +0.036 C 
ATOM     23  C   UNL     1       4.932   1.286  25.976  0.00  0.00    +0.036 C 
ENDBRANCH  11  20
TORSDOF 2
ENDMDL
MODEL 3
REMARK VINA RESULT:      -5.9      2.603      6.459
REMARK  Name = 
REMARK  6 active torsions:
REMARK  status: ('A' for Active; 'I' for Inactive)
REMARK    1  A    between atoms: C_1  and  C_2
REMARK    2  A    between atoms: C_5  and  C_8
REMARK    3  A    between atoms: N_10  and  C_18
REMARK    4  A    between atoms: C_18  and  C_19
REMARK    5  A    between atoms: C_18  and  C_20
REMARK    6  A    between atoms: C_18  and  C_21
REMARK                            x       y       z     vdW  Elec       q    Type
REMARK                         _______ _______ _______ _____ _____    ______ ____
ROOT
ATOM      1  C   UNL     1       7.161  -0.525  23.351  0.00  0.00    +0.105 A 
ATOM      2  C   UNL     1       8.515  -0.174  23.659  0.00  0.00    +0.086 A 
ATOM      3  C   UNL     1       9.752  -0.796  23.900  0.00  0.00    +0.131 A 
ATOM      4  N   UNL     1      10.818  -0.033  24.219  0.00  0.00    -0.220 NA
ATOM      5  C   UNL     1      10.668   1.301  24.264  0.00  0.00    +0.225 A 
ATOM      6  N   UNL     1       9.561   2.007  24.010  0.00  0.00    -0.216 NA
ATOM      7  N   UNL     1      10.009  -2.158  23.809  0.00  0.00    -0.342 N 
ATOM      8  H   UNL     1      11.012  -2.308  23.834  0.00  0.00    +0.144 HD
ATOM      9  H   UNL     1       9.536  -2.606  23.031  0.00  0.00    +0.144 HD
ATOM     10  C   UNL     1       8.517   1.212  23.716  0.00  0.00    +0.164 A 
ATOM     11  N   UNL     1       7.242   1.618  23.410  0.00  0.00    -0.240 N 
ATOM     12  N   UNL     1       6.414   0.581  23.170  0.00  0.00    -0.168 NA
ENDROOT
BRANCH   1  17
ATOM     13  C   UNL     1       4.552  -5.695  22.904  0.00  0.00    +0.044 C 
ATOM     14  C   UNL     1       5.251  -4.375  23.033  0.00  0.00    -0.050 A 
ATOM     15  C   UNL     1       6.226  -3.993  22.105  0.00  0.00    +0.004 A 
ATOM     16  C   UNL     1       6.868  -2.751  22.210  0.00  0.00    +0.010 A 
ATOM     17  C   UNL     1       6.515  -1.842  23.212  0.00  0.00    +0.003 A 
ATOM     18  C   UNL     1       5.541  -2.239  24.144  0.00  0.00    +0.010 A 
ATOM     19  C   UNL     1       4.915  -3.487  24.058  0.00  0.00    +0.004 A 
ENDBRANCH   1  17
BRANCH  11  20
ATOM     20  C   UNL     1       6.733   3.002  23.342  0.00  0.00    +0.058 C 
ATOM     21  C   UNL     1       6.881   3.701  24.710  0.00  0.00    +0.036 C 
ATOM     22  C   UNL     1       5.253   3.003  22.917  0.00  0.00    +0.036 C 
ATOM     23  C   UNL     1       7.513   3.849  22.307  0.00  0.00    +0.036 C 
ENDBRANCH  11  20
TORSDOF 2
ENDMDL
MODEL 4
REMARK VINA RESULT:      -5.9      2.795      5.018
REMARK  Name = 
REMARK  6 active torsions:
REMARK  status: ('A' for Active; 'I' for Inactive)
REMARK    1  A    between atoms: C_1  and  C_2
REMARK    2  A    between atoms: C_5  and  C_8
REMARK    3  A    between atoms: N_10  and  C_18
REMARK    4  A    between atoms: C_18  and  C_19
REMARK    5  A    between atoms: C_18  and  C_20
REMARK    6  A    between atoms: C_18  and  C_21
REMARK                            x       y       z     vdW  Elec       q    Type
REMARK                         _______ _______ _______ _____ _____    ______ ____
ROOT
ATOM      1  C   UNL     1       8.536   1.416  24.433  0.00  0.00    +0.105 A 
ATOM      2  C   UNL     1       8.875   0.616  23.294  0.00  0.00    +0.086 A 
ATOM      3  C   UNL     1       9.483   0.754  22.034  0.00  0.00    +0.131 A 
ATOM      4  N   UNL     1       9.551  -0.319  21.219  0.00  0.00    -0.220 NA
ATOM      5  C   UNL     1       9.063  -1.492  21.651  0.00  0.00    +0.225 A 
ATOM      6  N   UNL     1       8.508  -1.757  22.839  0.00  0.00    -0.216 NA
ATOM      7  N   UNL     1      10.070   1.910  21.537  0.00  0.00    -0.342 N 
ATOM      8  H   UNL     1      10.602   1.680  20.705  0.00  0.00    +0.144 HD
ATOM      9  H   UNL     1      10.588   2.432  22.236  0.00  0.00    +0.144 HD
ATOM     10  C   UNL     1       8.440  -0.661  23.616  0.00  0.00    +0.164 A 
ATOM     11  N   UNL     1       7.927  -0.591  24.887  0.00  0.00    -0.240 N 
ATOM     12  N   UNL     1       7.992   0.654  25.402  0.00  0.00    -0.168 NA
ENDROOT
BRANCH   1  17
ATOM     13  C   UNL     1       9.052   7.108  25.468  0.00  0.00    +0.044 C 
ATOM     14  C   UNL     1       8.903   5.645  25.173  0.00  0.00    -0.050 A 
ATOM     15  C   UNL     1       9.761   5.011  24.268  0.00  0.00    +0.004 A 
ATOM     16  C   UNL     1       9.638   3.639  24.005  0.00  0.00    +0.010 A 
ATOM     17  C   UNL     1       8.691   2.860  24.676  0.00  0.00    +0.003 A 
ATOM     18  C   UNL     1       7.828   3.509  25.576  0.00  0.00    +0.010 A 
ATOM     19  C   UNL     1       7.931   4.882  25.824  0.00  0.00    +0.004 A 
ENDBRANCH   1  17
BRANCH  11  20
ATOM     20  C   UNL     1       7.334  -1.688  25.677  0.00  0.00    +0.058 C 
ATOM     21  C   UNL     1       8.410  -2.728  26.053  0.00  0.00    +0.036 C 
ATOM     22  C   UNL     1       6.210  -2.371  24.876  0.00  0.00    +0.036 C 
ATOM     23  C   UNL     1       6.714  -1.171  26.998  0.00  0.00    +0.036 C 
ENDBRANCH  11  20
TORSDOF 2
ENDMDL
MODEL 5
REMARK VINA RESULT:      -5.9      2.225      3.146
REMARK  Name = 
REMARK  6 active torsions:
REMARK  status: ('A' for Active; 'I' for Inactive)
REMARK    1  A    between atoms: C_1  and  C_2
REMARK    2  A    between atoms: C_5  and  C_8
REMARK    3  A    between atoms: N_10  and  C_18
REMARK    4  A    between atoms: C_18  and  C_19
REMARK    5  A    between atoms: C_18  and  C_20
REMARK    6  A    between atoms: C_18  and  C_21
REMARK                            x       y       z     vdW  Elec       q    Type
REMARK                         _______ _______ _______ _____ _____    ______ ____
ROOT
ATOM      1  C   UNL     1       6.282  -3.827  24.508  0.00  0.00    +0.105 A 
ATOM      2  C   UNL     1       6.603  -4.570  25.690  0.00  0.00    +0.086 A 
ATOM      3  C   UNL     1       7.632  -4.670  26.644  0.00  0.00    +0.131 A 
ATOM      4  N   UNL     1       7.533  -5.596  27.619  0.00  0.00    -0.220 NA
ATOM      5  C   UNL     1       6.439  -6.374  27.665  0.00  0.00    +0.225 A 
ATOM      6  N   UNL     1       5.381  -6.341  26.848  0.00  0.00    -0.216 NA
ATOM      7  N   UNL     1       8.761  -3.863  26.708  0.00  0.00    -0.342 N 
ATOM      8  H   UNL     1       9.226  -4.016  27.597  0.00  0.00    +0.144 HD
ATOM      9  H   UNL     1       8.574  -2.890  26.493  0.00  0.00    +0.144 HD
ATOM     10  C   UNL     1       5.523  -5.420  25.879  0.00  0.00    +0.164 A 
ATOM     11  N   UNL     1       4.623  -5.136  24.883  0.00  0.00    -0.240 N 
ATOM     12  N   UNL     1       5.059  -4.164  24.055  0.00  0.00    -0.168 NA
ENDROOT
BRANCH   1  17
ATOM     13  C   UNL     1       9.230   0.254  21.612  0.00  0.00    +0.044 C 
ATOM     14  C   UNL     1       8.459  -0.812  22.332  0.00  0.00    -0.050 A 
ATOM     15  C   UNL     1       8.991  -2.098  22.478  0.00  0.00    +0.004 A 
ATOM     16  C   UNL     1       8.283  -3.093  23.168  0.00  0.00    +0.010 A 
ATOM     17  C   UNL     1       7.052  -2.812  23.769  0.00  0.00    +0.003 A 
ATOM     18  C   UNL     1       6.523  -1.521  23.609  0.00  0.00    +0.010 A 
ATOM     19  C   UNL     1       7.215  -0.532  22.901  0.00  0.00    +0.004 A 
ENDBRANCH   1  17
BRANCH  11  20
ATOM     20  C   UNL     1       3.313  -5.775  24.648  0.00  0.00    +0.058 C 
ATOM     21  C   UNL     1       3.473  -7.304  24.515  0.00  0.00    +0.036 C 
ATOM     22  C   UNL     1       2.667  -5.207  23.371  0.00  0.00    +0.036 C 
ATOM     23  C   UNL     1       2.333  -5.516  25.818  0.00  0.00    +0.036 C 
ENDBRANCH  11  20
TORSDOF 2
ENDMDL
MODEL 6
REMARK VINA RESULT:      -5.9      2.268      6.064
REMARK  Name = 
REMARK  6 active torsions:
REMARK  status: ('A' for Active; 'I' for Inactive)
REMARK    1  A    between atoms: C_1  and  C_2
REMARK    2  A    between atoms: C_5  and  C_8
REMARK    3  A    between atoms: N_10  and  C_18
REMARK    4  A    between atoms: C_18  and  C_19
REMARK    5  A    between atoms: C_18  and  C_20
REMARK    6  A    between atoms: C_18  and  C_21
REMARK                            x       y       z     vdW  Elec       q    Type
REMARK                         _______ _______ _______ _____ _____    ______ ____
ROOT
ATOM      1  C   UNL     1       7.629  -1.057  23.849  0.00  0.00    +0.105 A 
ATOM      2  C   UNL     1       7.301  -0.400  25.079  0.00  0.00    +0.086 A 
ATOM      3  C   UNL     1       6.696  -0.685  26.316  0.00  0.00    +0.131 A 
ATOM      4  N   UNL     1       6.544   0.308  27.216  0.00  0.00    -0.220 NA
ATOM      5  C   UNL     1       7.004   1.532  26.912  0.00  0.00    +0.225 A 
ATOM      6  N   UNL     1       7.634   1.913  25.795  0.00  0.00    -0.216 NA
ATOM      7  N   UNL     1       6.254  -1.933  26.735  0.00  0.00    -0.342 N 
ATOM      8  H   UNL     1       6.049  -1.896  27.728  0.00  0.00    +0.144 HD
ATOM      9  H   UNL     1       6.869  -2.692  26.461  0.00  0.00    +0.144 HD
ATOM     10  C   UNL     1       7.750   0.903  24.916  0.00  0.00    +0.164 A 
ATOM     11  N   UNL     1       8.342   0.960  23.678  0.00  0.00    -0.240 N 
ATOM     12  N   UNL     1       8.291  -0.220  23.027  0.00  0.00    -0.168 NA
ENDROOT
BRANCH   1  17
ATOM     13  C   UNL     1       6.482  -6.432  21.971  0.00  0.00    +0.044 C 
ATOM     14  C   UNL     1       6.762  -5.050  22.483  0.00  0.00    -0.050 A 
ATOM     15  C   UNL     1       7.783  -4.830  23.413  0.00  0.00    +0.004 A 
ATOM     16  C   UNL     1       8.062  -3.537  23.880  0.00  0.00    +0.010 A 
ATOM     17  C   UNL     1       7.361  -2.431  23.390  0.00  0.00    +0.003 A 
ATOM     18  C   UNL     1       6.331  -2.663  22.463  0.00  0.00    +0.010 A 
ATOM     19  C   UNL     1       6.034  -3.955  22.013  0.00  0.00    +0.004 A 
ENDBRANCH   1  17
BRANCH  11  20
ATOM     20  C   UNL     1       8.970   2.132  23.038  0.00  0.00    +0.058 C 
ATOM     21  C   UNL     1       9.862   2.886  24.046  0.00  0.00    +0.036 C 
ATOM     22  C   UNL     1       7.888   3.081  22.490  0.00  0.00    +0.036 C 
ATOM     23  C   UNL     1       9.870   1.719  21.847  0.00  0.00    +0.036 C 
ENDBRANCH  11  20
TORSDOF 2
ENDMDL
MODEL 7
REMARK VINA RESULT:      -5.7      2.465      6.089
REMARK  Name = 
REMARK  6 active torsions:
REMARK  status: ('A' for Active; 'I' for Inactive)
REMARK    1  A    between atoms: C_1  and  C_2
REMARK    2  A    between atoms: C_5  and  C_8
REMARK    3  A    between atoms: N_10  and  C_18
REMARK    4  A    between atoms: C_18  and  C_19
REMARK    5  A    between atoms: C_18  and  C_20
REMARK    6  A    between atoms: C_18  and  C_21
REMARK                            x       y       z     vdW  Elec       q    Type
REMARK                         _______ _______ _______ _____ _____    ______ ____
ROOT
ATOM      1  C   UNL     1       6.560  -1.665  23.900  0.00  0.00    +0.105 A 
ATOM      2  C   UNL     1       7.936  -2.041  23.771  0.00  0.00    +0.086 A 
ATOM      3  C   UNL     1       8.755  -3.172  23.934  0.00  0.00    +0.131 A 
ATOM      4  N   UNL     1      10.084  -3.052  23.737  0.00  0.00    -0.220 NA
ATOM      5  C   UNL     1      10.578  -1.862  23.361  0.00  0.00    +0.225 A 
ATOM      6  N   UNL     1       9.898  -0.733  23.130  0.00  0.00    -0.216 NA
ATOM      7  N   UNL     1       8.319  -4.451  24.254  0.00  0.00    -0.342 N 
ATOM      8  H   UNL     1       9.080  -5.106  24.111  0.00  0.00    +0.144 HD
ATOM      9  H   UNL     1       7.451  -4.709  23.795  0.00  0.00    +0.144 HD
ATOM     10  C   UNL     1       8.581  -0.886  23.355  0.00  0.00    +0.164 A 
ATOM     11  N   UNL     1       7.611   0.075  23.213  0.00  0.00    -0.240 N 
ATOM     12  N   UNL     1       6.382  -0.384  23.523  0.00  0.00    -0.168 NA
ENDROOT
BRANCH   1  17
ATOM     13  C   UNL     1       1.943  -4.631  25.803  0.00  0.00    +0.044 C 
ATOM     14  C   UNL     1       3.154  -3.889  25.322  0.00  0.00    -0.050 A 
ATOM     15  C   UNL     1       3.759  -4.227  24.107  0.00  0.00    +0.004 A 
ATOM     16  C   UNL     1       4.879  -3.522  23.643  0.00  0.00    +0.010 A 
ATOM     17  C   UNL     1       5.390  -2.434  24.357  0.00  0.00    +0.003 A 
ATOM     18  C   UNL     1       4.781  -2.109  25.582  0.00  0.00    +0.010 A 
ATOM     19  C   UNL     1       3.677  -2.825  26.060  0.00  0.00    +0.004 A 
ENDBRANCH   1  17
BRANCH  11  20
ATOM     20  C   UNL     1       7.793   1.479  22.795  0.00  0.00    +0.058 C 
ATOM     21  C   UNL     1       8.602   2.259  23.852  0.00  0.00    +0.036 C 
ATOM     22  C   UNL     1       6.424   2.152  22.588  0.00  0.00    +0.036 C 
ATOM     23  C   UNL     1       8.567   1.581  21.458  0.00  0.00    +0.036 C 
ENDBRANCH  11  20
TORSDOF 2
ENDMDL
MODEL 8
REMARK VINA RESULT:      -5.7      2.537      6.705
REMARK  Name = 
REMARK  6 active torsions:
REMARK  status: ('A' for Active; 'I' for Inactive)
REMARK    1  A    between atoms: C_1  and  C_2
REMARK    2  A    between atoms: C_5  and  C_8
REMARK    3  A    between atoms: N_10  and  C_18
REMARK    4  A    between atoms: C_18  and  C_19
REMARK    5  A    between atoms: C_18  and  C_20
REMARK    6  A    between atoms: C_18  and  C_21
REMARK                            x       y       z     vdW  Elec       q    Type
REMARK                         _______ _______ _______ _____ _____    ______ ____
ROOT
ATOM      1  C   UNL     1       6.134  -4.515  25.528  0.00  0.00    +0.105 A 
ATOM      2  C   UNL     1       6.187  -4.970  24.171  0.00  0.00    +0.086 A 
ATOM      3  C   UNL     1       5.626  -5.967  23.355  0.00  0.00    +0.131 A 
ATOM      4  N   UNL     1       6.023  -6.063  22.069  0.00  0.00    -0.220 NA
ATOM      5  C   UNL     1       6.921  -5.180  21.603  0.00  0.00    +0.225 A 
ATOM      6  N   UNL     1       7.488  -4.165  22.265  0.00  0.00    -0.216 NA
ATOM      7  N   UNL     1       4.646  -6.874  23.738  0.00  0.00    -0.342 N 
ATOM      8  H   UNL     1       4.284  -7.339  22.911  0.00  0.00    +0.144 HD
ATOM      9  H   UNL     1       3.935  -6.471  24.339  0.00  0.00    +0.144 HD
ATOM     10  C   UNL     1       7.083  -4.114  23.546  0.00  0.00    +0.164 A 
ATOM     11  N   UNL     1       7.474  -3.199  24.491  0.00  0.00    -0.240 N 
ATOM     12  N   UNL     1       6.897  -3.417  25.690  0.00  0.00    -0.168 NA
ENDROOT
BRANCH   1  17
ATOM     13  C   UNL     1       3.322  -6.715  30.110  0.00  0.00    +0.044 C 
ATOM     14  C   UNL     1       4.022  -6.153  28.909  0.00  0.00    -0.050 A 
ATOM     15  C   UNL     1       3.764  -4.846  28.483  0.00  0.00    +0.004 A 
ATOM     16  C   UNL     1       4.431  -4.309  27.372  0.00  0.00    +0.010 A 
ATOM     17  C   UNL     1       5.406  -5.046  26.694  0.00  0.00    +0.003 A 
ATOM     18  C   UNL     1       5.651  -6.362  27.124  0.00  0.00    +0.010 A 
ATOM     19  C   UNL     1       4.971  -6.910  28.217  0.00  0.00    +0.004 A 
ENDBRANCH   1  17
BRANCH  11  20
ATOM     20  C   UNL     1       8.423  -2.082  24.319  0.00  0.00    +0.058 C 
ATOM     21  C   UNL     1       9.805  -2.608  23.880  0.00  0.00    +0.036 C 
ATOM     22  C   UNL     1       8.561  -1.296  25.636  0.00  0.00    +0.036 C 
ATOM     23  C   UNL     1       7.945  -1.087  23.233  0.00  0.00    +0.036 C 
ENDBRANCH  11  20
TORSDOF 2
ENDMDL
MODEL 9
REMARK VINA RESULT:      -5.7      3.216      5.072
REMARK  Name = 
REMARK  6 active torsions:
REMARK  status: ('A' for Active; 'I' for Inactive)
REMARK    1  A    between atoms: C_1  and  C_2
REMARK    2  A    between atoms: C_5  and  C_8
REMARK    3  A    between atoms: N_10  and  C_18
REMARK    4  A    between atoms: C_18  and  C_19
REMARK    5  A    between atoms: C_18  and  C_20
REMARK    6  A    between atoms: C_18  and  C_21
REMARK                            x       y       z     vdW  Elec       q    Type
REMARK                         _______ _______ _______ _____ _____    ______ ____
ROOT
ATOM      1  C   UNL     1       6.913   1.210  23.402  0.00  0.00    +0.105 A 
ATOM      2  C   UNL     1       7.975   0.502  22.750  0.00  0.00    +0.086 A 
ATOM      3  C   UNL     1       9.070   0.758  21.906  0.00  0.00    +0.131 A 
ATOM      4  N   UNL     1       9.818  -0.278  21.472  0.00  0.00    -0.220 NA
ATOM      5  C   UNL     1       9.510  -1.517  21.886  0.00  0.00    +0.225 A 
ATOM      6  N   UNL     1       8.527  -1.878  22.720  0.00  0.00    -0.216 NA
ATOM      7  N   UNL     1       9.497   2.010  21.486  0.00  0.00    -0.342 N 
ATOM      8  H   UNL     1      10.413   1.922  21.060  0.00  0.00    +0.144 HD
ATOM      9  H   UNL     1       9.436   2.721  22.208  0.00  0.00    +0.144 HD
ATOM     10  C   UNL     1       7.793  -0.824  23.115  0.00  0.00    +0.164 A 
ATOM     11  N   UNL     1       6.715  -0.852  23.965  0.00  0.00    -0.240 N 
ATOM     12  N   UNL     1       6.182   0.372  24.161  0.00  0.00    -0.168 NA
ENDROOT
BRANCH   1  17
ATOM     13  C   UNL     1       5.333   6.794  23.171  0.00  0.00    +0.044 C 
ATOM     14  C   UNL     1       5.762   5.358  23.206  0.00  0.00    -0.050 A 
ATOM     15  C   UNL     1       6.935   4.982  23.870  0.00  0.00    +0.004 A 
ATOM     16  C   UNL     1       7.330   3.638  23.923  0.00  0.00    +0.010 A 
ATOM     17  C   UNL     1       6.537   2.633  23.360  0.00  0.00    +0.003 A 
ATOM     18  C   UNL     1       5.365   3.022  22.688  0.00  0.00    +0.010 A 
ATOM     19  C   UNL     1       4.980   4.365  22.611  0.00  0.00    +0.004 A 
ENDBRANCH   1  17
BRANCH  11  20
ATOM     20  C   UNL     1       6.121  -2.032  24.623  0.00  0.00    +0.058 C 
ATOM     21  C   UNL     1       5.524  -2.993  23.573  0.00  0.00    +0.036 C 
ATOM     22  C   UNL     1       5.023  -1.593  25.609  0.00  0.00    +0.036 C 
ATOM     23  C   UNL     1       7.176  -2.829  25.428  0.00  0.00    +0.036 C 
ENDBRANCH  11  20
TORSDOF 2
ENDMDL
