MODEL 1
REMARK VINA RESULT:      -6.9      0.000      0.000
REMARK  Name = 
REMARK  16 active torsions:
REMARK  status: ('A' for Active; 'I' for Inactive)
REMARK    1  A    between atoms: C_1  and  C_2
REMARK    2  A    between atoms: C_2  and  C_3
REMARK    3  A    between atoms: C_2  and  C_4
REMARK    4  A    between atoms: C_5  and  C_30
REMARK    5  A    between atoms: C_9  and  C_11
REMARK    6  A    between atoms: C_13  and  N_14
REMARK    7  A    between atoms: C_15  and  C_17
REMARK    8  A    between atoms: C_19  and  N_20
REMARK    9  A    between atoms: N_24  and  C_25
REMARK   10  A    between atoms: N_27  and  C_28
REMARK   11  A    between atoms: N_32  and  C_33
REMARK   12  A    between atoms: C_33  and  C_34
REMARK   13  A    between atoms: C_34  and  C_35
REMARK   14  A    between atoms: C_35  and  N_36
REMARK   15  A    between atoms: N_36  and  C_37
REMARK   16  A    between atoms: N_36  and  C_38
REMARK                            x       y       z     vdW  Elec       q    Type
REMARK                         _______ _______ _______ _____ _____    ______ ____
ROOT
ATOM      1  C   UNL     1       5.416   4.920  22.940  0.00  0.00    +0.026 A 
ATOM      2  S   UNL     1       4.799   3.315  22.675  0.00  0.00    -0.056 S 
ATOM      3  C   UNL     1       6.370   2.696  22.687  0.00  0.00    +0.166 A 
ATOM      4  N   UNL     1       6.397   1.331  22.678  0.00  0.00    -0.259 N 
ATOM      5  H   UNL     1       5.504   0.872  22.715  0.00  0.00    +0.157 HD
ATOM      6  C   UNL     1       7.562   0.607  22.678  0.00  0.00    +0.266 C 
ATOM      7  O   UNL     1       8.681   1.102  22.600  0.00  0.00    -0.268 OA
ATOM      8  N   UNL     1       7.336   3.569  22.732  0.00  0.00    -0.220 NA
ATOM      9  C   UNL     1       6.817   4.879  22.866  0.00  0.00    +0.138 A 
ENDROOT
BRANCH   6  10
ATOM     10  C   UNL     1       7.362  -0.842  22.772  0.00  0.00    +0.106 A 
ATOM     11  N   UNL     1       8.366  -1.775  22.566  0.00  0.00    -0.344 N 
ATOM     12  C   UNL     1       9.740  -1.475  22.212  0.00  0.00    +0.149 C 
ATOM     13  C   UNL     1       7.884  -3.047  22.747  0.00  0.00    +0.109 A 
ATOM     14  C   UNL     1       6.553  -2.963  23.079  0.00  0.00    +0.052 A 
ATOM     15  C   UNL     1       6.223  -1.585  23.088  0.00  0.00    +0.055 A 
BRANCH  14  16
ATOM     16  N   UNL     1       5.784  -4.082  23.346  0.00  0.00    -0.279 N 
ATOM     17  H   UNL     1       6.141  -4.945  22.969  0.00  0.00    +0.155 HD
ATOM     18  C   UNL     1       4.610  -4.110  24.087  0.00  0.00    +0.265 C 
ATOM     19  O   UNL     1       4.092  -3.111  24.573  0.00  0.00    -0.268 OA
BRANCH  18  20
ATOM     20  C   UNL     1       4.027  -5.447  24.237  0.00  0.00    +0.106 A 
ATOM     21  N   UNL     1       4.373  -6.359  25.225  0.00  0.00    -0.344 N 
ATOM     22  C   UNL     1       5.351  -6.158  26.276  0.00  0.00    +0.149 C 
ATOM     23  C   UNL     1       3.648  -7.518  25.082  0.00  0.00    +0.109 A 
ATOM     24  C   UNL     1       2.816  -7.374  23.999  0.00  0.00    +0.052 A 
ATOM     25  C   UNL     1       3.049  -6.083  23.474  0.00  0.00    +0.055 A 
BRANCH  24  26
ATOM     26  N   UNL     1       1.949  -8.354  23.574  0.00  0.00    -0.287 N 
ATOM     27  H   UNL     1       1.860  -9.200  24.122  0.00  0.00    +0.155 HD
ATOM     28  C   UNL     1       1.194  -8.296  22.437  0.00  0.00    +0.330 C 
ATOM     29  O   UNL     1       0.443  -9.198  22.082  0.00  0.00    -0.279 OA
ENDBRANCH  24  26
ENDBRANCH  18  20
ENDBRANCH  14  16
ENDBRANCH   6  10
BRANCH   9  30
ATOM     30  C   UNL     1       7.794   5.993  22.961  0.00  0.00    +0.263 C 
ATOM     31  N   UNL     1       8.433   6.027  24.191  0.00  0.00    -0.310 N 
ATOM     32  H   UNL     1       8.141   5.314  24.857  0.00  0.00    +0.149 HD
ATOM     33  O   UNL     1       8.024   6.779  22.052  0.00  0.00    -0.269 OA
BRANCH  31  34
ATOM     34  C   UNL     1       9.483   6.950  24.589  0.00  0.00    +0.106 C 
BRANCH  34  35
ATOM     35  C   UNL     1      10.694   6.275  25.234  0.00  0.00    +0.034 C 
BRANCH  35  36
ATOM     36  C   UNL     1      11.971   6.281  24.378  0.00  0.00    +0.085 C 
BRANCH  36  37
ATOM     37  N   UNL     1      11.911   5.522  23.114  0.00  0.00    -0.308 NA
ATOM     38  C   UNL     1      11.584   4.119  23.402  0.00  0.00    +0.104 C 
ATOM     39  C   UNL     1      13.167   5.579  22.363  0.00  0.00    +0.104 C 
ENDBRANCH  36  37
ENDBRANCH  35  36
ENDBRANCH  34  35
ENDBRANCH  31  34
ENDBRANCH   9  30
BRANCH   1  41
ATOM     40  C   UNL     1       4.620   6.631  24.610  0.00  0.00    +0.013 C 
ATOM     41  C   UNL     1       4.364   5.961  23.263  0.00  0.00    +0.022 C 
ATOM     42  C   UNL     1       4.060   6.965  22.161  0.00  0.00    +0.013 C 
ENDBRANCH   1  41
TORSDOF 10
ENDMDL
MODEL 2
REMARK VINA RESULT:      -6.5      2.482      3.240
REMARK  Name = 
REMARK  16 active torsions:
REMARK  status: ('A' for Active; 'I' for Inactive)
REMARK    1  A    between atoms: C_1  and  C_2
REMARK    2  A    between atoms: C_2  and  C_3
REMARK    3  A    between atoms: C_2  and  C_4
REMARK    4  A    between atoms: C_5  and  C_30
REMARK    5  A    between atoms: C_9  and  C_11
REMARK    6  A    between atoms: C_13  and  N_14
REMARK    7  A    between atoms: C_15  and  C_17
REMARK    8  A    between atoms: C_19  and  N_20
REMARK    9  A    between atoms: N_24  and  C_25
REMARK   10  A    between atoms: N_27  and  C_28
REMARK   11  A    between atoms: N_32  and  C_33
REMARK   12  A    between atoms: C_33  and  C_34
REMARK   13  A    between atoms: C_34  and  C_35
REMARK   14  A    between atoms: C_35  and  N_36
REMARK   15  A    between atoms: N_36  and  C_37
REMARK   16  A    between atoms: N_36  and  C_38
REMARK                            x       y       z     vdW  Elec       q    Type
REMARK                         _______ _______ _______ _____ _____    ______ ____
ROOT
ATOM      1  C   UNL     1       7.220   4.354  22.901  0.00  0.00    +0.026 A 
ATOM      2  S   UNL     1       6.651   2.802  22.358  0.00  0.00    -0.056 S 
ATOM      3  C   UNL     1       7.618   2.032  23.509  0.00  0.00    +0.166 A 
ATOM      4  N   UNL     1       7.370   0.692  23.590  0.00  0.00    -0.259 N 
ATOM      5  H   UNL     1       6.629   0.343  23.008  0.00  0.00    +0.157 HD
ATOM      6  C   UNL     1       8.040  -0.141  24.451  0.00  0.00    +0.266 C 
ATOM      7  O   UNL     1       8.975   0.211  25.162  0.00  0.00    -0.268 OA
ATOM      8  N   UNL     1       8.436   2.792  24.180  0.00  0.00    -0.220 NA
ATOM      9  C   UNL     1       8.242   4.152  23.842  0.00  0.00    +0.138 A 
ENDROOT
BRANCH   6  10
ATOM     10  C   UNL     1       7.547  -1.521  24.448  0.00  0.00    +0.106 A 
ATOM     11  N   UNL     1       8.343  -2.624  24.184  0.00  0.00    -0.344 N 
ATOM     12  C   UNL     1       9.755  -2.590  23.854  0.00  0.00    +0.149 C 
ATOM     13  C   UNL     1       7.608  -3.779  24.279  0.00  0.00    +0.109 A 
ATOM     14  C   UNL     1       6.317  -3.446  24.612  0.00  0.00    +0.052 A 
ATOM     15  C   UNL     1       6.276  -2.034  24.710  0.00  0.00    +0.055 A 
BRANCH  14  16
ATOM     16  N   UNL     1       5.331  -4.399  24.802  0.00  0.00    -0.279 N 
ATOM     17  H   UNL     1       5.177  -4.667  25.760  0.00  0.00    +0.155 HD
ATOM     18  C   UNL     1       4.551  -4.977  23.809  0.00  0.00    +0.265 C 
ATOM     19  O   UNL     1       4.675  -4.724  22.616  0.00  0.00    -0.268 OA
BRANCH  18  20
ATOM     20  C   UNL     1       3.558  -5.934  24.309  0.00  0.00    +0.106 A 
ATOM     21  N   UNL     1       2.296  -5.596  24.782  0.00  0.00    -0.344 N 
ATOM     22  C   UNL     1       1.737  -4.260  24.861  0.00  0.00    +0.149 C 
ATOM     23  C   UNL     1       1.617  -6.722  25.180  0.00  0.00    +0.109 A 
ATOM     24  C   UNL     1       2.426  -7.811  24.968  0.00  0.00    +0.052 A 
ATOM     25  C   UNL     1       3.634  -7.320  24.422  0.00  0.00    +0.055 A 
BRANCH  24  26
ATOM     26  N   UNL     1       2.052  -9.102  25.259  0.00  0.00    -0.287 N 
ATOM     27  H   UNL     1       2.641  -9.656  25.867  0.00  0.00    +0.155 HD
ATOM     28  C   UNL     1       0.940  -9.727  24.772  0.00  0.00    +0.330 C 
ATOM     29  O   UNL     1       0.647 -10.887  25.042  0.00  0.00    -0.279 OA
ENDBRANCH  24  26
ENDBRANCH  18  20
ENDBRANCH  14  16
ENDBRANCH   6  10
BRANCH   9  30
ATOM     30  C   UNL     1       9.082   5.155  24.544  0.00  0.00    +0.263 C 
ATOM     31  N   UNL     1       8.453   5.674  25.665  0.00  0.00    -0.310 N 
ATOM     32  H   UNL     1       7.514   5.322  25.843  0.00  0.00    +0.149 HD
ATOM     33  O   UNL     1      10.209   5.474  24.185  0.00  0.00    -0.269 OA
BRANCH  31  34
ATOM     34  C   UNL     1       9.019   6.628  26.603  0.00  0.00    +0.106 C 
BRANCH  34  35
ATOM     35  C   UNL     1       8.095   6.976  27.771  0.00  0.00    +0.034 C 
BRANCH  35  36
ATOM     36  C   UNL     1       6.955   5.973  28.017  0.00  0.00    +0.085 C 
BRANCH  36  37
ATOM     37  N   UNL     1       7.356   4.641  28.510  0.00  0.00    -0.308 NA
ATOM     38  C   UNL     1       6.734   3.605  27.675  0.00  0.00    +0.104 C 
ATOM     39  C   UNL     1       6.980   4.423  29.908  0.00  0.00    +0.104 C 
ENDBRANCH  36  37
ENDBRANCH  35  36
ENDBRANCH  34  35
ENDBRANCH  31  34
ENDBRANCH   9  30
BRANCH   1  41
ATOM     40  C   UNL     1       5.254   5.906  23.179  0.00  0.00    +0.013 C 
ATOM     41  C   UNL     1       6.471   5.542  22.333  0.00  0.00    +0.022 C 
ATOM     42  C   UNL     1       7.318   6.755  21.976  0.00  0.00    +0.013 C 
ENDBRANCH   1  41
TORSDOF 10
ENDMDL
MODEL 3
REMARK VINA RESULT:      -6.4      1.916      2.394
REMARK  Name = 
REMARK  16 active torsions:
REMARK  status: ('A' for Active; 'I' for Inactive)
REMARK    1  A    between atoms: C_1  and  C_2
REMARK    2  A    between atoms: C_2  and  C_3
REMARK    3  A    between atoms: C_2  and  C_4
REMARK    4  A    between atoms: C_5  and  C_30
REMARK    5  A    between atoms: C_9  and  C_11
REMARK    6  A    between atoms: C_13  and  N_14
REMARK    7  A    between atoms: C_15  and  C_17
REMARK    8  A    between atoms: C_19  and  N_20
REMARK    9  A    between atoms: N_24  and  C_25
REMARK   10  A    between atoms: N_27  and  C_28
REMARK   11  A    between atoms: N_32  and  C_33
REMARK   12  A    between atoms: C_33  and  C_34
REMARK   13  A    between atoms: C_34  and  C_35
REMARK   14  A    between atoms: C_35  and  N_36
REMARK   15  A    between atoms: N_36  and  C_37
REMARK   16  A    between atoms: N_36  and  C_38
REMARK                            x       y       z     vdW  Elec       q    Type
REMARK                         _______ _______ _______ _____ _____    ______ ____
ROOT
ATOM      1  C   UNL     1       5.318   4.340  23.780  0.00  0.00    +0.026 A 
ATOM      2  S   UNL     1       4.493   2.809  23.837  0.00  0.00    -0.056 S 
ATOM      3  C   UNL     1       5.962   1.996  23.665  0.00  0.00    +0.166 A 
ATOM      4  N   UNL     1       5.839   0.647  23.833  0.00  0.00    -0.259 N 
ATOM      5  H   UNL     1       4.924   0.315  24.081  0.00  0.00    +0.157 HD
ATOM      6  C   UNL     1       6.899  -0.218  23.732  0.00  0.00    +0.266 C 
ATOM      7  O   UNL     1       8.031   0.115  23.400  0.00  0.00    -0.268 OA
ATOM      8  N   UNL     1       7.009   2.736  23.430  0.00  0.00    -0.220 NA
ATOM      9  C   UNL     1       6.669   4.108  23.475  0.00  0.00    +0.138 A 
ENDROOT
BRANCH   6  10
ATOM     10  C   UNL     1       6.563  -1.610  24.050  0.00  0.00    +0.106 A 
ATOM     11  N   UNL     1       7.477  -2.533  24.531  0.00  0.00    -0.344 N 
ATOM     12  C   UNL     1       8.886  -2.283  24.773  0.00  0.00    +0.149 C 
ATOM     13  C   UNL     1       6.865  -3.740  24.758  0.00  0.00    +0.109 A 
ATOM     14  C   UNL     1       5.537  -3.621  24.430  0.00  0.00    +0.052 A 
ATOM     15  C   UNL     1       5.348  -2.291  23.980  0.00  0.00    +0.055 A 
BRANCH  14  16
ATOM     16  N   UNL     1       4.642  -4.668  24.569  0.00  0.00    -0.279 N 
ATOM     17  H   UNL     1       4.264  -4.786  25.495  0.00  0.00    +0.155 HD
ATOM     18  C   UNL     1       4.225  -5.526  23.559  0.00  0.00    +0.265 C 
ATOM     19  O   UNL     1       4.639  -5.468  22.407  0.00  0.00    -0.268 OA
BRANCH  18  20
ATOM     20  C   UNL     1       3.240  -6.523  23.990  0.00  0.00    +0.106 A 
ATOM     21  N   UNL     1       1.879  -6.468  23.716  0.00  0.00    -0.344 N 
ATOM     22  C   UNL     1       1.196  -5.436  22.961  0.00  0.00    +0.149 C 
ATOM     23  C   UNL     1       1.236  -7.551  24.266  0.00  0.00    +0.109 A 
ATOM     24  C   UNL     1       2.170  -8.329  24.903  0.00  0.00    +0.052 A 
ATOM     25  C   UNL     1       3.419  -7.691  24.729  0.00  0.00    +0.055 A 
BRANCH  24  26
ATOM     26  N   UNL     1       1.862  -9.496  25.563  0.00  0.00    -0.287 N 
ATOM     27  H   UNL     1       2.536 -10.250  25.563  0.00  0.00    +0.155 HD
ATOM     28  C   UNL     1       0.689  -9.742  26.217  0.00  0.00    +0.330 C 
ATOM     29  O   UNL     1       0.443 -10.803  26.782  0.00  0.00    -0.279 OA
ENDBRANCH  24  26
ENDBRANCH  18  20
ENDBRANCH  14  16
ENDBRANCH   6  10
BRANCH   9  30
ATOM     30  C   UNL     1       7.761   5.089  23.255  0.00  0.00    +0.263 C 
ATOM     31  N   UNL     1       8.846   4.862  24.087  0.00  0.00    -0.310 N 
ATOM     32  H   UNL     1       8.746   4.084  24.736  0.00  0.00    +0.149 HD
ATOM     33  O   UNL     1       7.718   5.985  22.421  0.00  0.00    -0.269 OA
BRANCH  31  34
ATOM     34  C   UNL     1      10.099   5.599  24.088  0.00  0.00    +0.106 C 
BRANCH  34  35
ATOM     35  C   UNL     1      11.177   4.996  23.185  0.00  0.00    +0.034 C 
BRANCH  35  36
ATOM     36  C   UNL     1      11.583   3.555  23.534  0.00  0.00    +0.085 C 
BRANCH  36  37
ATOM     37  N   UNL     1      10.515   2.540  23.451  0.00  0.00    -0.308 NA
ATOM     38  C   UNL     1      10.906   1.356  24.228  0.00  0.00    +0.104 C 
ATOM     39  C   UNL     1      10.228   2.138  22.072  0.00  0.00    +0.104 C 
ENDBRANCH  36  37
ENDBRANCH  35  36
ENDBRANCH  34  35
ENDBRANCH  31  34
ENDBRANCH   9  30
BRANCH   1  41
ATOM     40  C   UNL     1       5.000   6.280  25.356  0.00  0.00    +0.013 C 
ATOM     41  C   UNL     1       4.463   5.539  24.135  0.00  0.00    +0.022 C 
ATOM     42  C   UNL     1       4.120   6.477  22.987  0.00  0.00    +0.013 C 
ENDBRANCH   1  41
TORSDOF 10
ENDMDL
MODEL 4
REMARK VINA RESULT:      -6.3      2.972     11.952
REMARK  Name = 
REMARK  16 active torsions:
REMARK  status: ('A' for Active; 'I' for Inactive)
REMARK    1  A    between atoms: C_1  and  C_2
REMARK    2  A    between atoms: C_2  and  C_3
REMARK    3  A    between atoms: C_2  and  C_4
REMARK    4  A    between atoms: C_5  and  C_30
REMARK    5  A    between atoms: C_9  and  C_11
REMARK    6  A    between atoms: C_13  and  N_14
REMARK    7  A    between atoms: C_15  and  C_17
REMARK    8  A    between atoms: C_19  and  N_20
REMARK    9  A    between atoms: N_24  and  C_25
REMARK   10  A    between atoms: N_27  and  C_28
REMARK   11  A    between atoms: N_32  and  C_33
REMARK   12  A    between atoms: C_33  and  C_34
REMARK   13  A    between atoms: C_34  and  C_35
REMARK   14  A    between atoms: C_35  and  N_36
REMARK   15  A    between atoms: N_36  and  C_37
REMARK   16  A    between atoms: N_36  and  C_38
REMARK                            x       y       z     vdW  Elec       q    Type
REMARK                         _______ _______ _______ _____ _____    ______ ____
ROOT
ATOM      1  C   UNL     1       5.477  -4.935  22.717  0.00  0.00    +0.026 A 
ATOM      2  S   UNL     1       6.224  -3.377  22.514  0.00  0.00    -0.056 S 
ATOM      3  C   UNL     1       5.387  -2.787  23.856  0.00  0.00    +0.166 A 
ATOM      4  N   UNL     1       5.802  -1.541  24.228  0.00  0.00    -0.259 N 
ATOM      5  H   UNL     1       6.568  -1.156  23.703  0.00  0.00    +0.157 HD
ATOM      6  C   UNL     1       5.260  -0.858  25.287  0.00  0.00    +0.266 C 
ATOM      7  O   UNL     1       4.304  -1.254  25.945  0.00  0.00    -0.268 OA
ATOM      8  N   UNL     1       4.494  -3.581  24.376  0.00  0.00    -0.220 NA
ATOM      9  C   UNL     1       4.509  -4.839  23.728  0.00  0.00    +0.138 A 
ENDROOT
BRANCH   6  10
ATOM     10  C   UNL     1       5.923   0.417  25.574  0.00  0.00    +0.106 A 
ATOM     11  N   UNL     1       5.527   1.282  26.582  0.00  0.00    -0.344 N 
ATOM     12  C   UNL     1       4.407   1.080  27.480  0.00  0.00    +0.149 C 
ATOM     13  C   UNL     1       6.352   2.379  26.623  0.00  0.00    +0.109 A 
ATOM     14  C   UNL     1       7.303   2.243  25.642  0.00  0.00    +0.052 A 
ATOM     15  C   UNL     1       7.032   1.020  24.980  0.00  0.00    +0.055 A 
BRANCH  14  16
ATOM     16  N   UNL     1       8.299   3.183  25.441  0.00  0.00    -0.279 N 
ATOM     17  H   UNL     1       9.187   2.960  25.862  0.00  0.00    +0.155 HD
ATOM     18  C   UNL     1       8.180   4.357  24.710  0.00  0.00    +0.265 C 
ATOM     19  O   UNL     1       7.139   4.718  24.173  0.00  0.00    -0.268 OA
BRANCH  18  20
ATOM     20  C   UNL     1       9.414   5.146  24.636  0.00  0.00    +0.106 A 
ATOM     21  N   UNL     1       9.716   6.230  25.450  0.00  0.00    -0.344 N 
ATOM     22  C   UNL     1       8.883   6.768  26.509  0.00  0.00    +0.149 C 
ATOM     23  C   UNL     1      10.944   6.750  25.120  0.00  0.00    +0.109 A 
ATOM     24  C   UNL     1      11.462   6.008  24.087  0.00  0.00    +0.052 A 
ATOM     25  C   UNL     1      10.511   5.007  23.788  0.00  0.00    +0.055 A 
BRANCH  24  26
ATOM     26  N   UNL     1      12.685   6.261  23.511  0.00  0.00    -0.287 N 
ATOM     27  H   UNL     1      13.289   6.956  23.930  0.00  0.00    +0.155 HD
ATOM     28  C   UNL     1      13.162   5.658  22.382  0.00  0.00    +0.330 C 
ATOM     29  O   UNL     1      14.253   5.922  21.887  0.00  0.00    -0.279 OA
ENDBRANCH  24  26
ENDBRANCH  18  20
ENDBRANCH  14  16
ENDBRANCH   6  10
BRANCH   9  30
ATOM     30  C   UNL     1       3.565  -5.872  24.224  0.00  0.00    +0.263 C 
ATOM     31  N   UNL     1       3.686  -6.082  25.589  0.00  0.00    -0.310 N 
ATOM     32  H   UNL     1       4.401  -5.527  26.056  0.00  0.00    +0.149 HD
ATOM     33  O   UNL     1       2.758  -6.459  23.514  0.00  0.00    -0.269 OA
BRANCH  31  34
ATOM     34  C   UNL     1       2.875  -6.977  26.397  0.00  0.00    +0.106 C 
BRANCH  34  35
ATOM     35  C   UNL     1       2.970  -6.717  27.901  0.00  0.00    +0.034 C 
BRANCH  35  36
ATOM     36  C   UNL     1       4.031  -5.684  28.315  0.00  0.00    +0.085 C 
BRANCH  36  37
ATOM     37  N   UNL     1       5.435  -6.136  28.259  0.00  0.00    -0.308 NA
ATOM     38  C   UNL     1       5.920  -6.393  29.622  0.00  0.00    +0.104 C 
ATOM     39  C   UNL     1       6.314  -5.160  27.611  0.00  0.00    +0.104 C 
ENDBRANCH  36  37
ENDBRANCH  35  36
ENDBRANCH  34  35
ENDBRANCH  31  34
ENDBRANCH   9  30
BRANCH   1  41
ATOM     40  C   UNL     1       6.070  -5.662  20.378  0.00  0.00    +0.013 C 
ATOM     41  C   UNL     1       6.059  -6.038  21.856  0.00  0.00    +0.022 C 
ATOM     42  C   UNL     1       7.389  -6.614  22.322  0.00  0.00    +0.013 C 
ENDBRANCH   1  41
TORSDOF 10
ENDMDL
MODEL 5
REMARK VINA RESULT:      -6.1      1.824      2.506
REMARK  Name = 
REMARK  16 active torsions:
REMARK  status: ('A' for Active; 'I' for Inactive)
REMARK    1  A    between atoms: C_1  and  C_2
REMARK    2  A    between atoms: C_2  and  C_3
REMARK    3  A    between atoms: C_2  and  C_4
REMARK    4  A    between atoms: C_5  and  C_30
REMARK    5  A    between atoms: C_9  and  C_11
REMARK    6  A    between atoms: C_13  and  N_14
REMARK    7  A    between atoms: C_15  and  C_17
REMARK    8  A    between atoms: C_19  and  N_20
REMARK    9  A    between atoms: N_24  and  C_25
REMARK   10  A    between atoms: N_27  and  C_28
REMARK   11  A    between atoms: N_32  and  C_33
REMARK   12  A    between atoms: C_33  and  C_34
REMARK   13  A    between atoms: C_34  and  C_35
REMARK   14  A    between atoms: C_35  and  N_36
REMARK   15  A    between atoms: N_36  and  C_37
REMARK   16  A    between atoms: N_36  and  C_38
REMARK                            x       y       z     vdW  Elec       q    Type
REMARK                         _______ _______ _______ _____ _____    ______ ____
ROOT
ATOM      1  C   UNL     1       5.349   4.889  22.868  0.00  0.00    +0.026 A 
ATOM      2  S   UNL     1       4.669   3.315  22.578  0.00  0.00    -0.056 S 
ATOM      3  C   UNL     1       6.120   2.588  23.044  0.00  0.00    +0.166 A 
ATOM      4  N   UNL     1       6.018   1.231  23.148  0.00  0.00    -0.259 N 
ATOM      5  H   UNL     1       5.104   0.843  22.988  0.00  0.00    +0.157 HD
ATOM      6  C   UNL     1       7.071   0.428  23.505  0.00  0.00    +0.266 C 
ATOM      7  O   UNL     1       8.216   0.830  23.681  0.00  0.00    -0.268 OA
ATOM      8  N   UNL     1       7.122   3.390  23.269  0.00  0.00    -0.220 NA
ATOM      9  C   UNL     1       6.713   4.740  23.163  0.00  0.00    +0.138 A 
ENDROOT
BRANCH   6  10
ATOM     10  C   UNL     1       6.716  -0.987  23.656  0.00  0.00    +0.106 A 
ATOM     11  N   UNL     1       7.399  -2.023  23.040  0.00  0.00    -0.344 N 
ATOM     12  C   UNL     1       8.534  -1.878  22.149  0.00  0.00    +0.149 C 
ATOM     13  C   UNL     1       6.852  -3.232  23.389  0.00  0.00    +0.109 A 
ATOM     14  C   UNL     1       5.803  -3.002  24.246  0.00  0.00    +0.052 A 
ATOM     15  C   UNL     1       5.712  -1.597  24.408  0.00  0.00    +0.055 A 
BRANCH  14  16
ATOM     16  N   UNL     1       5.055  -4.029  24.795  0.00  0.00    -0.279 N 
ATOM     17  H   UNL     1       5.286  -4.263  25.747  0.00  0.00    +0.155 HD
ATOM     18  C   UNL     1       4.032  -4.725  24.163  0.00  0.00    +0.265 C 
ATOM     19  O   UNL     1       3.690  -4.521  23.003  0.00  0.00    -0.268 OA
BRANCH  18  20
ATOM     20  C   UNL     1       3.390  -5.741  25.003  0.00  0.00    +0.106 A 
ATOM     21  N   UNL     1       2.531  -6.729  24.540  0.00  0.00    -0.344 N 
ATOM     22  C   UNL     1       2.124  -6.938  23.164  0.00  0.00    +0.149 C 
ATOM     23  C   UNL     1       2.099  -7.514  25.581  0.00  0.00    +0.109 A 
ATOM     24  C   UNL     1       2.674  -7.049  26.738  0.00  0.00    +0.052 A 
ATOM     25  C   UNL     1       3.481  -5.947  26.378  0.00  0.00    +0.055 A 
BRANCH  24  26
ATOM     26  N   UNL     1       2.451  -7.611  27.974  0.00  0.00    -0.287 N 
ATOM     27  H   UNL     1       1.833  -8.409  28.045  0.00  0.00    +0.155 HD
ATOM     28  C   UNL     1       2.988  -7.165  29.148  0.00  0.00    +0.330 C 
ATOM     29  O   UNL     1       2.753  -7.683  30.235  0.00  0.00    -0.279 OA
ENDBRANCH  24  26
ENDBRANCH  18  20
ENDBRANCH  14  16
ENDBRANCH   6  10
BRANCH   9  30
ATOM     30  C   UNL     1       7.737   5.784  23.420  0.00  0.00    +0.263 C 
ATOM     31  N   UNL     1       8.498   5.507  24.545  0.00  0.00    -0.310 N 
ATOM     32  H   UNL     1       8.248   4.655  25.044  0.00  0.00    +0.149 HD
ATOM     33  O   UNL     1       7.904   6.768  22.710  0.00  0.00    -0.269 OA
BRANCH  31  34
ATOM     34  C   UNL     1       9.617   6.290  25.041  0.00  0.00    +0.106 C 
BRANCH  34  35
ATOM     35  C   UNL     1      10.718   6.528  24.006  0.00  0.00    +0.034 C 
BRANCH  35  36
ATOM     36  C   UNL     1      12.107   6.005  24.405  0.00  0.00    +0.085 C 
BRANCH  36  37
ATOM     37  N   UNL     1      12.670   4.938  23.554  0.00  0.00    -0.308 NA
ATOM     38  C   UNL     1      13.137   5.520  22.288  0.00  0.00    +0.104 C 
ATOM     39  C   UNL     1      11.703   3.877  23.269  0.00  0.00    +0.104 C 
ENDBRANCH  36  37
ENDBRANCH  35  36
ENDBRANCH  34  35
ENDBRANCH  31  34
ENDBRANCH   9  30
BRANCH   1  41
ATOM     40  C   UNL     1       2.998   5.586  22.287  0.00  0.00    +0.013 C 
ATOM     41  C   UNL     1       4.354   6.031  22.827  0.00  0.00    +0.022 C 
ATOM     42  C   UNL     1       4.234   6.857  24.100  0.00  0.00    +0.013 C 
ENDBRANCH   1  41
TORSDOF 10
ENDMDL
MODEL 6
REMARK VINA RESULT:      -6.0      2.335      2.994
REMARK  Name = 
REMARK  16 active torsions:
REMARK  status: ('A' for Active; 'I' for Inactive)
REMARK    1  A    between atoms: C_1  and  C_2
REMARK    2  A    between atoms: C_2  and  C_3
REMARK    3  A    between atoms: C_2  and  C_4
REMARK    4  A    between atoms: C_5  and  C_30
REMARK    5  A    between atoms: C_9  and  C_11
REMARK    6  A    between atoms: C_13  and  N_14
REMARK    7  A    between atoms: C_15  and  C_17
REMARK    8  A    between atoms: C_19  and  N_20
REMARK    9  A    between atoms: N_24  and  C_25
REMARK   10  A    between atoms: N_27  and  C_28
REMARK   11  A    between atoms: N_32  and  C_33
REMARK   12  A    between atoms: C_33  and  C_34
REMARK   13  A    between atoms: C_34  and  C_35
REMARK   14  A    between atoms: C_35  and  N_36
REMARK   15  A    between atoms: N_36  and  C_37
REMARK   16  A    between atoms: N_36  and  C_38
REMARK                            x       y       z     vdW  Elec       q    Type
REMARK                         _______ _______ _______ _____ _____    ______ ____
ROOT
ATOM      1  C   UNL     1       5.977   3.838  23.997  0.00  0.00    +0.026 A 
ATOM      2  S   UNL     1       5.469   2.402  23.155  0.00  0.00    -0.056 S 
ATOM      3  C   UNL     1       6.324   1.443  24.250  0.00  0.00    +0.166 A 
ATOM      4  N   UNL     1       6.075   0.111  24.087  0.00  0.00    -0.259 N 
ATOM      5  H   UNL     1       5.395  -0.129  23.387  0.00  0.00    +0.157 HD
ATOM      6  C   UNL     1       6.663  -0.859  24.859  0.00  0.00    +0.266 C 
ATOM      7  O   UNL     1       7.524  -0.639  25.704  0.00  0.00    -0.268 OA
ATOM      8  N   UNL     1       7.071   2.074  25.112  0.00  0.00    -0.220 NA
ATOM      9  C   UNL     1       6.905   3.473  24.984  0.00  0.00    +0.138 A 
ENDROOT
BRANCH   6  10
ATOM     10  C   UNL     1       6.177  -2.214  24.583  0.00  0.00    +0.106 A 
ATOM     11  N   UNL     1       6.788  -3.087  23.697  0.00  0.00    -0.344 N 
ATOM     12  C   UNL     1       7.966  -2.799  22.901  0.00  0.00    +0.149 C 
ATOM     13  C   UNL     1       6.122  -4.286  23.669  0.00  0.00    +0.109 A 
ATOM     14  C   UNL     1       5.065  -4.215  24.543  0.00  0.00    +0.052 A 
ATOM     15  C   UNL     1       5.094  -2.918  25.110  0.00  0.00    +0.055 A 
BRANCH  14  16
ATOM     16  N   UNL     1       4.208  -5.281  24.757  0.00  0.00    -0.279 N 
ATOM     17  H   UNL     1       4.293  -5.723  25.658  0.00  0.00    +0.155 HD
ATOM     18  C   UNL     1       3.256  -5.757  23.865  0.00  0.00    +0.265 C 
ATOM     19  O   UNL     1       3.088  -5.293  22.743  0.00  0.00    -0.268 OA
BRANCH  18  20
ATOM     20  C   UNL     1       2.463  -6.879  24.376  0.00  0.00    +0.106 A 
ATOM     21  N   UNL     1       1.585  -7.644  23.619  0.00  0.00    -0.344 N 
ATOM     22  C   UNL     1       1.302  -7.480  22.206  0.00  0.00    +0.149 C 
ATOM     23  C   UNL     1       0.997  -8.610  24.398  0.00  0.00    +0.109 A 
ATOM     24  C   UNL     1       1.486  -8.491  25.675  0.00  0.00    +0.052 A 
ATOM     25  C   UNL     1       2.402  -7.415  25.661  0.00  0.00    +0.055 A 
BRANCH  24  26
ATOM     26  N   UNL     1       1.103  -9.308  26.714  0.00  0.00    -0.287 N 
ATOM     27  H   UNL     1       1.018 -10.302  26.548  0.00  0.00    +0.155 HD
ATOM     28  C   UNL     1       0.798  -8.884  27.976  0.00  0.00    +0.330 C 
ATOM     29  O   UNL     1       0.444  -9.641  28.873  0.00  0.00    -0.279 OA
ENDBRANCH  24  26
ENDBRANCH  18  20
ENDBRANCH  14  16
ENDBRANCH   6  10
BRANCH   9  30
ATOM     30  C   UNL     1       7.670   4.338  25.918  0.00  0.00    +0.263 C 
ATOM     31  N   UNL     1       8.553   5.175  25.253  0.00  0.00    -0.310 N 
ATOM     32  H   UNL     1       8.573   5.075  24.239  0.00  0.00    +0.149 HD
ATOM     33  O   UNL     1       7.526   4.327  27.133  0.00  0.00    -0.269 OA
BRANCH  31  34
ATOM     34  C   UNL     1       9.406   6.182  25.861  0.00  0.00    +0.106 C 
BRANCH  34  35
ATOM     35  C   UNL     1      10.472   6.746  24.921  0.00  0.00    +0.034 C 
BRANCH  35  36
ATOM     36  C   UNL     1      10.691   5.938  23.631  0.00  0.00    +0.085 C 
BRANCH  36  37
ATOM     37  N   UNL     1      11.809   4.975  23.648  0.00  0.00    -0.308 NA
ATOM     38  C   UNL     1      12.817   5.381  22.658  0.00  0.00    +0.104 C 
ATOM     39  C   UNL     1      11.377   3.606  23.361  0.00  0.00    +0.104 C 
ENDBRANCH  36  37
ENDBRANCH  35  36
ENDBRANCH  34  35
ENDBRANCH  31  34
ENDBRANCH   9  30
BRANCH   1  41
ATOM     40  C   UNL     1       6.192   6.000  22.720  0.00  0.00    +0.013 C 
ATOM     41  C   UNL     1       5.281   5.112  23.562  0.00  0.00    +0.022 C 
ATOM     42  C   UNL     1       3.901   4.939  22.944  0.00  0.00    +0.013 C 
ENDBRANCH   1  41
TORSDOF 10
ENDMDL
MODEL 7
REMARK VINA RESULT:      -5.9      3.113      4.930
REMARK  Name = 
REMARK  16 active torsions:
REMARK  status: ('A' for Active; 'I' for Inactive)
REMARK    1  A    between atoms: C_1  and  C_2
REMARK    2  A    between atoms: C_2  and  C_3
REMARK    3  A    between atoms: C_2  and  C_4
REMARK    4  A    between atoms: C_5  and  C_30
REMARK    5  A    between atoms: C_9  and  C_11
REMARK    6  A    between atoms: C_13  and  N_14
REMARK    7  A    between atoms: C_15  and  C_17
REMARK    8  A    between atoms: C_19  and  N_20
REMARK    9  A    between atoms: N_24  and  C_25
REMARK   10  A    between atoms: N_27  and  C_28
REMARK   11  A    between atoms: N_32  and  C_33
REMARK   12  A    between atoms: C_33  and  C_34
REMARK   13  A    between atoms: C_34  and  C_35
REMARK   14  A    between atoms: C_35  and  N_36
REMARK   15  A    between atoms: N_36  and  C_37
REMARK   16  A    between atoms: N_36  and  C_38
REMARK                            x       y       z     vdW  Elec       q    Type
REMARK                         _______ _______ _______ _____ _____    ______ ____
ROOT
ATOM      1  C   UNL     1       9.439   2.181  24.320  0.00  0.00    +0.026 A 
ATOM      2  S   UNL     1       9.040   0.567  24.832  0.00  0.00    -0.056 S 
ATOM      3  C   UNL     1       7.626   1.134  25.560  0.00  0.00    +0.166 A 
ATOM      4  N   UNL     1       6.818   0.123  25.996  0.00  0.00    -0.259 N 
ATOM      5  H   UNL     1       7.130  -0.810  25.793  0.00  0.00    +0.157 HD
ATOM      6  C   UNL     1       5.619   0.344  26.625  0.00  0.00    +0.266 C 
ATOM      7  O   UNL     1       5.197   1.453  26.933  0.00  0.00    -0.268 OA
ATOM      8  N   UNL     1       7.468   2.427  25.589  0.00  0.00    -0.220 NA
ATOM      9  C   UNL     1       8.514   3.072  24.887  0.00  0.00    +0.138 A 
ENDROOT
BRANCH   6  10
ATOM     10  C   UNL     1       4.867  -0.879  26.917  0.00  0.00    +0.106 A 
ATOM     11  N   UNL     1       4.353  -1.189  28.166  0.00  0.00    -0.344 N 
ATOM     12  C   UNL     1       4.491  -0.382  29.363  0.00  0.00    +0.149 C 
ATOM     13  C   UNL     1       3.678  -2.383  28.124  0.00  0.00    +0.109 A 
ATOM     14  C   UNL     1       3.738  -2.870  26.841  0.00  0.00    +0.052 A 
ATOM     15  C   UNL     1       4.488  -1.935  26.086  0.00  0.00    +0.055 A 
BRANCH  14  16
ATOM     16  N   UNL     1       3.131  -4.058  26.469  0.00  0.00    -0.279 N 
ATOM     17  H   UNL     1       2.200  -3.962  26.096  0.00  0.00    +0.155 HD
ATOM     18  C   UNL     1       3.695  -5.324  26.549  0.00  0.00    +0.265 C 
ATOM     19  O   UNL     1       4.814  -5.541  27.001  0.00  0.00    -0.268 OA
BRANCH  18  20
ATOM     20  C   UNL     1       2.830  -6.398  26.049  0.00  0.00    +0.106 A 
ATOM     21  N   UNL     1       2.029  -7.210  26.843  0.00  0.00    -0.344 N 
ATOM     22  C   UNL     1       1.899  -7.141  28.286  0.00  0.00    +0.149 C 
ATOM     23  C   UNL     1       1.350  -8.117  26.067  0.00  0.00    +0.109 A 
ATOM     24  C   UNL     1       1.696  -7.907  24.755  0.00  0.00    +0.052 A 
ATOM     25  C   UNL     1       2.615  -6.834  24.743  0.00  0.00    +0.055 A 
BRANCH  24  26
ATOM     26  N   UNL     1       1.195  -8.648  23.710  0.00  0.00    -0.287 N 
ATOM     27  H   UNL     1       0.751  -9.535  23.909  0.00  0.00    +0.155 HD
ATOM     28  C   UNL     1       1.263  -8.295  22.393  0.00  0.00    +0.330 C 
ATOM     29  O   UNL     1       0.818  -8.991  21.486  0.00  0.00    -0.279 OA
ENDBRANCH  24  26
ENDBRANCH  18  20
ENDBRANCH  14  16
ENDBRANCH   6  10
BRANCH   9  30
ATOM     30  C   UNL     1       8.466   4.553  24.802  0.00  0.00    +0.263 C 
ATOM     31  N   UNL     1       8.197   4.996  23.516  0.00  0.00    -0.310 N 
ATOM     32  H   UNL     1       8.090   4.267  22.814  0.00  0.00    +0.149 HD
ATOM     33  O   UNL     1       8.626   5.298  25.760  0.00  0.00    -0.269 OA
BRANCH  31  34
ATOM     34  C   UNL     1       8.024   6.379  23.102  0.00  0.00    +0.106 C 
BRANCH  34  35
ATOM     35  C   UNL     1       6.939   6.581  22.044  0.00  0.00    +0.034 C 
BRANCH  35  36
ATOM     36  C   UNL     1       5.497   6.527  22.576  0.00  0.00    +0.085 C 
BRANCH  36  37
ATOM     37  N   UNL     1       5.109   5.289  23.279  0.00  0.00    -0.308 NA
ATOM     38  C   UNL     1       3.944   4.693  22.611  0.00  0.00    +0.104 C 
ATOM     39  C   UNL     1       4.789   5.520  24.690  0.00  0.00    +0.104 C 
ENDBRANCH  36  37
ENDBRANCH  35  36
ENDBRANCH  34  35
ENDBRANCH  31  34
ENDBRANCH   9  30
BRANCH   1  41
ATOM     40  C   UNL     1      10.192   1.847  21.938  0.00  0.00    +0.013 C 
ATOM     41  C   UNL     1      10.596   2.273  23.347  0.00  0.00    +0.022 C 
ATOM     42  C   UNL     1      11.376   3.580  23.360  0.00  0.00    +0.013 C 
ENDBRANCH   1  41
TORSDOF 10
ENDMDL
MODEL 8
REMARK VINA RESULT:      -5.8      3.006      4.538
REMARK  Name = 
REMARK  16 active torsions:
REMARK  status: ('A' for Active; 'I' for Inactive)
REMARK    1  A    between atoms: C_1  and  C_2
REMARK    2  A    between atoms: C_2  and  C_3
REMARK    3  A    between atoms: C_2  and  C_4
REMARK    4  A    between atoms: C_5  and  C_30
REMARK    5  A    between atoms: C_9  and  C_11
REMARK    6  A    between atoms: C_13  and  N_14
REMARK    7  A    between atoms: C_15  and  C_17
REMARK    8  A    between atoms: C_19  and  N_20
REMARK    9  A    between atoms: N_24  and  C_25
REMARK   10  A    between atoms: N_27  and  C_28
REMARK   11  A    between atoms: N_32  and  C_33
REMARK   12  A    between atoms: C_33  and  C_34
REMARK   13  A    between atoms: C_34  and  C_35
REMARK   14  A    between atoms: C_35  and  N_36
REMARK   15  A    between atoms: N_36  and  C_37
REMARK   16  A    between atoms: N_36  and  C_38
REMARK                            x       y       z     vdW  Elec       q    Type
REMARK                         _______ _______ _______ _____ _____    ______ ____
ROOT
ATOM      1  C   UNL     1       8.952   1.614  24.893  0.00  0.00    +0.026 A 
ATOM      2  S   UNL     1       8.503  -0.055  25.094  0.00  0.00    -0.056 S 
ATOM      3  C   UNL     1       7.008   0.410  25.727  0.00  0.00    +0.166 A 
ATOM      4  N   UNL     1       6.159  -0.645  25.899  0.00  0.00    -0.259 N 
ATOM      5  H   UNL     1       6.499  -1.539  25.590  0.00  0.00    +0.157 HD
ATOM      6  C   UNL     1       4.892  -0.509  26.406  0.00  0.00    +0.266 C 
ATOM      7  O   UNL     1       4.430   0.544  26.832  0.00  0.00    -0.268 OA
ATOM      8  N   UNL     1       6.842   1.685  25.939  0.00  0.00    -0.220 NA
ATOM      9  C   UNL     1       7.960   2.417  25.478  0.00  0.00    +0.138 A 
ENDROOT
BRANCH   6  10
ATOM     10  C   UNL     1       4.116  -1.753  26.410  0.00  0.00    +0.106 A 
ATOM     11  N   UNL     1       3.421  -2.225  27.512  0.00  0.00    -0.344 N 
ATOM     12  C   UNL     1       3.368  -1.590  28.815  0.00  0.00    +0.149 C 
ATOM     13  C   UNL     1       2.773  -3.395  27.204  0.00  0.00    +0.109 A 
ATOM     14  C   UNL     1       3.033  -3.702  25.891  0.00  0.00    +0.052 A 
ATOM     15  C   UNL     1       3.880  -2.680  25.395  0.00  0.00    +0.055 A 
BRANCH  14  16
ATOM     16  N   UNL     1       2.502  -4.821  25.273  0.00  0.00    -0.279 N 
ATOM     17  H   UNL     1       1.785  -4.631  24.591  0.00  0.00    +0.155 HD
ATOM     18  C   UNL     1       2.883  -6.138  25.496  0.00  0.00    +0.265 C 
ATOM     19  O   UNL     1       3.735  -6.467  26.314  0.00  0.00    -0.268 OA
BRANCH  18  20
ATOM     20  C   UNL     1       2.170  -7.117  24.669  0.00  0.00    +0.106 A 
ATOM     21  N   UNL     1       1.329  -8.109  25.158  0.00  0.00    -0.344 N 
ATOM     22  C   UNL     1       1.002  -8.349  26.550  0.00  0.00    +0.149 C 
ATOM     23  C   UNL     1       0.825  -8.860  24.124  0.00  0.00    +0.109 A 
ATOM     24  C   UNL     1       1.329  -8.366  22.946  0.00  0.00    +0.052 A 
ATOM     25  C   UNL     1       2.164  -7.278  23.285  0.00  0.00    +0.055 A 
BRANCH  24  26
ATOM     26  N   UNL     1       1.024  -8.892  21.712  0.00  0.00    -0.287 N 
ATOM     27  H   UNL     1       0.420  -9.701  21.660  0.00  0.00    +0.155 HD
ATOM     28  C   UNL     1       1.495  -8.420  20.520  0.00  0.00    +0.330 C 
ATOM     29  O   UNL     1       1.214  -8.926  19.438  0.00  0.00    -0.279 OA
ENDBRANCH  24  26
ENDBRANCH  18  20
ENDBRANCH  14  16
ENDBRANCH   6  10
BRANCH   9  30
ATOM     30  C   UNL     1       7.915   3.894  25.622  0.00  0.00    +0.263 C 
ATOM     31  N   UNL     1       7.995   4.543  24.399  0.00  0.00    -0.310 N 
ATOM     32  H   UNL     1       8.091   3.937  23.586  0.00  0.00    +0.149 HD
ATOM     33  O   UNL     1       7.801   4.473  26.694  0.00  0.00    -0.269 OA
BRANCH  31  34
ATOM     34  C   UNL     1       7.919   5.978  24.181  0.00  0.00    +0.106 C 
BRANCH  34  35
ATOM     35  C   UNL     1       9.274   6.642  23.932  0.00  0.00    +0.034 C 
BRANCH  35  36
ATOM     36  C   UNL     1      10.491   5.830  24.406  0.00  0.00    +0.085 C 
BRANCH  36  37
ATOM     37  N   UNL     1      11.813   6.442  24.169  0.00  0.00    -0.308 NA
ATOM     38  C   UNL     1      12.708   5.448  23.561  0.00  0.00    +0.104 C 
ATOM     39  C   UNL     1      12.424   6.952  25.398  0.00  0.00    +0.104 C 
ENDBRANCH  36  37
ENDBRANCH  35  36
ENDBRANCH  34  35
ENDBRANCH  31  34
ENDBRANCH   9  30
BRANCH   1  41
ATOM     40  C   UNL     1      11.253   0.749  24.341  0.00  0.00    +0.013 C 
ATOM     41  C   UNL     1      10.218   1.841  24.092  0.00  0.00    +0.022 C 
ATOM     42  C   UNL     1      10.026   2.137  22.612  0.00  0.00    +0.013 C 
ENDBRANCH   1  41
TORSDOF 10
ENDMDL
MODEL 9
REMARK VINA RESULT:      -5.7      3.016      3.770
REMARK  Name = 
REMARK  16 active torsions:
REMARK  status: ('A' for Active; 'I' for Inactive)
REMARK    1  A    between atoms: C_1  and  C_2
REMARK    2  A    between atoms: C_2  and  C_3
REMARK    3  A    between atoms: C_2  and  C_4
REMARK    4  A    between atoms: C_5  and  C_30
REMARK    5  A    between atoms: C_9  and  C_11
REMARK    6  A    between atoms: C_13  and  N_14
REMARK    7  A    between atoms: C_15  and  C_17
REMARK    8  A    between atoms: C_19  and  N_20
REMARK    9  A    between atoms: N_24  and  C_25
REMARK   10  A    between atoms: N_27  and  C_28
REMARK   11  A    between atoms: N_32  and  C_33
REMARK   12  A    between atoms: C_33  and  C_34
REMARK   13  A    between atoms: C_34  and  C_35
REMARK   14  A    between atoms: C_35  and  N_36
REMARK   15  A    between atoms: N_36  and  C_37
REMARK   16  A    between atoms: N_36  and  C_38
REMARK                            x       y       z     vdW  Elec       q    Type
REMARK                         _______ _______ _______ _____ _____    ______ ____
ROOT
ATOM      1  C   UNL     1       7.484   5.018  23.993  0.00  0.00    +0.026 A 
ATOM      2  S   UNL     1       7.424   3.567  23.035  0.00  0.00    -0.056 S 
ATOM      3  C   UNL     1       7.645   2.628  24.421  0.00  0.00    +0.166 A 
ATOM      4  N   UNL     1       7.491   1.293  24.181  0.00  0.00    -0.259 N 
ATOM      5  H   UNL     1       7.223   1.041  23.246  0.00  0.00    +0.157 HD
ATOM      6  C   UNL     1       7.631   0.338  25.156  0.00  0.00    +0.266 C 
ATOM      7  O   UNL     1       7.988   0.574  26.305  0.00  0.00    -0.268 OA
ATOM      8  N   UNL     1       7.898   3.275  25.523  0.00  0.00    -0.220 NA
ATOM      9  C   UNL     1       7.826   4.671  25.309  0.00  0.00    +0.138 A 
ENDROOT
BRANCH   6  10
ATOM     10  C   UNL     1       7.322  -1.022  24.705  0.00  0.00    +0.106 A 
ATOM     11  N   UNL     1       8.231  -1.846  24.061  0.00  0.00    -0.344 N 
ATOM     12  C   UNL     1       9.596  -1.496  23.718  0.00  0.00    +0.149 C 
ATOM     13  C   UNL     1       7.662  -3.064  23.785  0.00  0.00    +0.109 A 
ATOM     14  C   UNL     1       6.370  -3.054  24.251  0.00  0.00    +0.052 A 
ATOM     15  C   UNL     1       6.153  -1.775  24.819  0.00  0.00    +0.055 A 
BRANCH  14  16
ATOM     16  N   UNL     1       5.534  -4.152  24.140  0.00  0.00    -0.279 N 
ATOM     17  H   UNL     1       5.740  -4.769  23.370  0.00  0.00    +0.155 HD
ATOM     18  C   UNL     1       4.484  -4.470  24.991  0.00  0.00    +0.265 C 
ATOM     19  O   UNL     1       4.150  -3.775  25.944  0.00  0.00    -0.268 OA
BRANCH  18  20
ATOM     20  C   UNL     1       3.792  -5.717  24.650  0.00  0.00    +0.106 A 
ATOM     21  N   UNL     1       3.854  -6.890  25.390  0.00  0.00    -0.344 N 
ATOM     22  C   UNL     1       4.597  -7.092  26.620  0.00  0.00    +0.149 C 
ATOM     23  C   UNL     1       3.099  -7.872  24.797  0.00  0.00    +0.109 A 
ATOM     24  C   UNL     1       2.530  -7.350  23.661  0.00  0.00    +0.052 A 
ATOM     25  C   UNL     1       2.959  -6.007  23.571  0.00  0.00    +0.055 A 
BRANCH  24  26
ATOM     26  N   UNL     1       1.709  -8.071  22.825  0.00  0.00    -0.287 N 
ATOM     27  H   UNL     1       1.494  -9.031  23.059  0.00  0.00    +0.155 HD
ATOM     28  C   UNL     1       1.161  -7.601  21.666  0.00  0.00    +0.330 C 
ATOM     29  O   UNL     1       0.445  -8.279  20.936  0.00  0.00    -0.279 OA
ENDBRANCH  24  26
ENDBRANCH  18  20
ENDBRANCH  14  16
ENDBRANCH   6  10
BRANCH   9  30
ATOM     30  C   UNL     1       8.063   5.554  26.479  0.00  0.00    +0.263 C 
ATOM     31  N   UNL     1       7.160   5.319  27.504  0.00  0.00    -0.310 N 
ATOM     32  H   UNL     1       6.459   4.604  27.316  0.00  0.00    +0.149 HD
ATOM     33  O   UNL     1       8.964   6.381  26.541  0.00  0.00    -0.269 OA
BRANCH  31  34
ATOM     34  C   UNL     1       7.149   5.966  28.806  0.00  0.00    +0.106 C 
BRANCH  34  35
ATOM     35  C   UNL     1       6.568   5.103  29.926  0.00  0.00    +0.034 C 
BRANCH  35  36
ATOM     36  C   UNL     1       7.138   3.677  30.008  0.00  0.00    +0.085 C 
BRANCH  36  37
ATOM     37  N   UNL     1       6.539   2.683  29.095  0.00  0.00    -0.308 NA
ATOM     38  C   UNL     1       5.077   2.828  29.108  0.00  0.00    +0.104 C 
ATOM     39  C   UNL     1       6.890   1.308  29.455  0.00  0.00    +0.104 C 
ENDBRANCH  36  37
ENDBRANCH  35  36
ENDBRANCH  34  35
ENDBRANCH  31  34
ENDBRANCH   9  30
BRANCH   1  41
ATOM     40  C   UNL     1       7.235   6.132  21.746  0.00  0.00    +0.013 C 
ATOM     41  C   UNL     1       7.091   6.283  23.258  0.00  0.00    +0.022 C 
ATOM     42  C   UNL     1       5.758   6.899  23.658  0.00  0.00    +0.013 C 
ENDBRANCH   1  41
TORSDOF 10
ENDMDL
