MODEL 1
REMARK VINA RESULT:      -7.9      0.000      0.000
REMARK  Name = 
REMARK  9 active torsions:
REMARK  status: ('A' for Active; 'I' for Inactive)
REMARK    1  A    between atoms: C_2  and  O_3
REMARK    2  A    between atoms: C_5  and  C_26
REMARK    3  A    between atoms: C_9  and  C_11
REMARK    4  A    between atoms: C_14  and  C_17
REMARK    5  A    between atoms: N_19  and  C_20
REMARK    6  A    between atoms: C_20  and  C_21
REMARK    7  A    between atoms: C_21  and  C_22
REMARK    8  A    between atoms: C_22  and  C_23
REMARK    9  A    between atoms: C_23  and  O_24
REMARK                            x       y       z     vdW  Elec       q    Type
REMARK                         _______ _______ _______ _____ _____    ______ ____
ROOT
ATOM      1  C   UNL     1       9.357  -1.784  23.206  0.00  0.00    -0.042 A 
ATOM      2  C   UNL     1       9.467  -2.790  24.174  0.00  0.00    +0.005 A 
ATOM      3  C   UNL     1       8.601  -3.875  24.196  0.00  0.00    +0.013 A 
ATOM      4  C   UNL     1       7.590  -3.969  23.244  0.00  0.00    +0.037 A 
ATOM      5  C   UNL     1       7.486  -3.008  22.237  0.00  0.00    +0.013 A 
ATOM      6  C   UNL     1       8.362  -1.919  22.223  0.00  0.00    +0.005 A 
ENDROOT
BRANCH   1   8
ATOM      7  C   UNL     1      10.425   0.101  24.532  0.00  0.00    +0.122 C 
ATOM      8  C   UNL     1      10.296  -0.586  23.160  0.00  0.00    +0.048 C 
ATOM      9  C   UNL     1       9.973   0.415  22.038  0.00  0.00    +0.011 C 
ATOM     10  C   UNL     1       8.807   1.351  22.341  0.00  0.00    +0.009 C 
ATOM     11  C   UNL     1       8.924   2.073  23.699  0.00  0.00    +0.021 C 
ATOM     12  C   UNL     1       9.312   1.112  24.848  0.00  0.00    +0.040 C 
BRANCH  11  13
ATOM     13  C   UNL     1       9.713   3.377  23.621  0.00  0.00    -0.044 A 
ATOM     14  C   UNL     1       9.087   4.579  24.003  0.00  0.00    +0.004 A 
ATOM     15  C   UNL     1       9.801   5.778  24.072  0.00  0.00    +0.000 A 
ATOM     16  C   UNL     1      11.156   5.802  23.762  0.00  0.00    +0.000 A 
ATOM     17  C   UNL     1      11.791   4.631  23.364  0.00  0.00    +0.000 A 
ATOM     18  C   UNL     1      11.078   3.434  23.303  0.00  0.00    +0.004 A 
ENDBRANCH  11  13
BRANCH   7  19
ATOM     19  O   UNL     1      11.712   0.719  24.635  0.00  0.00    -0.391 OA
ATOM     20  H   UNL     1      11.727   1.279  25.430  0.00  0.00    +0.210 HD
ENDBRANCH   7  19
ENDBRANCH   1   8
BRANCH   4  21
ATOM     21  C   UNL     1       6.616  -5.085  23.306  0.00  0.00    +0.244 C 
ATOM     22  N   UNL     1       6.033  -5.277  24.540  0.00  0.00    -0.311 N 
ATOM     23  H   UNL     1       6.201  -4.610  25.282  0.00  0.00    +0.149 HD
ATOM     24  O   UNL     1       6.360  -5.754  22.313  0.00  0.00    -0.270 OA
BRANCH  22  25
ATOM     25  C   UNL     1       5.049  -6.306  24.764  0.00  0.00    +0.105 C 
BRANCH  25  26
ATOM     26  C   UNL     1       4.906  -6.629  26.247  0.00  0.00    +0.030 C 
BRANCH  26  27
ATOM     27  C   UNL     1       5.523  -5.518  27.085  0.00  0.00    +0.122 C 
BRANCH  27  28
ATOM     28  C   UNL     1       6.783  -5.958  27.779  0.00  0.00    +0.305 C 
ATOM     29  O   UNL     1       6.811  -6.377  28.927  0.00  0.00    -0.251 OA
BRANCH  28  30
ATOM     30  O   UNL     1       7.887  -5.882  27.006  0.00  0.00    -0.481 OA
ATOM     31  H   UNL     1       8.651  -5.452  27.437  0.00  0.00    +0.295 HD
ENDBRANCH  28  30
ENDBRANCH  27  28
ENDBRANCH  26  27
ENDBRANCH  25  26
ENDBRANCH  22  25
ENDBRANCH   4  21
TORSDOF 9
ENDMDL
MODEL 2
REMARK VINA RESULT:      -7.4      2.012      2.507
REMARK  Name = 
REMARK  9 active torsions:
REMARK  status: ('A' for Active; 'I' for Inactive)
REMARK    1  A    between atoms: C_2  and  O_3
REMARK    2  A    between atoms: C_5  and  C_26
REMARK    3  A    between atoms: C_9  and  C_11
REMARK    4  A    between atoms: C_14  and  C_17
REMARK    5  A    between atoms: N_19  and  C_20
REMARK    6  A    between atoms: C_20  and  C_21
REMARK    7  A    between atoms: C_21  and  C_22
REMARK    8  A    between atoms: C_22  and  C_23
REMARK    9  A    between atoms: C_23  and  O_24
REMARK                            x       y       z     vdW  Elec       q    Type
REMARK                         _______ _______ _______ _____ _____    ______ ____
ROOT
ATOM      1  C   UNL     1       8.300  -1.252  23.337  0.00  0.00    -0.042 A 
ATOM      2  C   UNL     1       8.199  -2.181  22.294  0.00  0.00    +0.005 A 
ATOM      3  C   UNL     1       7.107  -3.031  22.182  0.00  0.00    +0.013 A 
ATOM      4  C   UNL     1       6.088  -2.973  23.130  0.00  0.00    +0.037 A 
ATOM      5  C   UNL     1       6.137  -2.025  24.152  0.00  0.00    +0.013 A 
ATOM      6  C   UNL     1       7.240  -1.172  24.256  0.00  0.00    +0.005 A 
ENDROOT
BRANCH   1   8
ATOM      7  C   UNL     1       9.485   0.425  24.834  0.00  0.00    +0.122 C 
ATOM      8  C   UNL     1       9.486  -0.307  23.479  0.00  0.00    +0.048 C 
ATOM      9  C   UNL     1       9.654   0.663  22.297  0.00  0.00    +0.011 C 
ATOM     10  C   UNL     1       8.708   1.860  22.321  0.00  0.00    +0.009 C 
ATOM     11  C   UNL     1       8.706   2.627  23.659  0.00  0.00    +0.021 C 
ATOM     12  C   UNL     1       8.604   1.682  24.881  0.00  0.00    +0.040 C 
BRANCH  11  13
ATOM     13  C   UNL     1       9.781   3.707  23.735  0.00  0.00    -0.044 A 
ATOM     14  C   UNL     1      11.082   3.408  23.288  0.00  0.00    +0.004 A 
ATOM     15  C   UNL     1      12.068   4.395  23.216  0.00  0.00    +0.000 A 
ATOM     16  C   UNL     1      11.775   5.703  23.589  0.00  0.00    +0.000 A 
ATOM     17  C   UNL     1      10.502   6.017  24.051  0.00  0.00    +0.000 A 
ATOM     18  C   UNL     1       9.518   5.031  24.116  0.00  0.00    +0.004 A 
ENDBRANCH  11  13
BRANCH   7  19
ATOM     19  O   UNL     1      10.831   0.737  25.208  0.00  0.00    -0.391 OA
ATOM     20  H   UNL     1      11.105   0.132  25.918  0.00  0.00    +0.210 HD
ENDBRANCH   7  19
ENDBRANCH   1   8
BRANCH   4  21
ATOM     21  C   UNL     1       4.957  -3.928  23.060  0.00  0.00    +0.244 C 
ATOM     22  N   UNL     1       4.029  -3.803  24.071  0.00  0.00    -0.311 N 
ATOM     23  H   UNL     1       4.097  -3.028  24.719  0.00  0.00    +0.149 HD
ATOM     24  O   UNL     1       4.876  -4.743  22.149  0.00  0.00    -0.270 OA
BRANCH  22  25
ATOM     25  C   UNL     1       2.858  -4.640  24.137  0.00  0.00    +0.105 C 
BRANCH  25  26
ATOM     26  C   UNL     1       2.728  -5.313  25.499  0.00  0.00    +0.030 C 
BRANCH  26  27
ATOM     27  C   UNL     1       3.807  -6.375  25.661  0.00  0.00    +0.122 C 
BRANCH  27  28
ATOM     28  C   UNL     1       3.751  -7.417  24.577  0.00  0.00    +0.305 C 
ATOM     29  O   UNL     1       2.854  -8.240  24.476  0.00  0.00    -0.251 OA
BRANCH  28  30
ATOM     30  O   UNL     1       4.770  -7.342  23.695  0.00  0.00    -0.481 OA
ATOM     31  H   UNL     1       5.586  -7.793  23.985  0.00  0.00    +0.295 HD
ENDBRANCH  28  30
ENDBRANCH  27  28
ENDBRANCH  26  27
ENDBRANCH  25  26
ENDBRANCH  22  25
ENDBRANCH   4  21
TORSDOF 9
ENDMDL
MODEL 3
REMARK VINA RESULT:      -7.4      1.468      1.984
REMARK  Name = 
REMARK  9 active torsions:
REMARK  status: ('A' for Active; 'I' for Inactive)
REMARK    1  A    between atoms: C_2  and  O_3
REMARK    2  A    between atoms: C_5  and  C_26
REMARK    3  A    between atoms: C_9  and  C_11
REMARK    4  A    between atoms: C_14  and  C_17
REMARK    5  A    between atoms: N_19  and  C_20
REMARK    6  A    between atoms: C_20  and  C_21
REMARK    7  A    between atoms: C_21  and  C_22
REMARK    8  A    between atoms: C_22  and  C_23
REMARK    9  A    between atoms: C_23  and  O_24
REMARK                            x       y       z     vdW  Elec       q    Type
REMARK                         _______ _______ _______ _____ _____    ______ ____
ROOT
ATOM      1  C   UNL     1       7.162  -0.584  23.149  0.00  0.00    -0.042 A 
ATOM      2  C   UNL     1       6.225  -1.026  24.092  0.00  0.00    +0.005 A 
ATOM      3  C   UNL     1       6.014  -2.377  24.328  0.00  0.00    +0.013 A 
ATOM      4  C   UNL     1       6.739  -3.325  23.610  0.00  0.00    +0.037 A 
ATOM      5  C   UNL     1       7.714  -2.915  22.700  0.00  0.00    +0.013 A 
ATOM      6  C   UNL     1       7.920  -1.552  22.468  0.00  0.00    +0.005 A 
ENDROOT
BRANCH   1   8
ATOM      7  C   UNL     1       8.572   1.108  21.884  0.00  0.00    +0.122 C 
ATOM      8  C   UNL     1       7.412   0.892  22.873  0.00  0.00    +0.048 C 
ATOM      9  C   UNL     1       7.568   1.744  24.145  0.00  0.00    +0.011 C 
ATOM     10  C   UNL     1       8.938   1.644  24.809  0.00  0.00    +0.009 C 
ATOM     11  C   UNL     1      10.118   1.882  23.845  0.00  0.00    +0.021 C 
ATOM     12  C   UNL     1       9.968   1.092  22.522  0.00  0.00    +0.040 C 
BRANCH  11  13
ATOM     13  C   UNL     1      10.495   3.354  23.707  0.00  0.00    -0.044 A 
ATOM     14  C   UNL     1       9.550   4.337  24.054  0.00  0.00    +0.004 A 
ATOM     15  C   UNL     1       9.885   5.693  24.069  0.00  0.00    +0.000 A 
ATOM     16  C   UNL     1      11.174   6.096  23.738  0.00  0.00    +0.000 A 
ATOM     17  C   UNL     1      12.120   5.144  23.373  0.00  0.00    +0.000 A 
ATOM     18  C   UNL     1      11.784   3.790  23.366  0.00  0.00    +0.004 A 
ENDBRANCH  11  13
BRANCH   7  19
ATOM     19  O   UNL     1       8.361   2.326  21.162  0.00  0.00    -0.391 OA
ATOM     20  H   UNL     1       8.128   2.108  20.243  0.00  0.00    +0.210 HD
ENDBRANCH   7  19
ENDBRANCH   1   8
BRANCH   4  21
ATOM     21  C   UNL     1       6.467  -4.769  23.803  0.00  0.00    +0.244 C 
ATOM     22  N   UNL     1       5.443  -5.053  24.682  0.00  0.00    -0.311 N 
ATOM     23  H   UNL     1       4.875  -4.299  25.048  0.00  0.00    +0.149 HD
ATOM     24  O   UNL     1       7.111  -5.617  23.200  0.00  0.00    -0.270 OA
BRANCH  22  25
ATOM     25  C   UNL     1       5.038  -6.406  24.964  0.00  0.00    +0.105 C 
BRANCH  25  26
ATOM     26  C   UNL     1       4.983  -6.672  26.464  0.00  0.00    +0.030 C 
BRANCH  26  27
ATOM     27  C   UNL     1       5.374  -5.416  27.231  0.00  0.00    +0.122 C 
BRANCH  27  28
ATOM     28  C   UNL     1       6.499  -5.664  28.199  0.00  0.00    +0.305 C 
ATOM     29  O   UNL     1       6.359  -5.660  29.413  0.00  0.00    -0.251 OA
BRANCH  28  30
ATOM     30  O   UNL     1       7.682  -5.928  27.605  0.00  0.00    -0.481 OA
ATOM     31  H   UNL     1       7.634  -6.016  26.634  0.00  0.00    +0.295 HD
ENDBRANCH  28  30
ENDBRANCH  27  28
ENDBRANCH  26  27
ENDBRANCH  25  26
ENDBRANCH  22  25
ENDBRANCH   4  21
TORSDOF 9
ENDMDL
MODEL 4
REMARK VINA RESULT:      -7.3      1.306      1.934
REMARK  Name = 
REMARK  9 active torsions:
REMARK  status: ('A' for Active; 'I' for Inactive)
REMARK    1  A    between atoms: C_2  and  O_3
REMARK    2  A    between atoms: C_5  and  C_26
REMARK    3  A    between atoms: C_9  and  C_11
REMARK    4  A    between atoms: C_14  and  C_17
REMARK    5  A    between atoms: N_19  and  C_20
REMARK    6  A    between atoms: C_20  and  C_21
REMARK    7  A    between atoms: C_21  and  C_22
REMARK    8  A    between atoms: C_22  and  C_23
REMARK    9  A    between atoms: C_23  and  O_24
REMARK                            x       y       z     vdW  Elec       q    Type
REMARK                         _______ _______ _______ _____ _____    ______ ____
ROOT
ATOM      1  C   UNL     1       8.134  -0.696  22.626  0.00  0.00    -0.042 A 
ATOM      2  C   UNL     1       9.199  -1.546  22.953  0.00  0.00    +0.005 A 
ATOM      3  C   UNL     1       8.987  -2.871  23.308  0.00  0.00    +0.013 A 
ATOM      4  C   UNL     1       7.690  -3.375  23.350  0.00  0.00    +0.037 A 
ATOM      5  C   UNL     1       6.613  -2.567  22.982  0.00  0.00    +0.013 A 
ATOM      6  C   UNL     1       6.836  -1.233  22.627  0.00  0.00    +0.005 A 
ENDROOT
BRANCH   1   8
ATOM      7  C   UNL     1       9.755   1.260  22.582  0.00  0.00    +0.122 C 
ATOM      8  C   UNL     1       8.341   0.761  22.232  0.00  0.00    +0.048 C 
ATOM      9  C   UNL     1       7.246   1.707  22.754  0.00  0.00    +0.011 C 
ATOM     10  C   UNL     1       7.390   2.093  24.223  0.00  0.00    +0.009 C 
ATOM     11  C   UNL     1       8.791   2.621  24.595  0.00  0.00    +0.021 C 
ATOM     12  C   UNL     1       9.926   1.731  24.034  0.00  0.00    +0.040 C 
BRANCH  11  13
ATOM     13  C   UNL     1       8.945   4.123  24.375  0.00  0.00    -0.044 A 
ATOM     14  C   UNL     1      10.213   4.638  24.045  0.00  0.00    +0.004 A 
ATOM     15  C   UNL     1      10.383   5.983  23.708  0.00  0.00    +0.000 A 
ATOM     16  C   UNL     1       9.290   6.843  23.693  0.00  0.00    +0.000 A 
ATOM     17  C   UNL     1       8.031   6.360  24.034  0.00  0.00    +0.000 A 
ATOM     18  C   UNL     1       7.863   5.015  24.363  0.00  0.00    +0.004 A 
ENDBRANCH  11  13
BRANCH   7  19
ATOM     19  O   UNL     1      10.135   2.293  21.668  0.00  0.00    -0.391 OA
ATOM     20  H   UNL     1      11.088   2.460  21.764  0.00  0.00    +0.210 HD
ENDBRANCH   7  19
ENDBRANCH   1   8
BRANCH   4  21
ATOM     21  C   UNL     1       7.450  -4.767  23.799  0.00  0.00    +0.244 C 
ATOM     22  N   UNL     1       6.179  -5.013  24.272  0.00  0.00    -0.311 N 
ATOM     23  H   UNL     1       5.468  -4.298  24.189  0.00  0.00    +0.149 HD
ATOM     24  O   UNL     1       8.333  -5.612  23.727  0.00  0.00    -0.270 OA
BRANCH  22  25
ATOM     25  C   UNL     1       5.777  -6.319  24.727  0.00  0.00    +0.105 C 
BRANCH  25  26
ATOM     26  C   UNL     1       5.048  -6.246  26.064  0.00  0.00    +0.030 C 
BRANCH  26  27
ATOM     27  C   UNL     1       5.742  -5.251  26.983  0.00  0.00    +0.122 C 
BRANCH  27  28
ATOM     28  C   UNL     1       6.940  -5.847  27.670  0.00  0.00    +0.305 C 
ATOM     29  O   UNL     1       6.892  -6.386  28.766  0.00  0.00    -0.251 OA
BRANCH  28  30
ATOM     30  O   UNL     1       8.079  -5.765  26.951  0.00  0.00    -0.481 OA
ATOM     31  H   UNL     1       8.650  -6.555  27.007  0.00  0.00    +0.295 HD
ENDBRANCH  28  30
ENDBRANCH  27  28
ENDBRANCH  26  27
ENDBRANCH  25  26
ENDBRANCH  22  25
ENDBRANCH   4  21
TORSDOF 9
ENDMDL
MODEL 5
REMARK VINA RESULT:      -7.2      1.366      1.685
REMARK  Name = 
REMARK  9 active torsions:
REMARK  status: ('A' for Active; 'I' for Inactive)
REMARK    1  A    between atoms: C_2  and  O_3
REMARK    2  A    between atoms: C_5  and  C_26
REMARK    3  A    between atoms: C_9  and  C_11
REMARK    4  A    between atoms: C_14  and  C_17
REMARK    5  A    between atoms: N_19  and  C_20
REMARK    6  A    between atoms: C_20  and  C_21
REMARK    7  A    between atoms: C_21  and  C_22
REMARK    8  A    between atoms: C_22  and  C_23
REMARK    9  A    between atoms: C_23  and  O_24
REMARK                            x       y       z     vdW  Elec       q    Type
REMARK                         _______ _______ _______ _____ _____    ______ ____
ROOT
ATOM      1  C   UNL     1       8.455  -1.130  24.850  0.00  0.00    -0.042 A 
ATOM      2  C   UNL     1       9.287  -2.201  24.498  0.00  0.00    +0.005 A 
ATOM      3  C   UNL     1       8.765  -3.421  24.089  0.00  0.00    +0.013 A 
ATOM      4  C   UNL     1       7.386  -3.597  24.033  0.00  0.00    +0.037 A 
ATOM      5  C   UNL     1       6.532  -2.534  24.330  0.00  0.00    +0.013 A 
ATOM      6  C   UNL     1       7.066  -1.309  24.741  0.00  0.00    +0.005 A 
ENDROOT
BRANCH   1   8
ATOM      7  C   UNL     1       8.018   1.367  25.014  0.00  0.00    +0.122 C 
ATOM      8  C   UNL     1       9.003   0.218  25.300  0.00  0.00    +0.048 C 
ATOM      9  C   UNL     1      10.416   0.521  24.774  0.00  0.00    +0.011 C 
ATOM     10  C   UNL     1      10.465   0.994  23.325  0.00  0.00    +0.009 C 
ATOM     11  C   UNL     1       9.506   2.163  23.017  0.00  0.00    +0.021 C 
ATOM     12  C   UNL     1       8.086   1.927  23.585  0.00  0.00    +0.040 C 
BRANCH  11  13
ATOM     13  C   UNL     1      10.120   3.532  23.293  0.00  0.00    -0.044 A 
ATOM     14  C   UNL     1       9.290   4.574  23.748  0.00  0.00    +0.004 A 
ATOM     15  C   UNL     1       9.820   5.806  24.137  0.00  0.00    +0.000 A 
ATOM     16  C   UNL     1      11.193   6.024  24.079  0.00  0.00    +0.000 A 
ATOM     17  C   UNL     1      12.030   5.016  23.615  0.00  0.00    +0.000 A 
ATOM     18  C   UNL     1      11.498   3.785  23.234  0.00  0.00    +0.004 A 
ENDBRANCH  11  13
BRANCH   7  19
ATOM     19  O   UNL     1       8.212   2.410  25.975  0.00  0.00    -0.391 OA
ATOM     20  H   UNL     1       8.105   2.037  26.867  0.00  0.00    +0.210 HD
ENDBRANCH   7  19
ENDBRANCH   1   8
BRANCH   4  21
ATOM     21  C   UNL     1       6.822  -4.919  23.669  0.00  0.00    +0.244 C 
ATOM     22  N   UNL     1       5.641  -5.241  24.304  0.00  0.00    -0.311 N 
ATOM     23  H   UNL     1       5.175  -4.546  24.873  0.00  0.00    +0.149 HD
ATOM     24  O   UNL     1       7.382  -5.638  22.851  0.00  0.00    -0.270 OA
BRANCH  22  25
ATOM     25  C   UNL     1       4.953  -6.479  24.045  0.00  0.00    +0.105 C 
BRANCH  25  26
ATOM     26  C   UNL     1       4.300  -7.030  25.308  0.00  0.00    +0.030 C 
BRANCH  26  27
ATOM     27  C   UNL     1       4.544  -6.085  26.476  0.00  0.00    +0.122 C 
BRANCH  27  28
ATOM     28  C   UNL     1       5.640  -6.569  27.385  0.00  0.00    +0.305 C 
ATOM     29  O   UNL     1       5.458  -7.352  28.306  0.00  0.00    -0.251 OA
BRANCH  28  30
ATOM     30  O   UNL     1       6.861  -6.086  27.073  0.00  0.00    -0.481 OA
ATOM     31  H   UNL     1       7.164  -6.310  26.172  0.00  0.00    +0.295 HD
ENDBRANCH  28  30
ENDBRANCH  27  28
ENDBRANCH  26  27
ENDBRANCH  25  26
ENDBRANCH  22  25
ENDBRANCH   4  21
TORSDOF 9
ENDMDL
MODEL 6
REMARK VINA RESULT:      -7.2      1.862      2.739
REMARK  Name = 
REMARK  9 active torsions:
REMARK  status: ('A' for Active; 'I' for Inactive)
REMARK    1  A    between atoms: C_2  and  O_3
REMARK    2  A    between atoms: C_5  and  C_26
REMARK    3  A    between atoms: C_9  and  C_11
REMARK    4  A    between atoms: C_14  and  C_17
REMARK    5  A    between atoms: N_19  and  C_20
REMARK    6  A    between atoms: C_20  and  C_21
REMARK    7  A    between atoms: C_21  and  C_22
REMARK    8  A    between atoms: C_22  and  C_23
REMARK    9  A    between atoms: C_23  and  O_24
REMARK                            x       y       z     vdW  Elec       q    Type
REMARK                         _______ _______ _______ _____ _____    ______ ____
ROOT
ATOM      1  C   UNL     1       8.067  -0.648  22.668  0.00  0.00    -0.042 A 
ATOM      2  C   UNL     1       9.077  -1.506  23.120  0.00  0.00    +0.005 A 
ATOM      3  C   UNL     1       8.803  -2.812  23.503  0.00  0.00    +0.013 A 
ATOM      4  C   UNL     1       7.495  -3.287  23.447  0.00  0.00    +0.037 A 
ATOM      5  C   UNL     1       6.476  -2.471  22.953  0.00  0.00    +0.013 A 
ATOM      6  C   UNL     1       6.762  -1.158  22.571  0.00  0.00    +0.005 A 
ENDROOT
BRANCH   1   8
ATOM      7  C   UNL     1       9.777   1.229  22.588  0.00  0.00    +0.122 C 
ATOM      8  C   UNL     1       8.344   0.788  22.241  0.00  0.00    +0.048 C 
ATOM      9  C   UNL     1       7.291   1.796  22.732  0.00  0.00    +0.011 C 
ATOM     10  C   UNL     1       7.444   2.210  24.192  0.00  0.00    +0.009 C 
ATOM     11  C   UNL     1       8.866   2.681  24.562  0.00  0.00    +0.021 C 
ATOM     12  C   UNL     1       9.961   1.727  24.029  0.00  0.00    +0.040 C 
BRANCH  11  13
ATOM     13  C   UNL     1       9.091   4.169  24.307  0.00  0.00    -0.044 A 
ATOM     14  C   UNL     1       8.053   5.076  24.592  0.00  0.00    +0.004 A 
ATOM     15  C   UNL     1       8.250   6.456  24.498  0.00  0.00    +0.000 A 
ATOM     16  C   UNL     1       9.490   6.959  24.118  0.00  0.00    +0.000 A 
ATOM     17  C   UNL     1      10.524   6.082  23.813  0.00  0.00    +0.000 A 
ATOM     18  C   UNL     1      10.326   4.705  23.914  0.00  0.00    +0.004 A 
ENDBRANCH  11  13
BRANCH   7  19
ATOM     19  O   UNL     1      10.210   2.222  21.652  0.00  0.00    -0.391 OA
ATOM     20  H   UNL     1      11.145   2.426  21.823  0.00  0.00    +0.210 HD
ENDBRANCH   7  19
ENDBRANCH   1   8
BRANCH   4  21
ATOM     21  C   UNL     1       7.183  -4.655  23.924  0.00  0.00    +0.244 C 
ATOM     22  N   UNL     1       6.345  -4.711  25.017  0.00  0.00    -0.311 N 
ATOM     23  H   UNL     1       5.910  -3.863  25.357  0.00  0.00    +0.149 HD
ATOM     24  O   UNL     1       7.640  -5.639  23.356  0.00  0.00    -0.270 OA
BRANCH  22  25
ATOM     25  C   UNL     1       5.927  -5.965  25.590  0.00  0.00    +0.105 C 
BRANCH  25  26
ATOM     26  C   UNL     1       4.415  -6.142  25.505  0.00  0.00    +0.030 C 
BRANCH  26  27
ATOM     27  C   UNL     1       4.050  -6.910  24.243  0.00  0.00    +0.122 C 
BRANCH  27  28
ATOM     28  C   UNL     1       3.785  -5.998  23.075  0.00  0.00    +0.305 C 
ATOM     29  O   UNL     1       2.765  -5.338  22.951  0.00  0.00    -0.251 OA
BRANCH  28  30
ATOM     30  O   UNL     1       4.797  -5.946  22.184  0.00  0.00    -0.481 OA
ATOM     31  H   UNL     1       4.976  -6.791  21.727  0.00  0.00    +0.295 HD
ENDBRANCH  28  30
ENDBRANCH  27  28
ENDBRANCH  26  27
ENDBRANCH  25  26
ENDBRANCH  22  25
ENDBRANCH   4  21
TORSDOF 9
ENDMDL
MODEL 7
REMARK VINA RESULT:      -7.1      2.831      9.381
REMARK  Name = 
REMARK  9 active torsions:
REMARK  status: ('A' for Active; 'I' for Inactive)
REMARK    1  A    between atoms: C_2  and  O_3
REMARK    2  A    between atoms: C_5  and  C_26
REMARK    3  A    between atoms: C_9  and  C_11
REMARK    4  A    between atoms: C_14  and  C_17
REMARK    5  A    between atoms: N_19  and  C_20
REMARK    6  A    between atoms: C_20  and  C_21
REMARK    7  A    between atoms: C_21  and  C_22
REMARK    8  A    between atoms: C_22  and  C_23
REMARK    9  A    between atoms: C_23  and  O_24
REMARK                            x       y       z     vdW  Elec       q    Type
REMARK                         _______ _______ _______ _____ _____    ______ ____
ROOT
ATOM      1  C   UNL     1       8.299  -2.963  23.010  0.00  0.00    -0.042 A 
ATOM      2  C   UNL     1       8.583  -1.997  22.036  0.00  0.00    +0.005 A 
ATOM      3  C   UNL     1       9.310  -0.854  22.338  0.00  0.00    +0.013 A 
ATOM      4  C   UNL     1       9.764  -0.648  23.638  0.00  0.00    +0.037 A 
ATOM      5  C   UNL     1       9.539  -1.616  24.618  0.00  0.00    +0.013 A 
ATOM      6  C   UNL     1       8.806  -2.764  24.305  0.00  0.00    +0.005 A 
ENDROOT
BRANCH   1   8
ATOM      7  C   UNL     1       6.181  -3.917  21.982  0.00  0.00    +0.122 C 
ATOM      8  C   UNL     1       7.506  -4.226  22.702  0.00  0.00    +0.048 C 
ATOM      9  C   UNL     1       7.304  -5.145  23.919  0.00  0.00    +0.011 C 
ATOM     10  C   UNL     1       6.203  -4.697  24.875  0.00  0.00    +0.009 C 
ATOM     11  C   UNL     1       4.856  -4.405  24.183  0.00  0.00    +0.021 C 
ATOM     12  C   UNL     1       5.021  -3.534  22.914  0.00  0.00    +0.040 C 
BRANCH  11  13
ATOM     13  C   UNL     1       3.974  -5.641  24.037  0.00  0.00    -0.044 A 
ATOM     14  C   UNL     1       4.124  -6.699  24.953  0.00  0.00    +0.004 A 
ATOM     15  C   UNL     1       3.258  -7.795  24.944  0.00  0.00    +0.000 A 
ATOM     16  C   UNL     1       2.222  -7.857  24.018  0.00  0.00    +0.000 A 
ATOM     17  C   UNL     1       2.066  -6.833  23.091  0.00  0.00    +0.000 A 
ATOM     18  C   UNL     1       2.928  -5.737  23.108  0.00  0.00    +0.004 A 
ENDBRANCH  11  13
BRANCH   7  19
ATOM     19  O   UNL     1       5.818  -5.027  21.154  0.00  0.00    -0.391 OA
ATOM     20  H   UNL     1       5.901  -5.844  21.675  0.00  0.00    +0.210 HD
ENDBRANCH   7  19
ENDBRANCH   1   8
BRANCH   4  21
ATOM     21  C   UNL     1      10.476   0.605  23.984  0.00  0.00    +0.244 C 
ATOM     22  N   UNL     1      10.115   1.703  23.233  0.00  0.00    -0.311 N 
ATOM     23  H   UNL     1       9.337   1.635  22.590  0.00  0.00    +0.149 HD
ATOM     24  O   UNL     1      11.304   0.630  24.886  0.00  0.00    -0.270 OA
BRANCH  22  25
ATOM     25  C   UNL     1      10.697   3.002  23.458  0.00  0.00    +0.105 C 
BRANCH  25  26
ATOM     26  C   UNL     1       9.628   4.054  23.731  0.00  0.00    +0.030 C 
BRANCH  26  27
ATOM     27  C   UNL     1       8.245   3.424  23.653  0.00  0.00    +0.122 C 
BRANCH  27  28
ATOM     28  C   UNL     1       7.711   3.388  22.247  0.00  0.00    +0.305 C 
ATOM     29  O   UNL     1       7.611   2.364  21.588  0.00  0.00    -0.251 OA
BRANCH  28  30
ATOM     30  O   UNL     1       7.315   4.592  21.783  0.00  0.00    -0.481 OA
ATOM     31  H   UNL     1       7.431   5.326  22.417  0.00  0.00    +0.295 HD
ENDBRANCH  28  30
ENDBRANCH  27  28
ENDBRANCH  26  27
ENDBRANCH  25  26
ENDBRANCH  22  25
ENDBRANCH   4  21
TORSDOF 9
ENDMDL
MODEL 8
REMARK VINA RESULT:      -6.9      2.185      2.811
REMARK  Name = 
REMARK  9 active torsions:
REMARK  status: ('A' for Active; 'I' for Inactive)
REMARK    1  A    between atoms: C_2  and  O_3
REMARK    2  A    between atoms: C_5  and  C_26
REMARK    3  A    between atoms: C_9  and  C_11
REMARK    4  A    between atoms: C_14  and  C_17
REMARK    5  A    between atoms: N_19  and  C_20
REMARK    6  A    between atoms: C_20  and  C_21
REMARK    7  A    between atoms: C_21  and  C_22
REMARK    8  A    between atoms: C_22  and  C_23
REMARK    9  A    between atoms: C_23  and  O_24
REMARK                            x       y       z     vdW  Elec       q    Type
REMARK                         _______ _______ _______ _____ _____    ______ ____
ROOT
ATOM      1  C   UNL     1       8.411  -1.179  24.731  0.00  0.00    -0.042 A 
ATOM      2  C   UNL     1       9.187  -2.333  24.566  0.00  0.00    +0.005 A 
ATOM      3  C   UNL     1       8.643  -3.508  24.065  0.00  0.00    +0.013 A 
ATOM      4  C   UNL     1       7.293  -3.553  23.725  0.00  0.00    +0.037 A 
ATOM      5  C   UNL     1       6.507  -2.405  23.832  0.00  0.00    +0.013 A 
ATOM      6  C   UNL     1       7.063  -1.227  24.337  0.00  0.00    +0.005 A 
ENDROOT
BRANCH   1   8
ATOM      7  C   UNL     1       8.036   1.313  25.051  0.00  0.00    +0.122 C 
ATOM      8  C   UNL     1       8.986   0.122  25.276  0.00  0.00    +0.048 C 
ATOM      9  C   UNL     1      10.415   0.421  24.793  0.00  0.00    +0.011 C 
ATOM     10  C   UNL     1      10.500   0.986  23.378  0.00  0.00    +0.009 C 
ATOM     11  C   UNL     1       9.577   2.197  23.133  0.00  0.00    +0.021 C 
ATOM     12  C   UNL     1       8.142   1.963  23.664  0.00  0.00    +0.040 C 
BRANCH  11  13
ATOM     13  C   UNL     1      10.221   3.529  23.507  0.00  0.00    -0.044 A 
ATOM     14  C   UNL     1      11.591   3.721  23.250  0.00  0.00    +0.004 A 
ATOM     15  C   UNL     1      12.200   4.962  23.454  0.00  0.00    +0.000 A 
ATOM     16  C   UNL     1      11.452   6.038  23.919  0.00  0.00    +0.000 A 
ATOM     17  C   UNL     1      10.100   5.867  24.197  0.00  0.00    +0.000 A 
ATOM     18  C   UNL     1       9.494   4.628  23.986  0.00  0.00    +0.004 A 
ENDBRANCH  11  13
BRANCH   7  19
ATOM     19  O   UNL     1       8.241   2.286  26.081  0.00  0.00    -0.391 OA
ATOM     20  H   UNL     1       7.987   3.160  25.740  0.00  0.00    +0.210 HD
ENDBRANCH   7  19
ENDBRANCH   1   8
BRANCH   4  21
ATOM     21  C   UNL     1       6.688  -4.824  23.261  0.00  0.00    +0.244 C 
ATOM     22  N   UNL     1       5.539  -5.196  23.925  0.00  0.00    -0.311 N 
ATOM     23  H   UNL     1       5.117  -4.559  24.589  0.00  0.00    +0.149 HD
ATOM     24  O   UNL     1       7.189  -5.461  22.343  0.00  0.00    -0.270 OA
BRANCH  22  25
ATOM     25  C   UNL     1       4.816  -6.394  23.581  0.00  0.00    +0.105 C 
BRANCH  25  26
ATOM     26  C   UNL     1       3.337  -6.108  23.353  0.00  0.00    +0.030 C 
BRANCH  26  27
ATOM     27  C   UNL     1       2.516  -7.361  23.620  0.00  0.00    +0.122 C 
BRANCH  27  28
ATOM     28  C   UNL     1       2.593  -7.800  25.057  0.00  0.00    +0.305 C 
ATOM     29  O   UNL     1       2.543  -7.028  26.003  0.00  0.00    -0.251 OA
BRANCH  28  30
ATOM     30  O   UNL     1       2.690  -9.137  25.215  0.00  0.00    -0.481 OA
ATOM     31  H   UNL     1       3.602  -9.483  25.163  0.00  0.00    +0.295 HD
ENDBRANCH  28  30
ENDBRANCH  27  28
ENDBRANCH  26  27
ENDBRANCH  25  26
ENDBRANCH  22  25
ENDBRANCH   4  21
TORSDOF 9
ENDMDL
MODEL 9
REMARK VINA RESULT:      -6.9      3.198      9.193
REMARK  Name = 
REMARK  9 active torsions:
REMARK  status: ('A' for Active; 'I' for Inactive)
REMARK    1  A    between atoms: C_2  and  O_3
REMARK    2  A    between atoms: C_5  and  C_26
REMARK    3  A    between atoms: C_9  and  C_11
REMARK    4  A    between atoms: C_14  and  C_17
REMARK    5  A    between atoms: N_19  and  C_20
REMARK    6  A    between atoms: C_20  and  C_21
REMARK    7  A    between atoms: C_21  and  C_22
REMARK    8  A    between atoms: C_22  and  C_23
REMARK    9  A    between atoms: C_23  and  O_24
REMARK                            x       y       z     vdW  Elec       q    Type
REMARK                         _______ _______ _______ _____ _____    ______ ____
ROOT
ATOM      1  C   UNL     1       9.359  -0.732  23.358  0.00  0.00    -0.042 A 
ATOM      2  C   UNL     1       9.192   0.090  22.236  0.00  0.00    +0.005 A 
ATOM      3  C   UNL     1       9.617   1.411  22.234  0.00  0.00    +0.013 A 
ATOM      4  C   UNL     1      10.217   1.944  23.372  0.00  0.00    +0.037 A 
ATOM      5  C   UNL     1      10.442   1.136  24.488  0.00  0.00    +0.013 A 
ATOM      6  C   UNL     1      10.010  -0.193  24.481  0.00  0.00    +0.005 A 
ENDROOT
BRANCH   1   8
ATOM      7  C   UNL     1       7.710  -2.434  22.442  0.00  0.00    +0.122 C 
ATOM      8  C   UNL     1       8.903  -2.185  23.384  0.00  0.00    +0.048 C 
ATOM      9  C   UNL     1       8.649  -2.732  24.799  0.00  0.00    +0.011 C 
ATOM     10  C   UNL     1       7.316  -2.312  25.410  0.00  0.00    +0.009 C 
ATOM     11  C   UNL     1       6.100  -2.574  24.498  0.00  0.00    +0.021 C 
ATOM     12  C   UNL     1       6.338  -2.096  23.045  0.00  0.00    +0.040 C 
BRANCH  11  13
ATOM     13  C   UNL     1       5.522  -3.977  24.655  0.00  0.00    -0.044 A 
ATOM     14  C   UNL     1       4.741  -4.516  23.615  0.00  0.00    +0.004 A 
ATOM     15  C   UNL     1       4.296  -5.839  23.653  0.00  0.00    +0.000 A 
ATOM     16  C   UNL     1       4.622  -6.654  24.731  0.00  0.00    +0.000 A 
ATOM     17  C   UNL     1       5.377  -6.139  25.779  0.00  0.00    +0.000 A 
ATOM     18  C   UNL     1       5.825  -4.819  25.736  0.00  0.00    +0.004 A 
ENDBRANCH  11  13
BRANCH   7  19
ATOM     19  O   UNL     1       7.740  -3.790  21.984  0.00  0.00    -0.391 OA
ATOM     20  H   UNL     1       8.604  -3.960  21.572  0.00  0.00    +0.210 HD
ENDBRANCH   7  19
ENDBRANCH   1   8
BRANCH   4  21
ATOM     21  C   UNL     1      10.606   3.374  23.403  0.00  0.00    +0.244 C 
ATOM     22  N   UNL     1       9.552   4.260  23.484  0.00  0.00    -0.311 N 
ATOM     23  H   UNL     1       8.614   3.909  23.627  0.00  0.00    +0.149 HD
ATOM     24  O   UNL     1      11.784   3.707  23.375  0.00  0.00    -0.270 OA
BRANCH  22  25
ATOM     25  C   UNL     1       9.760   5.684  23.545  0.00  0.00    +0.105 C 
BRANCH  25  26
ATOM     26  C   UNL     1       8.511   6.450  23.124  0.00  0.00    +0.030 C 
BRANCH  26  27
ATOM     27  C   UNL     1       7.551   5.521  22.393  0.00  0.00    +0.122 C 
BRANCH  27  28
ATOM     28  C   UNL     1       6.293   5.267  23.177  0.00  0.00    +0.305 C 
ATOM     29  O   UNL     1       5.210   5.758  22.895  0.00  0.00    -0.251 OA
BRANCH  28  30
ATOM     30  O   UNL     1       6.457   4.414  24.210  0.00  0.00    -0.481 OA
ATOM     31  H   UNL     1       7.272   3.877  24.164  0.00  0.00    +0.295 HD
ENDBRANCH  28  30
ENDBRANCH  27  28
ENDBRANCH  26  27
ENDBRANCH  25  26
ENDBRANCH  22  25
ENDBRANCH   4  21
TORSDOF 9
ENDMDL
