MODEL 1
REMARK VINA RESULT:      -5.8      0.000      0.000
REMARK  Name = 
REMARK  15 active torsions:
REMARK  status: ('A' for Active; 'I' for Inactive)
REMARK    1  A    between atoms: C_2  and  O_3
REMARK    2  A    between atoms: C_2  and  C_4
REMARK    3  A    between atoms: C_2  and  C_18
REMARK    4  A    between atoms: C_4  and  N_5
REMARK    5  A    between atoms: N_5  and  C_6
REMARK    6  A    between atoms: N_5  and  S_10
REMARK    7  A    between atoms: C_6  and  C_7
REMARK    8  A    between atoms: S_10  and  C_13
REMARK    9  A    between atoms: C_18  and  C_20
REMARK   10  A    between atoms: C_18  and  N_27
REMARK   11  A    between atoms: C_20  and  C_21
REMARK   12  A    between atoms: C_28  and  C_30
REMARK   13  A    between atoms: C_30  and  C_31
REMARK   14  A    between atoms: C_31  and  C_32
REMARK   15  A    between atoms: N_34  and  C_35
REMARK                            x       y       z     vdW  Elec       q    Type
REMARK                         _______ _______ _______ _____ _____    ______ ____
ROOT
ATOM      1  C   UNL     1       7.102  -0.864  25.818  0.00  0.00    +0.107 C 
ENDROOT
BRANCH   1   2
ATOM      2  N   UNL     1       5.801  -1.430  26.211  0.00  0.00    -0.310 N 
ATOM      3  H   UNL     1       5.540  -1.350  27.187  0.00  0.00    +0.149 HD
ATOM      4  C   UNL     1       4.992  -2.100  25.333  0.00  0.00    +0.214 C 
ATOM      5  O   UNL     1       5.265  -2.252  24.142  0.00  0.00    -0.276 OA
BRANCH   4   6
ATOM      6  C   UNL     1       3.714  -2.631  25.952  0.00  0.00    +0.105 C 
BRANCH   6   7
ATOM      7  C   UNL     1       3.939  -3.964  26.650  0.00  0.00    +0.105 C 
BRANCH   7   8
ATOM      8  C   UNL     1       3.375  -5.103  25.821  0.00  0.00    +0.213 C 
ATOM      9  N   UNL     1       4.089  -6.272  25.924  0.00  0.00    -0.318 N 
ATOM     10  H   UNL     1       4.759  -6.338  26.692  0.00  0.00    +0.148 HD
ATOM     11  C   UNL     1       3.684  -7.500  25.293  0.00  0.00    +0.128 C 
ATOM     12  O   UNL     1       2.348  -4.977  25.161  0.00  0.00    -0.276 OA
ENDBRANCH   7   8
ENDBRANCH   6   7
ENDBRANCH   4   6
ENDBRANCH   1   2
BRANCH   1  13
ATOM     13  C   UNL     1       8.183  -1.382  26.806  0.00  0.00    +0.151 C 
BRANCH  13  14
ATOM     14  O   UNL     1       9.317  -0.503  26.813  0.00  0.00    -0.389 OA
ATOM     15  H   UNL     1       9.296  -0.047  27.678  0.00  0.00    +0.210 HD
ENDBRANCH  13  14
BRANCH  13  16
ATOM     16  C   UNL     1       8.650  -2.818  26.499  0.00  0.00    +0.142 C 
BRANCH  16  17
ATOM     17  N   UNL     1       8.410  -3.213  25.044  0.00  0.00    -0.171 NA
BRANCH  17  18
ATOM     18  S   UNL     1       8.060  -4.919  24.918  0.00  0.00    +0.094 S 
ATOM     19  O   UNL     1       7.185  -5.257  26.019  0.00  0.00    -0.150 OA
ATOM     20  O   UNL     1       9.289  -5.640  24.669  0.00  0.00    -0.150 OA
BRANCH  18  21
ATOM     21  C   UNL     1       7.096  -5.188  23.432  0.00  0.00    +0.258 A 
ATOM     22  O   UNL     1       5.736  -5.422  23.483  0.00  0.00    -0.445 OA
ATOM     23  C   UNL     1       5.294  -5.593  22.216  0.00  0.00    +0.197 A 
ATOM     24  C   UNL     1       6.325  -5.462  21.321  0.00  0.00    +0.043 A 
ATOM     25  C   UNL     1       7.476  -5.199  22.094  0.00  0.00    +0.071 A 
ENDBRANCH  18  21
ENDBRANCH  17  18
BRANCH  17  26
ATOM     26  C   UNL     1       9.575  -2.824  24.164  0.00  0.00    +0.113 C 
BRANCH  26  27
ATOM     27  C   UNL     1       9.315  -1.616  23.309  0.00  0.00    +0.005 C 
ATOM     28  C   UNL     1       8.893  -1.738  21.864  0.00  0.00    +0.005 C 
ATOM     29  C   UNL     1      10.268  -1.234  22.204  0.00  0.00    +0.005 C 
ENDBRANCH  26  27
ENDBRANCH  17  26
ENDBRANCH  16  17
ENDBRANCH  13  16
ENDBRANCH   1  13
BRANCH   1  30
ATOM     30  C   UNL     1       6.991   0.679  25.705  0.00  0.00    +0.060 C 
BRANCH  30  31
ATOM     31  C   UNL     1       7.539   1.274  24.412  0.00  0.00    -0.046 A 
ATOM     32  C   UNL     1       8.789   1.909  24.346  0.00  0.00    +0.004 A 
ATOM     33  C   UNL     1       9.320   2.335  23.126  0.00  0.00    +0.000 A 
ATOM     34  C   UNL     1       8.582   2.186  21.958  0.00  0.00    +0.000 A 
ATOM     35  C   UNL     1       7.305   1.634  22.015  0.00  0.00    +0.000 A 
ATOM     36  C   UNL     1       6.785   1.184  23.232  0.00  0.00    +0.004 A 
ENDBRANCH  30  31
ENDBRANCH   1  30
TORSDOF 14
ENDMDL
MODEL 2
REMARK VINA RESULT:      -5.8      2.884      6.449
REMARK  Name = 
REMARK  15 active torsions:
REMARK  status: ('A' for Active; 'I' for Inactive)
REMARK    1  A    between atoms: C_2  and  O_3
REMARK    2  A    between atoms: C_2  and  C_4
REMARK    3  A    between atoms: C_2  and  C_18
REMARK    4  A    between atoms: C_4  and  N_5
REMARK    5  A    between atoms: N_5  and  C_6
REMARK    6  A    between atoms: N_5  and  S_10
REMARK    7  A    between atoms: C_6  and  C_7
REMARK    8  A    between atoms: S_10  and  C_13
REMARK    9  A    between atoms: C_18  and  C_20
REMARK   10  A    between atoms: C_18  and  N_27
REMARK   11  A    between atoms: C_20  and  C_21
REMARK   12  A    between atoms: C_28  and  C_30
REMARK   13  A    between atoms: C_30  and  C_31
REMARK   14  A    between atoms: C_31  and  C_32
REMARK   15  A    between atoms: N_34  and  C_35
REMARK                            x       y       z     vdW  Elec       q    Type
REMARK                         _______ _______ _______ _____ _____    ______ ____
ROOT
ATOM      1  C   UNL     1       8.696  -2.638  22.826  0.00  0.00    +0.107 C 
ENDROOT
BRANCH   1   2
ATOM      2  N   UNL     1       8.462  -2.703  24.278  0.00  0.00    -0.310 N 
ATOM      3  H   UNL     1       7.999  -1.911  24.706  0.00  0.00    +0.149 HD
ATOM      4  C   UNL     1       8.901  -3.746  25.049  0.00  0.00    +0.214 C 
ATOM      5  O   UNL     1       9.491  -4.725  24.592  0.00  0.00    -0.276 OA
BRANCH   4   6
ATOM      6  C   UNL     1       8.585  -3.599  26.525  0.00  0.00    +0.105 C 
BRANCH   6   7
ATOM      7  C   UNL     1       7.089  -3.678  26.790  0.00  0.00    +0.105 C 
BRANCH   7   8
ATOM      8  C   UNL     1       6.688  -5.093  27.162  0.00  0.00    +0.213 C 
ATOM      9  N   UNL     1       5.423  -5.439  26.748  0.00  0.00    -0.318 N 
ATOM     10  H   UNL     1       4.980  -4.830  26.058  0.00  0.00    +0.148 HD
ATOM     11  C   UNL     1       4.873  -6.758  26.918  0.00  0.00    +0.128 C 
ATOM     12  O   UNL     1       7.457  -5.854  27.740  0.00  0.00    -0.276 OA
ENDBRANCH   7   8
ENDBRANCH   6   7
ENDBRANCH   4   6
ENDBRANCH   1   2
BRANCH   1  13
ATOM     13  C   UNL     1       9.591  -1.403  22.527  0.00  0.00    +0.151 C 
BRANCH  13  14
ATOM     14  O   UNL     1      10.852  -1.819  21.982  0.00  0.00    -0.389 OA
ATOM     15  H   UNL     1      11.503  -1.152  22.278  0.00  0.00    +0.210 HD
ENDBRANCH  13  14
BRANCH  13  16
ATOM     16  C   UNL     1       9.834  -0.514  23.761  0.00  0.00    +0.142 C 
BRANCH  16  17
ATOM     17  N   UNL     1       8.923   0.711  23.789  0.00  0.00    -0.171 NA
BRANCH  17  18
ATOM     18  S   UNL     1       9.743   2.104  23.131  0.00  0.00    +0.094 S 
ATOM     19  O   UNL     1      10.030   1.814  21.743  0.00  0.00    -0.150 OA
ATOM     20  O   UNL     1      10.774   2.529  24.052  0.00  0.00    -0.150 OA
BRANCH  18  21
ATOM     21  C   UNL     1       8.593   3.478  23.113  0.00  0.00    +0.258 A 
ATOM     22  O   UNL     1       7.479   3.479  22.296  0.00  0.00    -0.445 OA
ATOM     23  C   UNL     1       6.815   4.641  22.498  0.00  0.00    +0.197 A 
ATOM     24  C   UNL     1       7.453   5.407  23.440  0.00  0.00    +0.043 A 
ATOM     25  C   UNL     1       8.586   4.665  23.838  0.00  0.00    +0.071 A 
ENDBRANCH  18  21
ENDBRANCH  17  18
BRANCH  17  26
ATOM     26  C   UNL     1       8.404   0.985  25.182  0.00  0.00    +0.113 C 
BRANCH  26  27
ATOM     27  C   UNL     1       6.905   0.972  25.285  0.00  0.00    +0.005 C 
ATOM     28  C   UNL     1       6.164  -0.142  25.987  0.00  0.00    +0.005 C 
ATOM     29  C   UNL     1       6.085  -0.013  24.490  0.00  0.00    +0.005 C 
ENDBRANCH  26  27
ENDBRANCH  17  26
ENDBRANCH  16  17
ENDBRANCH  13  16
ENDBRANCH   1  13
BRANCH   1  30
ATOM     30  C   UNL     1       7.341  -2.672  22.072  0.00  0.00    +0.060 C 
BRANCH  30  31
ATOM     31  C   UNL     1       6.374  -3.759  22.530  0.00  0.00    -0.046 A 
ATOM     32  C   UNL     1       5.154  -3.465  23.158  0.00  0.00    +0.004 A 
ATOM     33  C   UNL     1       4.234  -4.472  23.455  0.00  0.00    +0.000 A 
ATOM     34  C   UNL     1       4.543  -5.800  23.184  0.00  0.00    +0.000 A 
ATOM     35  C   UNL     1       5.784  -6.119  22.637  0.00  0.00    +0.000 A 
ATOM     36  C   UNL     1       6.695  -5.108  22.315  0.00  0.00    +0.004 A 
ENDBRANCH  30  31
ENDBRANCH   1  30
TORSDOF 14
ENDMDL
MODEL 3
REMARK VINA RESULT:      -5.8      1.884      4.120
REMARK  Name = 
REMARK  15 active torsions:
REMARK  status: ('A' for Active; 'I' for Inactive)
REMARK    1  A    between atoms: C_2  and  O_3
REMARK    2  A    between atoms: C_2  and  C_4
REMARK    3  A    between atoms: C_2  and  C_18
REMARK    4  A    between atoms: C_4  and  N_5
REMARK    5  A    between atoms: N_5  and  C_6
REMARK    6  A    between atoms: N_5  and  S_10
REMARK    7  A    between atoms: C_6  and  C_7
REMARK    8  A    between atoms: S_10  and  C_13
REMARK    9  A    between atoms: C_18  and  C_20
REMARK   10  A    between atoms: C_18  and  N_27
REMARK   11  A    between atoms: C_20  and  C_21
REMARK   12  A    between atoms: C_28  and  C_30
REMARK   13  A    between atoms: C_30  and  C_31
REMARK   14  A    between atoms: C_31  and  C_32
REMARK   15  A    between atoms: N_34  and  C_35
REMARK                            x       y       z     vdW  Elec       q    Type
REMARK                         _______ _______ _______ _____ _____    ______ ____
ROOT
ATOM      1  C   UNL     1       9.358  -2.635  24.028  0.00  0.00    +0.107 C 
ENDROOT
BRANCH   1   2
ATOM      2  N   UNL     1       8.303  -3.152  23.140  0.00  0.00    -0.310 N 
ATOM      3  H   UNL     1       7.832  -2.481  22.546  0.00  0.00    +0.149 HD
ATOM      4  C   UNL     1       7.911  -4.464  23.148  0.00  0.00    +0.214 C 
ATOM      5  O   UNL     1       8.428  -5.321  23.865  0.00  0.00    -0.276 OA
BRANCH   4   6
ATOM      6  C   UNL     1       6.786  -4.777  22.181  0.00  0.00    +0.105 C 
BRANCH   6   7
ATOM      7  C   UNL     1       6.015  -6.021  22.598  0.00  0.00    +0.105 C 
BRANCH   7   8
ATOM      8  C   UNL     1       4.548  -5.694  22.808  0.00  0.00    +0.213 C 
ATOM      9  N   UNL     1       3.778  -6.784  23.135  0.00  0.00    -0.318 N 
ATOM     10  H   UNL     1       4.272  -7.629  23.427  0.00  0.00    +0.148 HD
ATOM     11  C   UNL     1       2.379  -6.689  23.462  0.00  0.00    +0.128 C 
ATOM     12  O   UNL     1       4.123  -4.546  22.730  0.00  0.00    -0.276 OA
ENDBRANCH   7   8
ENDBRANCH   6   7
ENDBRANCH   4   6
ENDBRANCH   1   2
BRANCH   1  13
ATOM     13  C   UNL     1       8.693  -1.764  25.129  0.00  0.00    +0.151 C 
BRANCH  13  14
ATOM     14  O   UNL     1       8.849  -2.379  26.416  0.00  0.00    -0.389 OA
ATOM     15  H   UNL     1       9.729  -2.805  26.403  0.00  0.00    +0.210 HD
ENDBRANCH  13  14
BRANCH  13  16
ATOM     16  C   UNL     1       7.198  -1.492  24.869  0.00  0.00    +0.142 C 
BRANCH  16  17
ATOM     17  N   UNL     1       6.473  -0.976  26.110  0.00  0.00    -0.171 NA
BRANCH  17  18
ATOM     18  S   UNL     1       5.102  -1.988  26.489  0.00  0.00    +0.094 S 
ATOM     19  O   UNL     1       4.214  -1.948  25.348  0.00  0.00    -0.150 OA
ATOM     20  O   UNL     1       4.642  -1.686  27.827  0.00  0.00    -0.150 OA
BRANCH  18  21
ATOM     21  C   UNL     1       5.670  -3.684  26.604  0.00  0.00    +0.258 A 
ATOM     22  O   UNL     1       6.834  -4.014  27.270  0.00  0.00    -0.445 OA
ATOM     23  C   UNL     1       7.000  -5.354  27.181  0.00  0.00    +0.197 A 
ATOM     24  C   UNL     1       5.965  -5.925  26.485  0.00  0.00    +0.043 A 
ATOM     25  C   UNL     1       5.112  -4.862  26.120  0.00  0.00    +0.071 A 
ENDBRANCH  18  21
ENDBRANCH  17  18
BRANCH  17  26
ATOM     26  C   UNL     1       6.063   0.470  25.950  0.00  0.00    +0.113 C 
BRANCH  26  27
ATOM     27  C   UNL     1       6.778   1.186  24.840  0.00  0.00    +0.005 C 
ATOM     28  C   UNL     1       6.785   2.694  24.738  0.00  0.00    +0.005 C 
ATOM     29  C   UNL     1       6.004   1.878  23.745  0.00  0.00    +0.005 C 
ENDBRANCH  26  27
ENDBRANCH  17  26
ENDBRANCH  16  17
ENDBRANCH  13  16
ENDBRANCH   1  13
BRANCH   1  30
ATOM     30  C   UNL     1      10.449  -1.921  23.187  0.00  0.00    +0.060 C 
BRANCH  30  31
ATOM     31  C   UNL     1      10.150  -0.466  22.842  0.00  0.00    -0.046 A 
ATOM     32  C   UNL     1       9.405  -0.099  21.711  0.00  0.00    +0.004 A 
ATOM     33  C   UNL     1       9.042   1.231  21.486  0.00  0.00    +0.000 A 
ATOM     34  C   UNL     1       9.469   2.226  22.358  0.00  0.00    +0.000 A 
ATOM     35  C   UNL     1      10.279   1.892  23.440  0.00  0.00    +0.000 A 
ATOM     36  C   UNL     1      10.620   0.557  23.680  0.00  0.00    +0.004 A 
ENDBRANCH  30  31
ENDBRANCH   1  30
TORSDOF 14
ENDMDL
MODEL 4
REMARK VINA RESULT:      -5.7      1.880      4.991
REMARK  Name = 
REMARK  15 active torsions:
REMARK  status: ('A' for Active; 'I' for Inactive)
REMARK    1  A    between atoms: C_2  and  O_3
REMARK    2  A    between atoms: C_2  and  C_4
REMARK    3  A    between atoms: C_2  and  C_18
REMARK    4  A    between atoms: C_4  and  N_5
REMARK    5  A    between atoms: N_5  and  C_6
REMARK    6  A    between atoms: N_5  and  S_10
REMARK    7  A    between atoms: C_6  and  C_7
REMARK    8  A    between atoms: S_10  and  C_13
REMARK    9  A    between atoms: C_18  and  C_20
REMARK   10  A    between atoms: C_18  and  N_27
REMARK   11  A    between atoms: C_20  and  C_21
REMARK   12  A    between atoms: C_28  and  C_30
REMARK   13  A    between atoms: C_30  and  C_31
REMARK   14  A    between atoms: C_31  and  C_32
REMARK   15  A    between atoms: N_34  and  C_35
REMARK                            x       y       z     vdW  Elec       q    Type
REMARK                         _______ _______ _______ _____ _____    ______ ____
ROOT
ATOM      1  C   UNL     1       8.931  -3.107  24.245  0.00  0.00    +0.107 C 
ENDROOT
BRANCH   1   2
ATOM      2  N   UNL     1       8.182  -2.105  25.023  0.00  0.00    -0.310 N 
ATOM      3  H   UNL     1       8.553  -1.856  25.931  0.00  0.00    +0.149 HD
ATOM      4  C   UNL     1       6.997  -1.572  24.590  0.00  0.00    +0.214 C 
ATOM      5  O   UNL     1       6.483  -1.854  23.508  0.00  0.00    -0.276 OA
BRANCH   4   6
ATOM      6  C   UNL     1       6.375  -0.585  25.558  0.00  0.00    +0.105 C 
BRANCH   6   7
ATOM      7  C   UNL     1       7.400   0.405  26.090  0.00  0.00    +0.105 C 
BRANCH   7   8
ATOM      8  C   UNL     1       7.385   1.681  25.268  0.00  0.00    +0.213 C 
ATOM      9  N   UNL     1       8.060   2.726  25.854  0.00  0.00    -0.318 N 
ATOM     10  H   UNL     1       8.680   2.498  26.633  0.00  0.00    +0.148 HD
ATOM     11  C   UNL     1       8.246   4.000  25.211  0.00  0.00    +0.128 C 
ATOM     12  O   UNL     1       6.851   1.736  24.166  0.00  0.00    -0.276 OA
ENDBRANCH   7   8
ENDBRANCH   6   7
ENDBRANCH   4   6
ENDBRANCH   1   2
BRANCH   1  13
ATOM     13  C   UNL     1       9.193  -4.340  25.154  0.00  0.00    +0.151 C 
BRANCH  13  14
ATOM     14  O   UNL     1      10.483  -4.902  24.875  0.00  0.00    -0.389 OA
ATOM     15  H   UNL     1      10.543  -4.965  23.901  0.00  0.00    +0.210 HD
ENDBRANCH  13  14
BRANCH  13  16
ATOM     16  C   UNL     1       8.117  -5.435  25.019  0.00  0.00    +0.142 C 
BRANCH  16  17
ATOM     17  N   UNL     1       6.709  -4.858  24.883  0.00  0.00    -0.171 NA
BRANCH  17  18
ATOM     18  S   UNL     1       5.879  -4.891  26.418  0.00  0.00    +0.094 S 
ATOM     19  O   UNL     1       6.443  -3.837  27.232  0.00  0.00    -0.150 OA
ATOM     20  O   UNL     1       5.798  -6.258  26.887  0.00  0.00    -0.150 OA
BRANCH  18  21
ATOM     21  C   UNL     1       4.169  -4.431  26.144  0.00  0.00    +0.258 A 
ATOM     22  O   UNL     1       3.141  -5.341  26.297  0.00  0.00    -0.445 OA
ATOM     23  C   UNL     1       1.979  -4.707  26.018  0.00  0.00    +0.197 A 
ATOM     24  C   UNL     1       2.208  -3.393  25.697  0.00  0.00    +0.043 A 
ATOM     25  C   UNL     1       3.605  -3.213  25.781  0.00  0.00    +0.071 A 
ENDBRANCH  18  21
ENDBRANCH  17  18
BRANCH  17  26
ATOM     26  C   UNL     1       5.918  -5.575  23.813  0.00  0.00    +0.113 C 
BRANCH  26  27
ATOM     27  C   UNL     1       6.196  -5.085  22.421  0.00  0.00    +0.005 C 
ATOM     28  C   UNL     1       5.943  -5.948  21.207  0.00  0.00    +0.005 C 
ATOM     29  C   UNL     1       7.353  -5.636  21.626  0.00  0.00    +0.005 C 
ENDBRANCH  26  27
ENDBRANCH  17  26
ENDBRANCH  16  17
ENDBRANCH  13  16
ENDBRANCH   1  13
BRANCH   1  30
ATOM     30  C   UNL     1      10.197  -2.455  23.631  0.00  0.00    +0.060 C 
BRANCH  30  31
ATOM     31  C   UNL     1      10.010  -1.027  23.128  0.00  0.00    -0.046 A 
ATOM     32  C   UNL     1      10.459   0.089  23.850  0.00  0.00    +0.004 A 
ATOM     33  C   UNL     1      10.386   1.375  23.310  0.00  0.00    +0.000 A 
ATOM     34  C   UNL     1       9.806   1.574  22.062  0.00  0.00    +0.000 A 
ATOM     35  C   UNL     1       9.280   0.488  21.367  0.00  0.00    +0.000 A 
ATOM     36  C   UNL     1       9.378  -0.803  21.896  0.00  0.00    +0.004 A 
ENDBRANCH  30  31
ENDBRANCH   1  30
TORSDOF 14
ENDMDL
MODEL 5
REMARK VINA RESULT:      -5.7      2.184      5.401
REMARK  Name = 
REMARK  15 active torsions:
REMARK  status: ('A' for Active; 'I' for Inactive)
REMARK    1  A    between atoms: C_2  and  O_3
REMARK    2  A    between atoms: C_2  and  C_4
REMARK    3  A    between atoms: C_2  and  C_18
REMARK    4  A    between atoms: C_4  and  N_5
REMARK    5  A    between atoms: N_5  and  C_6
REMARK    6  A    between atoms: N_5  and  S_10
REMARK    7  A    between atoms: C_6  and  C_7
REMARK    8  A    between atoms: S_10  and  C_13
REMARK    9  A    between atoms: C_18  and  C_20
REMARK   10  A    between atoms: C_18  and  N_27
REMARK   11  A    between atoms: C_20  and  C_21
REMARK   12  A    between atoms: C_28  and  C_30
REMARK   13  A    between atoms: C_30  and  C_31
REMARK   14  A    between atoms: C_31  and  C_32
REMARK   15  A    between atoms: N_34  and  C_35
REMARK                            x       y       z     vdW  Elec       q    Type
REMARK                         _______ _______ _______ _____ _____    ______ ____
ROOT
ATOM      1  C   UNL     1       8.900  -3.010  23.888  0.00  0.00    +0.107 C 
ENDROOT
BRANCH   1   2
ATOM      2  N   UNL     1       7.989  -2.022  24.488  0.00  0.00    -0.310 N 
ATOM      3  H   UNL     1       8.238  -1.660  25.400  0.00  0.00    +0.149 HD
ATOM      4  C   UNL     1       6.815  -1.644  23.892  0.00  0.00    +0.214 C 
ATOM      5  O   UNL     1       6.445  -2.067  22.797  0.00  0.00    -0.276 OA
BRANCH   4   6
ATOM      6  C   UNL     1       6.010  -0.641  24.695  0.00  0.00    +0.105 C 
BRANCH   6   7
ATOM      7  C   UNL     1       6.895   0.175  25.626  0.00  0.00    +0.105 C 
BRANCH   7   8
ATOM      8  C   UNL     1       7.100   1.574  25.076  0.00  0.00    +0.213 C 
ATOM      9  N   UNL     1       7.698   2.437  25.963  0.00  0.00    -0.318 N 
ATOM     10  H   UNL     1       8.143   2.022  26.783  0.00  0.00    +0.148 HD
ATOM     11  C   UNL     1       8.065   3.786  25.621  0.00  0.00    +0.128 C 
ATOM     12  O   UNL     1       6.793   1.869  23.925  0.00  0.00    -0.276 OA
ENDBRANCH   7   8
ENDBRANCH   6   7
ENDBRANCH   4   6
ENDBRANCH   1   2
BRANCH   1  13
ATOM     13  C   UNL     1       9.041  -4.209  24.867  0.00  0.00    +0.151 C 
BRANCH  13  14
ATOM     14  O   UNL     1      10.363  -4.761  24.795  0.00  0.00    -0.389 OA
ATOM     15  H   UNL     1      10.544  -5.137  25.679  0.00  0.00    +0.210 HD
ENDBRANCH  13  14
BRANCH  13  16
ATOM     16  C   UNL     1       8.005  -5.322  24.619  0.00  0.00    +0.142 C 
BRANCH  16  17
ATOM     17  N   UNL     1       6.616  -4.956  25.139  0.00  0.00    -0.171 NA
BRANCH  17  18
ATOM     18  S   UNL     1       6.391  -5.550  26.764  0.00  0.00    +0.094 S 
ATOM     19  O   UNL     1       7.689  -5.556  27.401  0.00  0.00    -0.150 OA
ATOM     20  O   UNL     1       5.551  -6.727  26.729  0.00  0.00    -0.150 OA
BRANCH  18  21
ATOM     21  C   UNL     1       5.412  -4.353  27.670  0.00  0.00    +0.258 A 
ATOM     22  O   UNL     1       4.757  -4.689  28.839  0.00  0.00    -0.445 OA
ATOM     23  C   UNL     1       4.103  -3.591  29.282  0.00  0.00    +0.197 A 
ATOM     24  C   UNL     1       4.320  -2.526  28.444  0.00  0.00    +0.043 A 
ATOM     25  C   UNL     1       5.160  -3.009  27.417  0.00  0.00    +0.071 A 
ENDBRANCH  18  21
ENDBRANCH  17  18
BRANCH  17  26
ATOM     26  C   UNL     1       5.529  -5.454  24.214  0.00  0.00    +0.113 C 
BRANCH  26  27
ATOM     27  C   UNL     1       4.338  -4.543  24.130  0.00  0.00    +0.005 C 
ATOM     28  C   UNL     1       3.073  -4.809  24.911  0.00  0.00    +0.005 C 
ATOM     29  C   UNL     1       3.082  -4.979  23.418  0.00  0.00    +0.005 C 
ENDBRANCH  26  27
ENDBRANCH  17  26
ENDBRANCH  16  17
ENDBRANCH  13  16
ENDBRANCH   1  13
BRANCH   1  30
ATOM     30  C   UNL     1      10.231  -2.322  23.486  0.00  0.00    +0.060 C 
BRANCH  30  31
ATOM     31  C   UNL     1      10.141  -0.815  23.271  0.00  0.00    -0.046 A 
ATOM     32  C   UNL     1      10.530   0.109  24.254  0.00  0.00    +0.004 A 
ATOM     33  C   UNL     1      10.553   1.480  23.986  0.00  0.00    +0.000 A 
ATOM     34  C   UNL     1      10.129   1.955  22.751  0.00  0.00    +0.000 A 
ATOM     35  C   UNL     1       9.661   1.059  21.793  0.00  0.00    +0.000 A 
ATOM     36  C   UNL     1       9.663  -0.316  22.051  0.00  0.00    +0.004 A 
ENDBRANCH  30  31
ENDBRANCH   1  30
TORSDOF 14
ENDMDL
MODEL 6
REMARK VINA RESULT:      -5.7      2.065      5.173
REMARK  Name = 
REMARK  15 active torsions:
REMARK  status: ('A' for Active; 'I' for Inactive)
REMARK    1  A    between atoms: C_2  and  O_3
REMARK    2  A    between atoms: C_2  and  C_4
REMARK    3  A    between atoms: C_2  and  C_18
REMARK    4  A    between atoms: C_4  and  N_5
REMARK    5  A    between atoms: N_5  and  C_6
REMARK    6  A    between atoms: N_5  and  S_10
REMARK    7  A    between atoms: C_6  and  C_7
REMARK    8  A    between atoms: S_10  and  C_13
REMARK    9  A    between atoms: C_18  and  C_20
REMARK   10  A    between atoms: C_18  and  N_27
REMARK   11  A    between atoms: C_20  and  C_21
REMARK   12  A    between atoms: C_28  and  C_30
REMARK   13  A    between atoms: C_30  and  C_31
REMARK   14  A    between atoms: C_31  and  C_32
REMARK   15  A    between atoms: N_34  and  C_35
REMARK                            x       y       z     vdW  Elec       q    Type
REMARK                         _______ _______ _______ _____ _____    ______ ____
ROOT
ATOM      1  C   UNL     1       8.521  -2.786  23.777  0.00  0.00    +0.107 C 
ENDROOT
BRANCH   1   2
ATOM      2  N   UNL     1       7.721  -1.886  24.625  0.00  0.00    -0.310 N 
ATOM      3  H   UNL     1       7.095  -1.245  24.154  0.00  0.00    +0.149 HD
ATOM      4  C   UNL     1       7.850  -1.850  25.987  0.00  0.00    +0.214 C 
ATOM      5  O   UNL     1       8.611  -2.586  26.616  0.00  0.00    -0.276 OA
BRANCH   4   6
ATOM      6  C   UNL     1       6.957  -0.828  26.665  0.00  0.00    +0.105 C 
BRANCH   6   7
ATOM      7  C   UNL     1       7.236   0.582  26.165  0.00  0.00    +0.105 C 
BRANCH   7   8
ATOM      8  C   UNL     1       6.343   0.915  24.984  0.00  0.00    +0.213 C 
ATOM      9  N   UNL     1       6.860   1.879  24.152  0.00  0.00    -0.318 N 
ATOM     10  H   UNL     1       7.850   2.102  24.262  0.00  0.00    +0.148 HD
ATOM     11  C   UNL     1       6.222   2.285  22.928  0.00  0.00    +0.128 C 
ATOM     12  O   UNL     1       5.282   0.331  24.789  0.00  0.00    -0.276 OA
ENDBRANCH   7   8
ENDBRANCH   6   7
ENDBRANCH   4   6
ENDBRANCH   1   2
BRANCH   1  13
ATOM     13  C   UNL     1       8.381  -4.233  24.324  0.00  0.00    +0.151 C 
BRANCH  13  14
ATOM     14  O   UNL     1       9.674  -4.821  24.521  0.00  0.00    -0.389 OA
ATOM     15  H   UNL     1       9.980  -4.507  25.395  0.00  0.00    +0.210 HD
ENDBRANCH  13  14
BRANCH  13  16
ATOM     16  C   UNL     1       7.534  -5.148  23.419  0.00  0.00    +0.142 C 
BRANCH  16  17
ATOM     17  N   UNL     1       6.138  -5.403  23.984  0.00  0.00    -0.171 NA
BRANCH  17  18
ATOM     18  S   UNL     1       5.000  -4.232  23.367  0.00  0.00    +0.094 S 
ATOM     19  O   UNL     1       5.314  -4.027  21.971  0.00  0.00    -0.150 OA
ATOM     20  O   UNL     1       4.898  -3.130  24.299  0.00  0.00    -0.150 OA
BRANCH  18  21
ATOM     21  C   UNL     1       3.366  -4.968  23.395  0.00  0.00    +0.258 A 
ATOM     22  O   UNL     1       3.065  -6.093  22.652  0.00  0.00    -0.445 OA
ATOM     23  C   UNL     1       1.767  -6.403  22.872  0.00  0.00    +0.197 A 
ATOM     24  C   UNL     1       1.200  -5.521  23.756  0.00  0.00    +0.043 A 
ATOM     25  C   UNL     1       2.220  -4.606  24.096  0.00  0.00    +0.071 A 
ENDBRANCH  18  21
ENDBRANCH  17  18
BRANCH  17  26
ATOM     26  C   UNL     1       6.147  -5.419  25.496  0.00  0.00    +0.113 C 
BRANCH  26  27
ATOM     27  C   UNL     1       5.190  -6.407  26.099  0.00  0.00    +0.005 C 
ATOM     28  C   UNL     1       4.035  -5.968  26.968  0.00  0.00    +0.005 C 
ATOM     29  C   UNL     1       5.204  -6.688  27.581  0.00  0.00    +0.005 C 
ENDBRANCH  26  27
ENDBRANCH  17  26
ENDBRANCH  16  17
ENDBRANCH  13  16
ENDBRANCH   1  13
BRANCH   1  30
ATOM     30  C   UNL     1       9.974  -2.254  23.671  0.00  0.00    +0.060 C 
BRANCH  30  31
ATOM     31  C   UNL     1      10.097  -0.773  23.331  0.00  0.00    -0.046 A 
ATOM     32  C   UNL     1       9.786  -0.265  22.060  0.00  0.00    +0.004 A 
ATOM     33  C   UNL     1       9.790   1.110  21.811  0.00  0.00    +0.000 A 
ATOM     34  C   UNL     1      10.164   1.997  22.814  0.00  0.00    +0.000 A 
ATOM     35  C   UNL     1      10.557   1.506  24.056  0.00  0.00    +0.000 A 
ATOM     36  C   UNL     1      10.527   0.131  24.313  0.00  0.00    +0.004 A 
ENDBRANCH  30  31
ENDBRANCH   1  30
TORSDOF 14
ENDMDL
MODEL 7
REMARK VINA RESULT:      -5.7      2.964      6.929
REMARK  Name = 
REMARK  15 active torsions:
REMARK  status: ('A' for Active; 'I' for Inactive)
REMARK    1  A    between atoms: C_2  and  O_3
REMARK    2  A    between atoms: C_2  and  C_4
REMARK    3  A    between atoms: C_2  and  C_18
REMARK    4  A    between atoms: C_4  and  N_5
REMARK    5  A    between atoms: N_5  and  C_6
REMARK    6  A    between atoms: N_5  and  S_10
REMARK    7  A    between atoms: C_6  and  C_7
REMARK    8  A    between atoms: S_10  and  C_13
REMARK    9  A    between atoms: C_18  and  C_20
REMARK   10  A    between atoms: C_18  and  N_27
REMARK   11  A    between atoms: C_20  and  C_21
REMARK   12  A    between atoms: C_28  and  C_30
REMARK   13  A    between atoms: C_30  and  C_31
REMARK   14  A    between atoms: C_31  and  C_32
REMARK   15  A    between atoms: N_34  and  C_35
REMARK                            x       y       z     vdW  Elec       q    Type
REMARK                         _______ _______ _______ _____ _____    ______ ____
ROOT
ATOM      1  C   UNL     1       8.030  -1.679  23.287  0.00  0.00    +0.107 C 
ENDROOT
BRANCH   1   2
ATOM      2  N   UNL     1       8.012  -2.650  24.394  0.00  0.00    -0.310 N 
ATOM      3  H   UNL     1       7.165  -2.704  24.946  0.00  0.00    +0.149 HD
ATOM      4  C   UNL     1       9.103  -3.407  24.728  0.00  0.00    +0.214 C 
ATOM      5  O   UNL     1      10.169  -3.368  24.112  0.00  0.00    -0.276 OA
BRANCH   4   6
ATOM      6  C   UNL     1       8.882  -4.317  25.921  0.00  0.00    +0.105 C 
BRANCH   6   7
ATOM      7  C   UNL     1       7.900  -5.434  25.602  0.00  0.00    +0.105 C 
BRANCH   7   8
ATOM      8  C   UNL     1       6.918  -5.623  26.744  0.00  0.00    +0.213 C 
ATOM      9  N   UNL     1       5.825  -6.388  26.414  0.00  0.00    -0.318 N 
ATOM     10  H   UNL     1       5.883  -6.931  25.551  0.00  0.00    +0.148 HD
ATOM     11  C   UNL     1       4.814  -6.766  27.367  0.00  0.00    +0.128 C 
ATOM     12  O   UNL     1       7.127  -5.161  27.861  0.00  0.00    -0.276 OA
ENDBRANCH   7   8
ENDBRANCH   6   7
ENDBRANCH   4   6
ENDBRANCH   1   2
BRANCH   1  13
ATOM     13  C   UNL     1       7.367  -0.362  23.777  0.00  0.00    +0.151 C 
BRANCH  13  14
ATOM     14  O   UNL     1       5.939  -0.497  23.797  0.00  0.00    -0.389 OA
ATOM     15  H   UNL     1       5.733  -1.048  24.578  0.00  0.00    +0.210 HD
ENDBRANCH  13  14
BRANCH  13  16
ATOM     16  C   UNL     1       7.754   0.866  22.930  0.00  0.00    +0.142 C 
BRANCH  16  17
ATOM     17  N   UNL     1       8.465   1.941  23.749  0.00  0.00    -0.171 NA
BRANCH  17  18
ATOM     18  S   UNL     1      10.145   2.056  23.288  0.00  0.00    +0.094 S 
ATOM     19  O   UNL     1      10.215   1.814  21.864  0.00  0.00    -0.150 OA
ATOM     20  O   UNL     1      10.950   1.310  24.230  0.00  0.00    -0.150 OA
BRANCH  18  21
ATOM     21  C   UNL     1      10.678   3.751  23.519  0.00  0.00    +0.258 A 
ATOM     22  O   UNL     1      11.999   4.123  23.360  0.00  0.00    -0.445 OA
ATOM     23  C   UNL     1      12.091   5.450  23.604  0.00  0.00    +0.197 A 
ATOM     24  C   UNL     1      10.860   5.974  23.908  0.00  0.00    +0.043 A 
ATOM     25  C   UNL     1       9.955   4.892  23.849  0.00  0.00    +0.071 A 
ENDBRANCH  18  21
ENDBRANCH  17  18
BRANCH  17  26
ATOM     26  C   UNL     1       8.317   1.697  25.233  0.00  0.00    +0.113 C 
BRANCH  26  27
ATOM     27  C   UNL     1       7.568   2.781  25.955  0.00  0.00    +0.005 C 
ATOM     28  C   UNL     1       6.570   2.469  27.046  0.00  0.00    +0.005 C 
ATOM     29  C   UNL     1       6.092   2.988  25.718  0.00  0.00    +0.005 C 
ENDBRANCH  26  27
ENDBRANCH  17  26
ENDBRANCH  16  17
ENDBRANCH  13  16
ENDBRANCH   1  13
BRANCH   1  30
ATOM     30  C   UNL     1       7.392  -2.312  22.023  0.00  0.00    +0.060 C 
BRANCH  30  31
ATOM     31  C   UNL     1       6.646  -3.621  22.262  0.00  0.00    -0.046 A 
ATOM     32  C   UNL     1       7.193  -4.870  21.926  0.00  0.00    +0.004 A 
ATOM     33  C   UNL     1       6.542  -6.057  22.267  0.00  0.00    +0.000 A 
ATOM     34  C   UNL     1       5.303  -6.016  22.897  0.00  0.00    +0.000 A 
ATOM     35  C   UNL     1       4.707  -4.785  23.163  0.00  0.00    +0.000 A 
ATOM     36  C   UNL     1       5.371  -3.596  22.845  0.00  0.00    +0.004 A 
ENDBRANCH  30  31
ENDBRANCH   1  30
TORSDOF 14
ENDMDL
MODEL 8
REMARK VINA RESULT:      -5.6      2.261      5.174
REMARK  Name = 
REMARK  15 active torsions:
REMARK  status: ('A' for Active; 'I' for Inactive)
REMARK    1  A    between atoms: C_2  and  O_3
REMARK    2  A    between atoms: C_2  and  C_4
REMARK    3  A    between atoms: C_2  and  C_18
REMARK    4  A    between atoms: C_4  and  N_5
REMARK    5  A    between atoms: N_5  and  C_6
REMARK    6  A    between atoms: N_5  and  S_10
REMARK    7  A    between atoms: C_6  and  C_7
REMARK    8  A    between atoms: S_10  and  C_13
REMARK    9  A    between atoms: C_18  and  C_20
REMARK   10  A    between atoms: C_18  and  N_27
REMARK   11  A    between atoms: C_20  and  C_21
REMARK   12  A    between atoms: C_28  and  C_30
REMARK   13  A    between atoms: C_30  and  C_31
REMARK   14  A    between atoms: C_31  and  C_32
REMARK   15  A    between atoms: N_34  and  C_35
REMARK                            x       y       z     vdW  Elec       q    Type
REMARK                         _______ _______ _______ _____ _____    ______ ____
ROOT
ATOM      1  C   UNL     1       8.614  -2.679  24.305  0.00  0.00    +0.107 C 
ENDROOT
BRANCH   1   2
ATOM      2  N   UNL     1       7.812  -1.482  24.610  0.00  0.00    -0.310 N 
ATOM      3  H   UNL     1       8.138  -0.889  25.364  0.00  0.00    +0.149 HD
ATOM      4  C   UNL     1       6.639  -1.197  23.965  0.00  0.00    +0.214 C 
ATOM      5  O   UNL     1       6.178  -1.891  23.059  0.00  0.00    -0.276 OA
BRANCH   4   6
ATOM      6  C   UNL     1       5.955   0.065  24.456  0.00  0.00    +0.105 C 
BRANCH   6   7
ATOM      7  C   UNL     1       6.937   1.219  24.594  0.00  0.00    +0.105 C 
BRANCH   7   8
ATOM      8  C   UNL     1       6.450   2.429  23.818  0.00  0.00    +0.213 C 
ATOM      9  N   UNL     1       5.225   2.248  23.220  0.00  0.00    -0.318 N 
ATOM     10  H   UNL     1       4.672   1.448  23.531  0.00  0.00    +0.148 HD
ATOM     11  C   UNL     1       4.536   3.293  22.508  0.00  0.00    +0.128 C 
ATOM     12  O   UNL     1       7.090   3.475  23.780  0.00  0.00    -0.276 OA
ENDBRANCH   7   8
ENDBRANCH   6   7
ENDBRANCH   4   6
ENDBRANCH   1   2
BRANCH   1  13
ATOM     13  C   UNL     1       8.710  -3.548  25.589  0.00  0.00    +0.151 C 
BRANCH  13  14
ATOM     14  O   UNL     1       9.288  -4.825  25.288  0.00  0.00    -0.389 OA
ATOM     15  H   UNL     1       9.682  -5.145  26.124  0.00  0.00    +0.210 HD
ENDBRANCH  13  14
BRANCH  13  16
ATOM     16  C   UNL     1       7.352  -3.751  26.290  0.00  0.00    +0.142 C 
BRANCH  16  17
ATOM     17  N   UNL     1       6.868  -5.197  26.219  0.00  0.00    -0.171 NA
BRANCH  17  18
ATOM     18  S   UNL     1       5.449  -5.324  25.210  0.00  0.00    +0.094 S 
ATOM     19  O   UNL     1       4.772  -4.047  25.264  0.00  0.00    -0.150 OA
ATOM     20  O   UNL     1       4.766  -6.565  25.502  0.00  0.00    -0.150 OA
BRANCH  18  21
ATOM     21  C   UNL     1       5.983  -5.519  23.511  0.00  0.00    +0.258 A 
ATOM     22  O   UNL     1       7.318  -5.657  23.182  0.00  0.00    -0.445 OA
ATOM     23  C   UNL     1       7.406  -5.777  21.838  0.00  0.00    +0.197 A 
ATOM     24  C   UNL     1       6.160  -5.739  21.264  0.00  0.00    +0.043 A 
ATOM     25  C   UNL     1       5.249  -5.579  22.331  0.00  0.00    +0.071 A 
ENDBRANCH  18  21
ENDBRANCH  17  18
BRANCH  17  26
ATOM     26  C   UNL     1       6.617  -5.766  27.597  0.00  0.00    +0.113 C 
BRANCH  26  27
ATOM     27  C   UNL     1       5.740  -4.903  28.460  0.00  0.00    +0.005 C 
ATOM     28  C   UNL     1       5.364  -5.305  29.867  0.00  0.00    +0.005 C 
ATOM     29  C   UNL     1       4.325  -5.318  28.779  0.00  0.00    +0.005 C 
ENDBRANCH  26  27
ENDBRANCH  17  26
ENDBRANCH  16  17
ENDBRANCH  13  16
ENDBRANCH   1  13
BRANCH   1  30
ATOM     30  C   UNL     1       9.972  -2.258  23.686  0.00  0.00    +0.060 C 
BRANCH  30  31
ATOM     31  C   UNL     1      10.090  -0.780  23.329  0.00  0.00    -0.046 A 
ATOM     32  C   UNL     1       9.717  -0.278  22.073  0.00  0.00    +0.004 A 
ATOM     33  C   UNL     1       9.719   1.095  21.815  0.00  0.00    +0.000 A 
ATOM     34  C   UNL     1      10.152   1.986  22.790  0.00  0.00    +0.000 A 
ATOM     35  C   UNL     1      10.605   1.499  24.014  0.00  0.00    +0.000 A 
ATOM     36  C   UNL     1      10.578   0.127  24.282  0.00  0.00    +0.004 A 
ENDBRANCH  30  31
ENDBRANCH   1  30
TORSDOF 14
ENDMDL
MODEL 9
REMARK VINA RESULT:      -5.6      2.917      6.336
REMARK  Name = 
REMARK  15 active torsions:
REMARK  status: ('A' for Active; 'I' for Inactive)
REMARK    1  A    between atoms: C_2  and  O_3
REMARK    2  A    between atoms: C_2  and  C_4
REMARK    3  A    between atoms: C_2  and  C_18
REMARK    4  A    between atoms: C_4  and  N_5
REMARK    5  A    between atoms: N_5  and  C_6
REMARK    6  A    between atoms: N_5  and  S_10
REMARK    7  A    between atoms: C_6  and  C_7
REMARK    8  A    between atoms: S_10  and  C_13
REMARK    9  A    between atoms: C_18  and  C_20
REMARK   10  A    between atoms: C_18  and  N_27
REMARK   11  A    between atoms: C_20  and  C_21
REMARK   12  A    between atoms: C_28  and  C_30
REMARK   13  A    between atoms: C_30  and  C_31
REMARK   14  A    between atoms: C_31  and  C_32
REMARK   15  A    between atoms: N_34  and  C_35
REMARK                            x       y       z     vdW  Elec       q    Type
REMARK                         _______ _______ _______ _____ _____    ______ ____
ROOT
ATOM      1  C   UNL     1       9.350  -2.412  23.438  0.00  0.00    +0.107 C 
ENDROOT
BRANCH   1   2
ATOM      2  N   UNL     1       8.774  -2.985  24.666  0.00  0.00    -0.310 N 
ATOM      3  H   UNL     1       8.025  -2.467  25.108  0.00  0.00    +0.149 HD
ATOM      4  C   UNL     1       9.260  -4.128  25.244  0.00  0.00    +0.214 C 
ATOM      5  O   UNL     1      10.184  -4.787  24.769  0.00  0.00    -0.276 OA
BRANCH   4   6
ATOM      6  C   UNL     1       8.545  -4.524  26.522  0.00  0.00    +0.105 C 
BRANCH   6   7
ATOM      7  C   UNL     1       7.278  -5.315  26.236  0.00  0.00    +0.105 C 
BRANCH   7   8
ATOM      8  C   UNL     1       6.052  -4.438  26.412  0.00  0.00    +0.213 C 
ATOM      9  N   UNL     1       4.880  -5.144  26.553  0.00  0.00    -0.318 N 
ATOM     10  H   UNL     1       4.963  -6.142  26.756  0.00  0.00    +0.148 HD
ATOM     11  C   UNL     1       3.612  -4.518  26.819  0.00  0.00    +0.128 C 
ATOM     12  O   UNL     1       6.132  -3.216  26.466  0.00  0.00    -0.276 OA
ENDBRANCH   7   8
ENDBRANCH   6   7
ENDBRANCH   4   6
ENDBRANCH   1   2
BRANCH   1  13
ATOM     13  C   UNL     1      10.023  -1.058  23.794  0.00  0.00    +0.151 C 
BRANCH  13  14
ATOM     14  O   UNL     1       9.407  -0.482  24.954  0.00  0.00    -0.389 OA
ATOM     15  H   UNL     1       9.829  -0.914  25.723  0.00  0.00    +0.210 HD
ENDBRANCH  13  14
BRANCH  13  16
ATOM     16  C   UNL     1       9.992  -0.040  22.638  0.00  0.00    +0.142 C 
BRANCH  16  17
ATOM     17  N   UNL     1       9.500   1.336  23.082  0.00  0.00    -0.171 NA
BRANCH  17  18
ATOM     18  S   UNL     1       7.837   1.578  22.608  0.00  0.00    +0.094 S 
ATOM     19  O   UNL     1       7.024   0.739  23.459  0.00  0.00    -0.150 OA
ATOM     20  O   UNL     1       7.741   1.526  21.165  0.00  0.00    -0.150 OA
BRANCH  18  21
ATOM     21  C   UNL     1       7.378   3.264  23.006  0.00  0.00    +0.258 A 
ATOM     22  O   UNL     1       7.341   4.252  22.041  0.00  0.00    -0.445 OA
ATOM     23  C   UNL     1       6.971   5.407  22.640  0.00  0.00    +0.197 A 
ATOM     24  C   UNL     1       6.745   5.208  23.979  0.00  0.00    +0.043 A 
ATOM     25  C   UNL     1       7.000   3.840  24.214  0.00  0.00    +0.071 A 
ENDBRANCH  18  21
ENDBRANCH  17  18
BRANCH  17  26
ATOM     26  C   UNL     1      10.389   2.439  22.557  0.00  0.00    +0.113 C 
BRANCH  26  27
ATOM     27  C   UNL     1      10.957   3.324  23.629  0.00  0.00    +0.005 C 
ATOM     28  C   UNL     1      10.611   4.792  23.718  0.00  0.00    +0.005 C 
ATOM     29  C   UNL     1      11.992   4.370  23.298  0.00  0.00    +0.005 C 
ENDBRANCH  26  27
ENDBRANCH  17  26
ENDBRANCH  16  17
ENDBRANCH  13  16
ENDBRANCH   1  13
BRANCH   1  30
ATOM     30  C   UNL     1       8.264  -2.343  22.332  0.00  0.00    +0.060 C 
BRANCH  30  31
ATOM     31  C   UNL     1       7.153  -3.380  22.451  0.00  0.00    -0.046 A 
ATOM     32  C   UNL     1       7.366  -4.744  22.198  0.00  0.00    +0.004 A 
ATOM     33  C   UNL     1       6.364  -5.687  22.434  0.00  0.00    +0.000 A 
ATOM     34  C   UNL     1       5.110  -5.276  22.869  0.00  0.00    +0.000 A 
ATOM     35  C   UNL     1       4.853  -3.918  23.046  0.00  0.00    +0.000 A 
ATOM     36  C   UNL     1       5.865  -2.976  22.835  0.00  0.00    +0.004 A 
ENDBRANCH  30  31
ENDBRANCH   1  30
TORSDOF 14
ENDMDL
