MODEL 1
REMARK VINA RESULT:      -5.7      0.000      0.000
REMARK  Name = 
REMARK  14 active torsions:
REMARK  status: ('A' for Active; 'I' for Inactive)
REMARK    1  A    between atoms: C_1  and  C_2
REMARK    2  A    between atoms: C_2  and  C_3
REMARK    3  A    between atoms: C_2  and  C_4
REMARK    4  A    between atoms: C_2  and  C_5
REMARK    5  A    between atoms: C_6  and  C_7
REMARK    6  A    between atoms: C_7  and  CA_8
REMARK    7  A    between atoms: CA_8  and  N_10
REMARK    8  A    between atoms: CA_8  and  C_11
REMARK    9  A    between atoms: C_11  and  O_12
REMARK   10  A    between atoms: C_14  and  O_15
REMARK   11  A    between atoms: O_15  and  C_16
REMARK   12  A    between atoms: C_16  and  P_17
REMARK   13  A    between atoms: P_17  and  O_18
REMARK   14  A    between atoms: P_17  and  O_19
REMARK                            x       y       z     vdW  Elec       q    Type
REMARK                         _______ _______ _______ _____ _____    ______ ____
ROOT
ATOM      1  C   UNL     1       4.576  -4.796  23.912  0.00  0.00    +0.150 A 
ATOM      2  O   UNL     1       4.418  -4.352  22.620  0.00  0.00    -0.355 OA
ATOM      3  N   UNL     1       5.405  -3.444  22.284  0.00  0.00    -0.040 NA
ATOM      4  C   UNL     1       6.151  -3.316  23.374  0.00  0.00    +0.259 A 
ATOM      5  C   UNL     1       5.670  -4.122  24.461  0.00  0.00    +0.060 A 
ENDROOT
BRANCH   1   7
ATOM      6  C   UNL     1       4.247  -7.113  24.858  0.00  0.00    +0.019 C 
ATOM      7  C   UNL     1       3.543  -5.836  24.357  0.00  0.00    +0.023 C 
ATOM      8  C   UNL     1       2.685  -5.298  25.529  0.00  0.00    +0.019 C 
ATOM      9  C   UNL     1       2.553  -6.219  23.241  0.00  0.00    +0.019 C 
ENDBRANCH   1   7
BRANCH   4  10
ATOM     10  O   UNL     1       7.218  -2.472  23.405  0.00  0.00    -0.462 OA
BRANCH  10  11
ATOM     11  C   UNL     1       8.265  -2.632  22.394  0.00  0.00    +0.357 C 
BRANCH  11  12
ATOM     12  P   UNL     1       9.509  -1.384  22.889  0.00  0.00    +0.365 P 
ATOM     13  O   UNL     1      10.561  -0.327  23.306  0.00  0.00    -0.255 OA
BRANCH  12  14
ATOM     14  O   UNL     1      10.105  -1.455  21.345  0.00  0.00    -0.322 OA
ATOM     15  H   UNL     1       9.540  -1.859  20.655  0.00  0.00    +0.220 HD
ENDBRANCH  12  14
BRANCH  12  16
ATOM     16  O   UNL     1      10.312  -2.699  23.477  0.00  0.00    -0.322 OA
ATOM     17  H   UNL     1      10.698  -2.553  24.359  0.00  0.00    +0.220 HD
ENDBRANCH  12  16
ENDBRANCH  11  12
ENDBRANCH  10  11
ENDBRANCH   4  10
BRANCH   5  18
ATOM     18  C   UNL     1       6.297  -4.245  25.826  0.00  0.00    +0.074 C 
BRANCH  18  19
ATOM     19  CA  UNL     1       7.404  -5.304  25.994  0.00  0.00    +0.165 C 
BRANCH  19  20
ATOM     20  N   UNL     1       7.609  -5.809  27.380  0.00  0.00    -0.318 NA
ATOM     21  H1  UNL     1       6.696  -5.861  27.839  0.00  0.00    +0.119 HD
ATOM     22  H2  UNL     1       7.908  -6.791  27.321  0.00  0.00    +0.119 HD
ENDBRANCH  19  20
BRANCH  19  23
ATOM     23  C   UNL     1       8.726  -4.739  25.474  0.00  0.00    +0.322 C 
ATOM     24  OXT UNL     1       9.504  -5.359  24.784  0.00  0.00    -0.249 OA
BRANCH  23  25
ATOM     25  O   UNL     1       8.898  -3.446  25.832  0.00  0.00    -0.480 OA
ATOM     26  H   UNL     1       9.078  -3.438  26.802  0.00  0.00    +0.295 HD
ENDBRANCH  23  25
ENDBRANCH  19  23
ENDBRANCH  18  19
ENDBRANCH   5  18
TORSDOF 11
ENDMDL
MODEL 2
REMARK VINA RESULT:      -5.6      1.711      2.191
REMARK  Name = 
REMARK  14 active torsions:
REMARK  status: ('A' for Active; 'I' for Inactive)
REMARK    1  A    between atoms: C_1  and  C_2
REMARK    2  A    between atoms: C_2  and  C_3
REMARK    3  A    between atoms: C_2  and  C_4
REMARK    4  A    between atoms: C_2  and  C_5
REMARK    5  A    between atoms: C_6  and  C_7
REMARK    6  A    between atoms: C_7  and  CA_8
REMARK    7  A    between atoms: CA_8  and  N_10
REMARK    8  A    between atoms: CA_8  and  C_11
REMARK    9  A    between atoms: C_11  and  O_12
REMARK   10  A    between atoms: C_14  and  O_15
REMARK   11  A    between atoms: O_15  and  C_16
REMARK   12  A    between atoms: C_16  and  P_17
REMARK   13  A    between atoms: P_17  and  O_18
REMARK   14  A    between atoms: P_17  and  O_19
REMARK                            x       y       z     vdW  Elec       q    Type
REMARK                         _______ _______ _______ _____ _____    ______ ____
ROOT
ATOM      1  C   UNL     1       5.769  -4.174  23.719  0.00  0.00    +0.150 A 
ATOM      2  O   UNL     1       5.265  -3.036  23.136  0.00  0.00    -0.355 OA
ATOM      3  N   UNL     1       6.279  -2.257  22.610  0.00  0.00    -0.040 NA
ATOM      4  C   UNL     1       7.402  -2.906  22.891  0.00  0.00    +0.259 A 
ATOM      5  C   UNL     1       7.163  -4.120  23.620  0.00  0.00    +0.060 A 
ENDROOT
BRANCH   1   7
ATOM      6  C   UNL     1       4.753  -5.093  25.839  0.00  0.00    +0.019 C 
ATOM      7  C   UNL     1       4.709  -5.116  24.298  0.00  0.00    +0.023 C 
ATOM      8  C   UNL     1       3.286  -4.674  23.876  0.00  0.00    +0.019 C 
ATOM      9  C   UNL     1       4.866  -6.571  23.818  0.00  0.00    +0.019 C 
ENDBRANCH   1   7
BRANCH   4  10
ATOM     10  O   UNL     1       8.616  -2.407  22.532  0.00  0.00    -0.462 OA
BRANCH  10  11
ATOM     11  C   UNL     1       9.330  -1.555  23.485  0.00  0.00    +0.357 C 
BRANCH  11  12
ATOM     12  P   UNL     1       9.712  -0.062  22.498  0.00  0.00    +0.365 P 
ATOM     13  O   UNL     1      10.034   1.202  21.663  0.00  0.00    -0.255 OA
BRANCH  12  14
ATOM     14  O   UNL     1       8.084   0.241  22.438  0.00  0.00    -0.322 OA
ATOM     15  H   UNL     1       7.702   0.514  21.580  0.00  0.00    +0.220 HD
ENDBRANCH  12  14
BRANCH  12  16
ATOM     16  O   UNL     1       9.764  -1.138  21.248  0.00  0.00    -0.322 OA
ATOM     17  H   UNL     1       9.218  -1.930  21.397  0.00  0.00    +0.220 HD
ENDBRANCH  12  16
ENDBRANCH  11  12
ENDBRANCH  10  11
ENDBRANCH   4  10
BRANCH   5  18
ATOM     18  C   UNL     1       8.204  -5.113  24.067  0.00  0.00    +0.074 C 
BRANCH  18  19
ATOM     19  CA  UNL     1       9.102  -4.701  25.249  0.00  0.00    +0.165 C 
BRANCH  19  20
ATOM     20  N   UNL     1      10.350  -5.496  25.420  0.00  0.00    -0.318 NA
ATOM     21  H1  UNL     1      10.839  -5.149  26.249  0.00  0.00    +0.119 HD
ATOM     22  H2  UNL     1      10.085  -6.456  25.677  0.00  0.00    +0.119 HD
ENDBRANCH  19  20
BRANCH  19  23
ATOM     23  C   UNL     1       8.294  -4.766  26.544  0.00  0.00    +0.322 C 
ATOM     24  OXT UNL     1       7.811  -3.800  27.093  0.00  0.00    -0.249 OA
BRANCH  23  25
ATOM     25  O   UNL     1       8.136  -6.037  26.978  0.00  0.00    -0.480 OA
ATOM     26  H   UNL     1       8.778  -6.594  26.475  0.00  0.00    +0.295 HD
ENDBRANCH  23  25
ENDBRANCH  19  23
ENDBRANCH  18  19
ENDBRANCH   5  18
TORSDOF 11
ENDMDL
MODEL 3
REMARK VINA RESULT:      -5.5      2.955      5.704
REMARK  Name = 
REMARK  14 active torsions:
REMARK  status: ('A' for Active; 'I' for Inactive)
REMARK    1  A    between atoms: C_1  and  C_2
REMARK    2  A    between atoms: C_2  and  C_3
REMARK    3  A    between atoms: C_2  and  C_4
REMARK    4  A    between atoms: C_2  and  C_5
REMARK    5  A    between atoms: C_6  and  C_7
REMARK    6  A    between atoms: C_7  and  CA_8
REMARK    7  A    between atoms: CA_8  and  N_10
REMARK    8  A    between atoms: CA_8  and  C_11
REMARK    9  A    between atoms: C_11  and  O_12
REMARK   10  A    between atoms: C_14  and  O_15
REMARK   11  A    between atoms: O_15  and  C_16
REMARK   12  A    between atoms: C_16  and  P_17
REMARK   13  A    between atoms: P_17  and  O_18
REMARK   14  A    between atoms: P_17  and  O_19
REMARK                            x       y       z     vdW  Elec       q    Type
REMARK                         _______ _______ _______ _____ _____    ______ ____
ROOT
ATOM      1  C   UNL     1       7.460  -2.653  23.346  0.00  0.00    +0.150 A 
ATOM      2  O   UNL     1       6.423  -2.133  22.606  0.00  0.00    -0.355 OA
ATOM      3  N   UNL     1       5.417  -3.067  22.440  0.00  0.00    -0.040 NA
ATOM      4  C   UNL     1       5.846  -4.161  23.057  0.00  0.00    +0.259 A 
ATOM      5  C   UNL     1       7.150  -3.985  23.632  0.00  0.00    +0.060 A 
ENDROOT
BRANCH   1   7
ATOM      6  C   UNL     1       8.479  -0.438  22.694  0.00  0.00    +0.019 C 
ATOM      7  C   UNL     1       8.606  -1.672  23.609  0.00  0.00    +0.023 C 
ATOM      8  C   UNL     1       8.574  -1.161  25.071  0.00  0.00    +0.019 C 
ATOM      9  C   UNL     1       9.997  -2.301  23.405  0.00  0.00    +0.019 C 
ENDBRANCH   1   7
BRANCH   4  10
ATOM     10  O   UNL     1       5.103  -5.300  23.075  0.00  0.00    -0.462 OA
BRANCH  10  11
ATOM     11  C   UNL     1       3.673  -5.197  23.374  0.00  0.00    +0.357 C 
BRANCH  11  12
ATOM     12  P   UNL     1       3.277  -6.843  24.067  0.00  0.00    +0.365 P 
ATOM     13  O   UNL     1       2.941  -8.236  24.653  0.00  0.00    -0.255 OA
BRANCH  12  14
ATOM     14  O   UNL     1       4.822  -7.306  23.691  0.00  0.00    -0.322 OA
ATOM     15  H   UNL     1       5.055  -8.251  23.800  0.00  0.00    +0.220 HD
ENDBRANCH  12  14
BRANCH  12  16
ATOM     16  O   UNL     1       2.620  -7.099  22.575  0.00  0.00    -0.322 OA
ATOM     17  H   UNL     1       1.652  -6.999  22.556  0.00  0.00    +0.220 HD
ENDBRANCH  12  16
ENDBRANCH  11  12
ENDBRANCH  10  11
ENDBRANCH   4  10
BRANCH   5  18
ATOM     18  C   UNL     1       7.918  -5.006  24.432  0.00  0.00    +0.074 C 
BRANCH  18  19
ATOM     19  CA  UNL     1       8.046  -4.755  25.946  0.00  0.00    +0.165 C 
BRANCH  19  20
ATOM     20  N   UNL     1       9.420  -4.883  26.508  0.00  0.00    -0.318 NA
ATOM     21  H1  UNL     1      10.090  -4.742  25.748  0.00  0.00    +0.119 HD
ATOM     22  H2  UNL     1       9.586  -4.083  27.132  0.00  0.00    +0.119 HD
ENDBRANCH  19  20
BRANCH  19  23
ATOM     23  C   UNL     1       7.115  -5.708  26.697  0.00  0.00    +0.322 C 
ATOM     24  OXT UNL     1       6.091  -6.160  26.235  0.00  0.00    -0.249 OA
BRANCH  23  25
ATOM     25  O   UNL     1       7.599  -6.029  27.918  0.00  0.00    -0.480 OA
ATOM     26  H   UNL     1       7.823  -5.181  28.370  0.00  0.00    +0.295 HD
ENDBRANCH  23  25
ENDBRANCH  19  23
ENDBRANCH  18  19
ENDBRANCH   5  18
TORSDOF 11
ENDMDL
MODEL 4
REMARK VINA RESULT:      -5.5      3.518      6.467
REMARK  Name = 
REMARK  14 active torsions:
REMARK  status: ('A' for Active; 'I' for Inactive)
REMARK    1  A    between atoms: C_1  and  C_2
REMARK    2  A    between atoms: C_2  and  C_3
REMARK    3  A    between atoms: C_2  and  C_4
REMARK    4  A    between atoms: C_2  and  C_5
REMARK    5  A    between atoms: C_6  and  C_7
REMARK    6  A    between atoms: C_7  and  CA_8
REMARK    7  A    between atoms: CA_8  and  N_10
REMARK    8  A    between atoms: CA_8  and  C_11
REMARK    9  A    between atoms: C_11  and  O_12
REMARK   10  A    between atoms: C_14  and  O_15
REMARK   11  A    between atoms: O_15  and  C_16
REMARK   12  A    between atoms: C_16  and  P_17
REMARK   13  A    between atoms: P_17  and  O_18
REMARK   14  A    between atoms: P_17  and  O_19
REMARK                            x       y       z     vdW  Elec       q    Type
REMARK                         _______ _______ _______ _____ _____    ______ ____
ROOT
ATOM      1  C   UNL     1       8.941  -0.210  25.060  0.00  0.00    +0.150 A 
ATOM      2  O   UNL     1       8.361   0.185  26.243  0.00  0.00    -0.355 OA
ATOM      3  N   UNL     1       7.942  -0.908  26.979  0.00  0.00    -0.040 NA
ATOM      4  C   UNL     1       8.244  -1.968  26.239  0.00  0.00    +0.259 A 
ATOM      5  C   UNL     1       8.855  -1.604  24.991  0.00  0.00    +0.060 A 
ENDROOT
BRANCH   1   7
ATOM      6  C   UNL     1       8.925   2.288  24.707  0.00  0.00    +0.019 C 
ATOM      7  C   UNL     1       9.467   0.939  24.195  0.00  0.00    +0.023 C 
ATOM      8  C   UNL     1      11.013   1.015  24.256  0.00  0.00    +0.019 C 
ATOM      9  C   UNL     1       9.103   0.790  22.706  0.00  0.00    +0.019 C 
ENDBRANCH   1   7
BRANCH   4  10
ATOM     10  O   UNL     1       7.949  -3.229  26.655  0.00  0.00    -0.462 OA
BRANCH  10  11
ATOM     11  C   UNL     1       6.552  -3.665  26.627  0.00  0.00    +0.357 C 
BRANCH  11  12
ATOM     12  P   UNL     1       6.607  -5.282  27.480  0.00  0.00    +0.365 P 
ATOM     13  O   UNL     1       6.654  -6.651  28.202  0.00  0.00    -0.255 OA
BRANCH  12  14
ATOM     14  O   UNL     1       8.246  -5.281  27.245  0.00  0.00    -0.322 OA
ATOM     15  H   UNL     1       8.603  -5.818  26.508  0.00  0.00    +0.220 HD
ENDBRANCH  12  14
BRANCH  12  16
ATOM     16  O   UNL     1       6.190  -5.863  25.993  0.00  0.00    -0.322 OA
ATOM     17  H   UNL     1       5.268  -5.667  25.746  0.00  0.00    +0.220 HD
ENDBRANCH  12  16
ENDBRANCH  11  12
ENDBRANCH  10  11
ENDBRANCH   4  10
BRANCH   5  18
ATOM     18  C   UNL     1       9.355  -2.552  23.932  0.00  0.00    +0.074 C 
BRANCH  18  19
ATOM     19  CA  UNL     1       8.305  -3.144  22.972  0.00  0.00    +0.165 C 
BRANCH  19  20
ATOM     20  N   UNL     1       7.071  -2.331  22.784  0.00  0.00    -0.318 NA
ATOM     21  H1  UNL     1       6.481  -2.802  22.093  0.00  0.00    +0.119 HD
ATOM     22  H2  UNL     1       6.520  -2.382  23.651  0.00  0.00    +0.119 HD
ENDBRANCH  19  20
BRANCH  19  23
ATOM     23  C   UNL     1       7.909  -4.539  23.456  0.00  0.00    +0.322 C 
ATOM     24  OXT UNL     1       6.916  -5.128  23.090  0.00  0.00    -0.249 OA
BRANCH  23  25
ATOM     25  O   UNL     1       8.827  -5.060  24.302  0.00  0.00    -0.480 OA
ATOM     26  H   UNL     1       8.352  -5.703  24.880  0.00  0.00    +0.295 HD
ENDBRANCH  23  25
ENDBRANCH  19  23
ENDBRANCH  18  19
ENDBRANCH   5  18
TORSDOF 11
ENDMDL
MODEL 5
REMARK VINA RESULT:      -5.3      3.125      6.403
REMARK  Name = 
REMARK  14 active torsions:
REMARK  status: ('A' for Active; 'I' for Inactive)
REMARK    1  A    between atoms: C_1  and  C_2
REMARK    2  A    between atoms: C_2  and  C_3
REMARK    3  A    between atoms: C_2  and  C_4
REMARK    4  A    between atoms: C_2  and  C_5
REMARK    5  A    between atoms: C_6  and  C_7
REMARK    6  A    between atoms: C_7  and  CA_8
REMARK    7  A    between atoms: CA_8  and  N_10
REMARK    8  A    between atoms: CA_8  and  C_11
REMARK    9  A    between atoms: C_11  and  O_12
REMARK   10  A    between atoms: C_14  and  O_15
REMARK   11  A    between atoms: O_15  and  C_16
REMARK   12  A    between atoms: C_16  and  P_17
REMARK   13  A    between atoms: P_17  and  O_18
REMARK   14  A    between atoms: P_17  and  O_19
REMARK                            x       y       z     vdW  Elec       q    Type
REMARK                         _______ _______ _______ _____ _____    ______ ____
ROOT
ATOM      1  C   UNL     1       8.870  -1.790  24.514  0.00  0.00    +0.150 A 
ATOM      2  O   UNL     1       8.921  -1.464  25.848  0.00  0.00    -0.355 OA
ATOM      3  N   UNL     1       8.312  -2.437  26.620  0.00  0.00    -0.040 NA
ATOM      4  C   UNL     1       7.870  -3.344  25.758  0.00  0.00    +0.259 A 
ATOM      5  C   UNL     1       8.161  -2.989  24.397  0.00  0.00    +0.060 A 
ENDROOT
BRANCH   1   7
ATOM      6  C   UNL     1      10.425  -1.512  22.546  0.00  0.00    +0.019 C 
ATOM      7  C   UNL     1       9.555  -0.781  23.586  0.00  0.00    +0.023 C 
ATOM      8  C   UNL     1       8.509   0.050  22.803  0.00  0.00    +0.019 C 
ATOM      9  C   UNL     1      10.432   0.235  24.343  0.00  0.00    +0.019 C 
ENDBRANCH   1   7
BRANCH   4  10
ATOM     10  O   UNL     1       7.193  -4.447  26.177  0.00  0.00    -0.462 OA
BRANCH  10  11
ATOM     11  C   UNL     1       6.133  -4.279  27.173  0.00  0.00    +0.357 C 
BRANCH  11  12
ATOM     12  P   UNL     1       5.995  -5.946  27.914  0.00  0.00    +0.365 P 
ATOM     13  O   UNL     1       5.879  -7.357  28.541  0.00  0.00    -0.255 OA
BRANCH  12  14
ATOM     14  O   UNL     1       7.649  -6.034  27.874  0.00  0.00    -0.322 OA
ATOM     15  H   UNL     1       8.097  -6.535  28.586  0.00  0.00    +0.220 HD
ENDBRANCH  12  14
BRANCH  12  16
ATOM     16  O   UNL     1       5.730  -6.407  26.352  0.00  0.00    -0.322 OA
ATOM     17  H   UNL     1       5.393  -7.317  26.269  0.00  0.00    +0.220 HD
ENDBRANCH  12  16
ENDBRANCH  11  12
ENDBRANCH  10  11
ENDBRANCH   4  10
BRANCH   5  18
ATOM     18  C   UNL     1       7.837  -3.806  23.172  0.00  0.00    +0.074 C 
BRANCH  18  19
ATOM     19  CA  UNL     1       6.489  -3.523  22.481  0.00  0.00    +0.165 C 
BRANCH  19  20
ATOM     20  N   UNL     1       5.746  -2.331  22.977  0.00  0.00    -0.318 NA
ATOM     21  H1  UNL     1       5.581  -1.706  22.184  0.00  0.00    +0.119 HD
ATOM     22  H2  UNL     1       4.802  -2.633  23.250  0.00  0.00    +0.119 HD
ENDBRANCH  19  20
BRANCH  19  23
ATOM     23  C   UNL     1       5.590  -4.753  22.606  0.00  0.00    +0.322 C 
ATOM     24  OXT UNL     1       5.272  -5.460  21.676  0.00  0.00    -0.249 OA
BRANCH  23  25
ATOM     25  O   UNL     1       5.233  -4.989  23.890  0.00  0.00    -0.480 OA
ATOM     26  H   UNL     1       4.651  -5.785  23.884  0.00  0.00    +0.295 HD
ENDBRANCH  23  25
ENDBRANCH  19  23
ENDBRANCH  18  19
ENDBRANCH   5  18
TORSDOF 11
ENDMDL
MODEL 6
REMARK VINA RESULT:      -5.3      2.074      3.616
REMARK  Name = 
REMARK  14 active torsions:
REMARK  status: ('A' for Active; 'I' for Inactive)
REMARK    1  A    between atoms: C_1  and  C_2
REMARK    2  A    between atoms: C_2  and  C_3
REMARK    3  A    between atoms: C_2  and  C_4
REMARK    4  A    between atoms: C_2  and  C_5
REMARK    5  A    between atoms: C_6  and  C_7
REMARK    6  A    between atoms: C_7  and  CA_8
REMARK    7  A    between atoms: CA_8  and  N_10
REMARK    8  A    between atoms: CA_8  and  C_11
REMARK    9  A    between atoms: C_11  and  O_12
REMARK   10  A    between atoms: C_14  and  O_15
REMARK   11  A    between atoms: O_15  and  C_16
REMARK   12  A    between atoms: C_16  and  P_17
REMARK   13  A    between atoms: P_17  and  O_18
REMARK   14  A    between atoms: P_17  and  O_19
REMARK                            x       y       z     vdW  Elec       q    Type
REMARK                         _______ _______ _______ _____ _____    ______ ____
ROOT
ATOM      1  C   UNL     1       6.259  -5.534  26.206  0.00  0.00    +0.150 A 
ATOM      2  O   UNL     1       7.490  -5.824  26.746  0.00  0.00    -0.355 OA
ATOM      3  N   UNL     1       8.508  -5.355  25.937  0.00  0.00    -0.040 NA
ATOM      4  C   UNL     1       7.902  -4.799  24.895  0.00  0.00    +0.259 A 
ATOM      5  C   UNL     1       6.472  -4.899  24.980  0.00  0.00    +0.060 A 
ENDROOT
BRANCH   1   7
ATOM      6  C   UNL     1       4.199  -6.990  26.274  0.00  0.00    +0.019 C 
ATOM      7  C   UNL     1       5.069  -5.988  27.058  0.00  0.00    +0.023 C 
ATOM      8  C   UNL     1       5.549  -6.707  28.342  0.00  0.00    +0.019 C 
ATOM      9  C   UNL     1       4.182  -4.819  27.526  0.00  0.00    +0.019 C 
ENDBRANCH   1   7
BRANCH   4  10
ATOM     10  O   UNL     1       8.613  -4.245  23.876  0.00  0.00    -0.462 OA
BRANCH  10  11
ATOM     11  C   UNL     1       9.644  -3.256  24.200  0.00  0.00    +0.357 C 
BRANCH  11  12
ATOM     12  P   UNL     1       9.103  -1.776  23.270  0.00  0.00    +0.365 P 
ATOM     13  O   UNL     1       8.644  -0.524  22.484  0.00  0.00    -0.255 OA
BRANCH  12  14
ATOM     14  O   UNL     1       8.296  -2.793  22.241  0.00  0.00    -0.322 OA
ATOM     15  H   UNL     1       8.020  -3.667  22.584  0.00  0.00    +0.220 HD
ENDBRANCH  12  14
BRANCH  12  16
ATOM     16  O   UNL     1      10.589  -1.912  22.567  0.00  0.00    -0.322 OA
ATOM     17  H   UNL     1      10.624  -2.588  21.866  0.00  0.00    +0.220 HD
ENDBRANCH  12  16
ENDBRANCH  11  12
ENDBRANCH  10  11
ENDBRANCH   4  10
BRANCH   5  18
ATOM     18  C   UNL     1       5.479  -4.345  23.991  0.00  0.00    +0.074 C 
BRANCH  18  19
ATOM     19  CA  UNL     1       5.153  -5.218  22.764  0.00  0.00    +0.165 C 
BRANCH  19  20
ATOM     20  N   UNL     1       5.321  -6.686  22.952  0.00  0.00    -0.318 NA
ATOM     21  H1  UNL     1       4.435  -7.141  22.716  0.00  0.00    +0.119 HD
ATOM     22  H2  UNL     1       5.971  -7.028  22.233  0.00  0.00    +0.119 HD
ENDBRANCH  19  20
BRANCH  19  23
ATOM     23  C   UNL     1       6.015  -4.770  21.583  0.00  0.00    +0.322 C 
ATOM     24  OXT UNL     1       5.735  -3.849  20.848  0.00  0.00    -0.249 OA
BRANCH  23  25
ATOM     25  O   UNL     1       7.155  -5.491  21.488  0.00  0.00    -0.480 OA
ATOM     26  H   UNL     1       7.815  -5.066  22.088  0.00  0.00    +0.295 HD
ENDBRANCH  23  25
ENDBRANCH  19  23
ENDBRANCH  18  19
ENDBRANCH   5  18
TORSDOF 11
ENDMDL
MODEL 7
REMARK VINA RESULT:      -5.2      3.071      5.835
REMARK  Name = 
REMARK  14 active torsions:
REMARK  status: ('A' for Active; 'I' for Inactive)
REMARK    1  A    between atoms: C_1  and  C_2
REMARK    2  A    between atoms: C_2  and  C_3
REMARK    3  A    between atoms: C_2  and  C_4
REMARK    4  A    between atoms: C_2  and  C_5
REMARK    5  A    between atoms: C_6  and  C_7
REMARK    6  A    between atoms: C_7  and  CA_8
REMARK    7  A    between atoms: CA_8  and  N_10
REMARK    8  A    between atoms: CA_8  and  C_11
REMARK    9  A    between atoms: C_11  and  O_12
REMARK   10  A    between atoms: C_14  and  O_15
REMARK   11  A    between atoms: O_15  and  C_16
REMARK   12  A    between atoms: C_16  and  P_17
REMARK   13  A    between atoms: P_17  and  O_18
REMARK   14  A    between atoms: P_17  and  O_19
REMARK                            x       y       z     vdW  Elec       q    Type
REMARK                         _______ _______ _______ _____ _____    ______ ____
ROOT
ATOM      1  C   UNL     1       9.146  -0.493  23.401  0.00  0.00    +0.150 A 
ATOM      2  O   UNL     1       9.293  -0.472  22.033  0.00  0.00    -0.355 OA
ATOM      3  N   UNL     1       8.777  -1.620  21.462  0.00  0.00    -0.040 NA
ATOM      4  C   UNL     1       8.336  -2.352  22.478  0.00  0.00    +0.259 A 
ATOM      5  C   UNL     1       8.562  -1.715  23.745  0.00  0.00    +0.060 A 
ENDROOT
BRANCH   1   7
ATOM      6  C   UNL     1      10.876   0.417  24.997  0.00  0.00    +0.019 C 
ATOM      7  C   UNL     1       9.660   0.761  24.114  0.00  0.00    +0.023 C 
ATOM      8  C   UNL     1      10.124   1.829  23.093  0.00  0.00    +0.019 C 
ATOM      9  C   UNL     1       8.588   1.440  24.988  0.00  0.00    +0.019 C 
ENDBRANCH   1   7
BRANCH   4  10
ATOM     10  O   UNL     1       7.777  -3.575  22.278  0.00  0.00    -0.462 OA
BRANCH  10  11
ATOM     11  C   UNL     1       6.329  -3.656  22.072  0.00  0.00    +0.357 C 
BRANCH  11  12
ATOM     12  P   UNL     1       5.800  -4.875  23.329  0.00  0.00    +0.365 P 
ATOM     13  O   UNL     1       5.353  -5.906  24.394  0.00  0.00    -0.255 OA
BRANCH  12  14
ATOM     14  O   UNL     1       7.280  -5.600  23.161  0.00  0.00    -0.322 OA
ATOM     15  H   UNL     1       7.709  -5.565  22.282  0.00  0.00    +0.220 HD
ENDBRANCH  12  14
BRANCH  12  16
ATOM     16  O   UNL     1       5.071  -5.601  22.040  0.00  0.00    -0.322 OA
ATOM     17  H   UNL     1       4.186  -5.952  22.243  0.00  0.00    +0.220 HD
ENDBRANCH  12  16
ENDBRANCH  11  12
ENDBRANCH  10  11
ENDBRANCH   4  10
BRANCH   5  18
ATOM     18  C   UNL     1       8.156  -2.246  25.096  0.00  0.00    +0.074 C 
BRANCH  18  19
ATOM     19  CA  UNL     1       8.950  -3.449  25.641  0.00  0.00    +0.165 C 
BRANCH  19  20
ATOM     20  N   UNL     1       9.623  -4.296  24.618  0.00  0.00    -0.318 NA
ATOM     21  H1  UNL     1      10.098  -3.679  23.955  0.00  0.00    +0.119 HD
ATOM     22  H2  UNL     1      10.393  -4.800  25.077  0.00  0.00    +0.119 HD
ENDBRANCH  19  20
BRANCH  19  23
ATOM     23  C   UNL     1       8.020  -4.330  26.478  0.00  0.00    +0.322 C 
ATOM     24  OXT UNL     1       7.007  -3.934  27.010  0.00  0.00    -0.249 OA
BRANCH  23  25
ATOM     25  O   UNL     1       8.437  -5.616  26.509  0.00  0.00    -0.480 OA
ATOM     26  H   UNL     1       8.317  -5.934  27.435  0.00  0.00    +0.295 HD
ENDBRANCH  23  25
ENDBRANCH  19  23
ENDBRANCH  18  19
ENDBRANCH   5  18
TORSDOF 11
ENDMDL
MODEL 8
REMARK VINA RESULT:      -5.1      2.959      4.742
REMARK  Name = 
REMARK  14 active torsions:
REMARK  status: ('A' for Active; 'I' for Inactive)
REMARK    1  A    between atoms: C_1  and  C_2
REMARK    2  A    between atoms: C_2  and  C_3
REMARK    3  A    between atoms: C_2  and  C_4
REMARK    4  A    between atoms: C_2  and  C_5
REMARK    5  A    between atoms: C_6  and  C_7
REMARK    6  A    between atoms: C_7  and  CA_8
REMARK    7  A    between atoms: CA_8  and  N_10
REMARK    8  A    between atoms: CA_8  and  C_11
REMARK    9  A    between atoms: C_11  and  O_12
REMARK   10  A    between atoms: C_14  and  O_15
REMARK   11  A    between atoms: O_15  and  C_16
REMARK   12  A    between atoms: C_16  and  P_17
REMARK   13  A    between atoms: P_17  and  O_18
REMARK   14  A    between atoms: P_17  and  O_19
REMARK                            x       y       z     vdW  Elec       q    Type
REMARK                         _______ _______ _______ _____ _____    ______ ____
ROOT
ATOM      1  C   UNL     1       8.364  -3.302  24.383  0.00  0.00    +0.150 A 
ATOM      2  O   UNL     1       9.682  -3.590  24.115  0.00  0.00    -0.355 OA
ATOM      3  N   UNL     1      10.226  -2.660  23.249  0.00  0.00    -0.040 NA
ATOM      4  C   UNL     1       9.239  -1.818  22.970  0.00  0.00    +0.259 A 
ATOM      5  C   UNL     1       8.015  -2.177  23.630  0.00  0.00    +0.060 A 
ENDROOT
BRANCH   1   7
ATOM      6  C   UNL     1       8.636  -5.431  25.710  0.00  0.00    +0.019 C 
ATOM      7  C   UNL     1       7.690  -4.264  25.365  0.00  0.00    +0.023 C 
ATOM      8  C   UNL     1       7.346  -3.548  26.695  0.00  0.00    +0.019 C 
ATOM      9  C   UNL     1       6.364  -4.840  24.832  0.00  0.00    +0.019 C 
ENDBRANCH   1   7
BRANCH   4  10
ATOM     10  O   UNL     1       9.420  -0.774  22.118  0.00  0.00    -0.462 OA
BRANCH  10  11
ATOM     11  C   UNL     1      10.169   0.392  22.591  0.00  0.00    +0.357 C 
BRANCH  11  12
ATOM     12  P   UNL     1       9.025   1.781  22.255  0.00  0.00    +0.365 P 
ATOM     13  O   UNL     1       8.057   2.955  21.971  0.00  0.00    -0.255 OA
BRANCH  12  14
ATOM     14  O   UNL     1       8.686   1.069  20.799  0.00  0.00    -0.322 OA
ATOM     15  H   UNL     1       9.408   0.588  20.346  0.00  0.00    +0.220 HD
ENDBRANCH  12  14
BRANCH  12  16
ATOM     16  O   UNL     1      10.407   2.552  21.787  0.00  0.00    -0.322 OA
ATOM     17  H   UNL     1      11.213   2.173  22.181  0.00  0.00    +0.220 HD
ENDBRANCH  12  16
ENDBRANCH  11  12
ENDBRANCH  10  11
ENDBRANCH   4  10
BRANCH   5  18
ATOM     18  C   UNL     1       6.712  -1.423  23.565  0.00  0.00    +0.074 C 
BRANCH  18  19
ATOM     19  CA  UNL     1       6.218  -0.767  24.868  0.00  0.00    +0.165 C 
BRANCH  19  20
ATOM     20  N   UNL     1       4.875  -1.202  25.343  0.00  0.00    -0.318 NA
ATOM     21  H1  UNL     1       4.984  -2.091  25.838  0.00  0.00    +0.119 HD
ATOM     22  H2  UNL     1       4.568  -0.550  26.076  0.00  0.00    +0.119 HD
ENDBRANCH  19  20
BRANCH  19  23
ATOM     23  C   UNL     1       6.212   0.753  24.697  0.00  0.00    +0.322 C 
ATOM     24  OXT UNL     1       6.885   1.513  25.358  0.00  0.00    -0.249 OA
BRANCH  23  25
ATOM     25  O   UNL     1       5.406   1.144  23.684  0.00  0.00    -0.480 OA
ATOM     26  H   UNL     1       5.345   2.128  23.729  0.00  0.00    +0.295 HD
ENDBRANCH  23  25
ENDBRANCH  19  23
ENDBRANCH  18  19
ENDBRANCH   5  18
TORSDOF 11
ENDMDL
MODEL 9
REMARK VINA RESULT:      -5.1      3.089      6.307
REMARK  Name = 
REMARK  14 active torsions:
REMARK  status: ('A' for Active; 'I' for Inactive)
REMARK    1  A    between atoms: C_1  and  C_2
REMARK    2  A    between atoms: C_2  and  C_3
REMARK    3  A    between atoms: C_2  and  C_4
REMARK    4  A    between atoms: C_2  and  C_5
REMARK    5  A    between atoms: C_6  and  C_7
REMARK    6  A    between atoms: C_7  and  CA_8
REMARK    7  A    between atoms: CA_8  and  N_10
REMARK    8  A    between atoms: CA_8  and  C_11
REMARK    9  A    between atoms: C_11  and  O_12
REMARK   10  A    between atoms: C_14  and  O_15
REMARK   11  A    between atoms: O_15  and  C_16
REMARK   12  A    between atoms: C_16  and  P_17
REMARK   13  A    between atoms: P_17  and  O_18
REMARK   14  A    between atoms: P_17  and  O_19
REMARK                            x       y       z     vdW  Elec       q    Type
REMARK                         _______ _______ _______ _____ _____    ______ ____
ROOT
ATOM      1  C   UNL     1       8.517  -2.703  25.010  0.00  0.00    +0.150 A 
ATOM      2  O   UNL     1       8.646  -2.605  26.375  0.00  0.00    -0.355 OA
ATOM      3  N   UNL     1       8.176  -3.745  27.000  0.00  0.00    -0.040 NA
ATOM      4  C   UNL     1       7.741  -4.529  26.021  0.00  0.00    +0.259 A 
ATOM      5  C   UNL     1       7.897  -3.923  24.729  0.00  0.00    +0.060 A 
ENDROOT
BRANCH   1   7
ATOM      6  C   UNL     1       9.600  -0.431  25.204  0.00  0.00    +0.019 C 
ATOM      7  C   UNL     1       9.048  -1.494  24.233  0.00  0.00    +0.023 C 
ATOM      8  C   UNL     1      10.211  -1.903  23.296  0.00  0.00    +0.019 C 
ATOM      9  C   UNL     1       7.982  -0.839  23.334  0.00  0.00    +0.019 C 
ENDBRANCH   1   7
BRANCH   4  10
ATOM     10  O   UNL     1       7.186  -5.743  26.282  0.00  0.00    -0.462 OA
BRANCH  10  11
ATOM     11  C   UNL     1       5.864  -5.787  26.910  0.00  0.00    +0.357 C 
BRANCH  11  12
ATOM     12  P   UNL     1       4.860  -6.716  25.695  0.00  0.00    +0.365 P 
ATOM     13  O   UNL     1       4.011  -7.503  24.667  0.00  0.00    -0.255 OA
BRANCH  12  14
ATOM     14  O   UNL     1       3.980  -5.334  25.456  0.00  0.00    -0.322 OA
ATOM     15  H   UNL     1       3.984  -4.939  24.561  0.00  0.00    +0.220 HD
ENDBRANCH  12  14
BRANCH  12  16
ATOM     16  O   UNL     1       4.061  -7.235  27.042  0.00  0.00    -0.322 OA
ATOM     17  H   UNL     1       3.380  -7.905  26.854  0.00  0.00    +0.220 HD
ENDBRANCH  12  16
ENDBRANCH  11  12
ENDBRANCH  10  11
ENDBRANCH   4  10
BRANCH   5  18
ATOM     18  C   UNL     1       7.543  -4.546  23.403  0.00  0.00    +0.074 C 
BRANCH  18  19
ATOM     19  CA  UNL     1       6.221  -4.097  22.751  0.00  0.00    +0.165 C 
BRANCH  19  20
ATOM     20  N   UNL     1       5.286  -3.348  23.636  0.00  0.00    -0.318 NA
ATOM     21  H1  UNL     1       4.938  -3.992  24.351  0.00  0.00    +0.119 HD
ATOM     22  H2  UNL     1       5.834  -2.661  24.171  0.00  0.00    +0.119 HD
ENDBRANCH  19  20
BRANCH  19  23
ATOM     23  C   UNL     1       5.496  -5.320  22.188  0.00  0.00    +0.322 C 
ATOM     24  OXT UNL     1       6.041  -6.213  21.580  0.00  0.00    -0.249 OA
BRANCH  23  25
ATOM     25  O   UNL     1       4.178  -5.311  22.496  0.00  0.00    -0.480 OA
ATOM     26  H   UNL     1       4.012  -4.494  23.023  0.00  0.00    +0.295 HD
ENDBRANCH  23  25
ENDBRANCH  19  23
ENDBRANCH  18  19
ENDBRANCH   5  18
TORSDOF 11
ENDMDL
