MODEL 1
REMARK VINA RESULT:      -5.4      0.000      0.000
REMARK  Name = 
REMARK  23 active torsions:
REMARK  status: ('A' for Active; 'I' for Inactive)
REMARK    1  A    between atoms: C_1  and  C_2
REMARK    2  A    between atoms: C_2  and  C_3
REMARK    3  A    between atoms: C_8  and  C_10
REMARK    4  A    between atoms: C_13  and  C_15
REMARK    5  A    between atoms: C_16  and  O_18
REMARK    6  A    between atoms: O_18  and  C_19
REMARK    7  A    between atoms: C_22  and  C_24
REMARK    8  A    between atoms: C_26  and  N_31
REMARK    9  A    between atoms: C_28  and  O_30
REMARK   10  A    between atoms: N_31  and  C_32
REMARK   11  A    between atoms: N_31  and  C_33
REMARK   12  A    between atoms: C_34  and  C_35
REMARK   13  A    between atoms: C_34  and  O_68
REMARK   14  A    between atoms: C_37  and  C_39
REMARK   15  A    between atoms: C_42  and  C_44
REMARK   16  A    between atoms: N_47  and  C_48
REMARK   17  A    between atoms: C_48  and  C_49
REMARK   18  A    between atoms: C_49  and  C_50
REMARK   19  A    between atoms: C_50  and  C_51
REMARK   20  A    between atoms: C_51  and  N_52
REMARK   21  A    between atoms: C_55  and  C_57
REMARK   22  A    between atoms: C_66  and  C_67
REMARK   23  A    between atoms: O_68  and  C_69
REMARK                            x       y       z     vdW  Elec       q    Type
REMARK                         _______ _______ _______ _____ _____    ______ ____
ROOT
ATOM      1  C   UNL     1       8.423   0.856  24.687  0.00  0.00    +0.221 C 
ATOM      2  C   UNL     1       6.952   1.482  24.881  0.00  0.00    +0.168 C 
ATOM      3  C   UNL     1       6.085   1.275  23.574  0.00  0.00    +0.062 C 
ATOM      4  C   UNL     1       6.022   1.503  26.336  0.00  0.00    +0.136 C 
ATOM      5  N   UNL     1       5.958   2.979  26.524  0.00  0.00    -0.260 N 
ATOM      6  C   UNL     1       6.093   3.542  25.260  0.00  0.00    +0.404 C 
ATOM      7  O   UNL     1       5.639   4.602  24.889  0.00  0.00    -0.226 OA
ATOM      8  C   UNL     1       6.011   0.719  27.851  0.00  0.00    +0.077 C 
ATOM      9  C   UNL     1       5.410   1.646  28.991  0.00  0.00    +0.017 C 
ATOM     10  C   UNL     1       5.162  -0.595  28.283  0.00  0.00    +0.141 C 
ATOM     11  O   UNL     1       4.781  -0.803  29.436  0.00  0.00    -0.297 OA
ATOM     12  C   UNL     1       4.860  -1.647  27.258  0.00  0.00    +0.055 C 
ATOM     13  C   UNL     1       3.821  -1.021  26.340  0.00  0.00    +0.015 C 
ATOM     14  C   UNL     1       4.409  -3.069  27.842  0.00  0.00    +0.048 C 
ATOM     15  C   UNL     1       5.202  -4.369  27.318  0.00  0.00    +0.094 C 
ATOM     16  C   UNL     1       6.087  -4.877  28.472  0.00  0.00    +0.044 C 
ATOM     17  C   UNL     1       5.976  -3.967  26.010  0.00  0.00    +0.163 C 
ATOM     18  C   UNL     1       7.063  -4.828  25.324  0.00  0.00    +0.085 C 
ATOM     19  C   UNL     1       6.604  -5.733  24.196  0.00  0.00    +0.018 C 
ATOM     20  C   UNL     1       8.347  -3.938  25.002  0.00  0.00    +0.152 C 
ATOM     21  O   UNL     1       9.367  -4.144  25.673  0.00  0.00    -0.296 OA
ATOM     22  C   UNL     1       8.380  -2.862  23.894  0.00  0.00    +0.161 C 
ATOM     23  C   UNL     1       7.003  -2.390  23.475  0.00  0.00    +0.027 C 
ATOM     24  C   UNL     1       9.159  -1.555  24.226  0.00  0.00    +0.318 C 
ATOM     25  O   UNL     1      10.366  -1.393  24.158  0.00  0.00    -0.250 OA
ATOM     26  O   UNL     1       7.141   2.909  24.673  0.00  0.00    -0.438 OA
ATOM     27  O   UNL     1       8.250  -0.574  24.527  0.00  0.00    -0.457 OA
ENDROOT
BRANCH   1  29
ATOM     28  C   UNL     1       9.171   1.131  22.061  0.00  0.00    +0.007 C 
ATOM     29  C   UNL     1       9.322   1.509  23.542  0.00  0.00    +0.045 C 
ENDBRANCH   1  29
BRANCH  15  30
ATOM     30  O   UNL     1       4.424  -5.496  26.907  0.00  0.00    -0.374 OA
ATOM     31  C   UNL     1       3.511  -6.138  27.783  0.00  0.00    +0.194 C 
ENDBRANCH  15  30
BRANCH   5  32
ATOM     32  C   UNL     1       6.856   3.609  27.493  0.00  0.00    +0.111 C 
BRANCH  32  33
ATOM     33  C   UNL     1       6.309   4.811  28.224  0.00  0.00    +0.021 C 
BRANCH  33  34
ATOM     34  C   UNL     1       7.349   5.870  28.460  0.00  0.00    +0.023 C 
BRANCH  34  35
ATOM     35  C   UNL     1       7.021   6.946  27.444  0.00  0.00    +0.123 C 
BRANCH  35  36
ATOM     36  N   UNL     1       7.811   6.817  26.276  0.00  0.00    -0.336 N 
ATOM     37  C   UNL     1       9.099   6.393  26.237  0.00  0.00    +0.115 A 
ATOM     38  C   UNL     1       9.413   6.369  24.900  0.00  0.00    +0.090 A 
ATOM     39  N   UNL     1       8.354   6.834  24.137  0.00  0.00    -0.236 NA
ATOM     40  C   UNL     1       7.408   7.107  24.998  0.00  0.00    +0.199 A 
BRANCH  38  41
ATOM     41  C   UNL     1      10.643   5.887  24.335  0.00  0.00    +0.020 A 
ATOM     42  C   UNL     1      11.867   6.525  24.540  0.00  0.00    +0.120 A 
ATOM     43  N   UNL     1      13.052   6.077  24.063  0.00  0.00    -0.263 NA
ATOM     44  C   UNL     1      13.010   4.929  23.353  0.00  0.00    +0.111 A 
ATOM     45  C   UNL     1      11.850   4.216  23.092  0.00  0.00    +0.020 A 
ATOM     46  C   UNL     1      10.649   4.708  23.593  0.00  0.00    +0.013 A 
ENDBRANCH  38  41
ENDBRANCH  35  36
ENDBRANCH  34  35
ENDBRANCH  33  34
ENDBRANCH  32  33
ENDBRANCH   5  32
BRANCH  17  47
ATOM     47  O   UNL     1       5.131  -3.202  25.133  0.00  0.00    -0.342 OA
BRANCH  47  48
ATOM     48  C   UNL     1       3.984  -3.533  24.338  0.00  0.00    +0.281 C 
ATOM     49  C   UNL     1       4.030  -4.931  23.696  0.00  0.00    +0.187 C 
ATOM     50  C   UNL     1       2.715  -5.728  23.583  0.00  0.00    +0.092 C 
ATOM     51  C   UNL     1       1.598  -5.260  24.506  0.00  0.00    +0.053 C 
ATOM     52  C   UNL     1       1.612  -3.749  24.657  0.00  0.00    +0.120 C 
ATOM     53  C   UNL     1       0.444  -3.348  25.559  0.00  0.00    +0.038 C 
ATOM     54  O   UNL     1       2.857  -3.365  25.234  0.00  0.00    -0.346 OA
BRANCH  50  55
ATOM     55  N   UNL     1       2.976  -7.200  23.618  0.00  0.00    -0.303 NA
ATOM     56  C   UNL     1       1.758  -7.984  23.481  0.00  0.00    +0.105 C 
ATOM     57  C   UNL     1       3.762  -7.675  24.758  0.00  0.00    +0.105 C 
ENDBRANCH  50  55
BRANCH  49  58
ATOM     58  O   UNL     1       4.551  -4.866  22.352  0.00  0.00    -0.385 OA
ATOM     59  H   UNL     1       4.287  -4.033  21.938  0.00  0.00    +0.210 HD
ENDBRANCH  49  58
ENDBRANCH  47  48
ENDBRANCH  17  47
TORSDOF 12
ENDMDL
MODEL 2
REMARK VINA RESULT:      -5.4      2.294      3.745
REMARK  Name = 
REMARK  23 active torsions:
REMARK  status: ('A' for Active; 'I' for Inactive)
REMARK    1  A    between atoms: C_1  and  C_2
REMARK    2  A    between atoms: C_2  and  C_3
REMARK    3  A    between atoms: C_8  and  C_10
REMARK    4  A    between atoms: C_13  and  C_15
REMARK    5  A    between atoms: C_16  and  O_18
REMARK    6  A    between atoms: O_18  and  C_19
REMARK    7  A    between atoms: C_22  and  C_24
REMARK    8  A    between atoms: C_26  and  N_31
REMARK    9  A    between atoms: C_28  and  O_30
REMARK   10  A    between atoms: N_31  and  C_32
REMARK   11  A    between atoms: N_31  and  C_33
REMARK   12  A    between atoms: C_34  and  C_35
REMARK   13  A    between atoms: C_34  and  O_68
REMARK   14  A    between atoms: C_37  and  C_39
REMARK   15  A    between atoms: C_42  and  C_44
REMARK   16  A    between atoms: N_47  and  C_48
REMARK   17  A    between atoms: C_48  and  C_49
REMARK   18  A    between atoms: C_49  and  C_50
REMARK   19  A    between atoms: C_50  and  C_51
REMARK   20  A    between atoms: C_51  and  N_52
REMARK   21  A    between atoms: C_55  and  C_57
REMARK   22  A    between atoms: C_66  and  C_67
REMARK   23  A    between atoms: O_68  and  C_69
REMARK                            x       y       z     vdW  Elec       q    Type
REMARK                         _______ _______ _______ _____ _____    ______ ____
ROOT
ATOM      1  C   UNL     1       9.165  -0.529  23.848  0.00  0.00    +0.221 C 
ATOM      2  C   UNL     1       7.890   0.452  23.795  0.00  0.00    +0.168 C 
ATOM      3  C   UNL     1       6.961   0.088  22.567  0.00  0.00    +0.062 C 
ATOM      4  C   UNL     1       7.033   1.107  25.144  0.00  0.00    +0.136 C 
ATOM      5  N   UNL     1       7.324   2.546  24.902  0.00  0.00    -0.260 N 
ATOM      6  C   UNL     1       7.551   2.676  23.535  0.00  0.00    +0.404 C 
ATOM      7  O   UNL     1       7.350   3.660  22.859  0.00  0.00    -0.226 OA
ATOM      8  C   UNL     1       6.881   0.814  26.819  0.00  0.00    +0.077 C 
ATOM      9  C   UNL     1       6.548   2.143  27.621  0.00  0.00    +0.017 C 
ATOM     10  C   UNL     1       5.759  -0.084  27.572  0.00  0.00    +0.141 C 
ATOM     11  O   UNL     1       5.372   0.142  28.719  0.00  0.00    -0.297 OA
ATOM     12  C   UNL     1       5.188  -1.284  26.878  0.00  0.00    +0.055 C 
ATOM     13  C   UNL     1       4.300  -0.723  25.778  0.00  0.00    +0.015 C 
ATOM     14  C   UNL     1       4.431  -2.333  27.824  0.00  0.00    +0.048 C 
ATOM     15  C   UNL     1       4.880  -3.876  27.725  0.00  0.00    +0.094 C 
ATOM     16  C   UNL     1       5.653  -4.225  29.011  0.00  0.00    +0.044 C 
ATOM     17  C   UNL     1       5.690  -4.058  26.390  0.00  0.00    +0.163 C 
ATOM     18  C   UNL     1       6.523  -5.309  26.023  0.00  0.00    +0.085 C 
ATOM     19  C   UNL     1       5.831  -6.366  25.182  0.00  0.00    +0.018 C 
ATOM     20  C   UNL     1       7.971  -4.875  25.513  0.00  0.00    +0.152 C 
ATOM     21  O   UNL     1       8.932  -5.113  26.256  0.00  0.00    -0.296 OA
ATOM     22  C   UNL     1       8.224  -4.200  24.146  0.00  0.00    +0.161 C 
ATOM     23  C   UNL     1       6.986  -3.560  23.554  0.00  0.00    +0.027 C 
ATOM     24  C   UNL     1       9.299  -3.073  24.123  0.00  0.00    +0.318 C 
ATOM     25  O   UNL     1      10.508  -3.225  24.062  0.00  0.00    -0.250 OA
ATOM     26  O   UNL     1       8.404   1.674  23.197  0.00  0.00    -0.438 OA
ATOM     27  O   UNL     1       8.656  -1.864  24.095  0.00  0.00    -0.457 OA
ENDROOT
BRANCH   1  29
ATOM     28  C   UNL     1       9.770  -0.977  21.209  0.00  0.00    +0.007 C 
ATOM     29  C   UNL     1      10.160  -0.461  22.602  0.00  0.00    +0.045 C 
ENDBRANCH   1  29
BRANCH  15  30
ATOM     30  O   UNL     1       3.847  -4.859  27.621  0.00  0.00    -0.374 OA
ATOM     31  C   UNL     1       3.799  -5.991  28.474  0.00  0.00    +0.194 C 
ENDBRANCH  15  30
BRANCH   5  32
ATOM     32  C   UNL     1       8.373   3.199  25.686  0.00  0.00    +0.111 C 
BRANCH  32  33
ATOM     33  C   UNL     1       8.402   4.707  25.633  0.00  0.00    +0.021 C 
BRANCH  33  34
ATOM     34  C   UNL     1       7.360   5.340  26.514  0.00  0.00    +0.023 C 
BRANCH  34  35
ATOM     35  C   UNL     1       6.603   6.267  25.585  0.00  0.00    +0.123 C 
BRANCH  35  36
ATOM     36  N   UNL     1       5.454   5.639  25.045  0.00  0.00    -0.336 N 
ATOM     37  C   UNL     1       4.950   5.847  23.803  0.00  0.00    +0.115 A 
ATOM     38  C   UNL     1       3.889   4.978  23.712  0.00  0.00    +0.090 A 
ATOM     39  N   UNL     1       3.708   4.297  24.905  0.00  0.00    -0.236 NA
ATOM     40  C   UNL     1       4.659   4.727  25.691  0.00  0.00    +0.199 A 
BRANCH  38  41
ATOM     41  C   UNL     1       3.091   4.749  22.541  0.00  0.00    +0.020 A 
ATOM     42  C   UNL     1       2.697   5.778  21.684  0.00  0.00    +0.120 A 
ATOM     43  N   UNL     1       1.983   5.596  20.548  0.00  0.00    -0.263 NA
ATOM     44  C   UNL     1       1.656   4.320  20.251  0.00  0.00    +0.111 A 
ATOM     45  C   UNL     1       1.998   3.226  21.031  0.00  0.00    +0.020 A 
ATOM     46  C   UNL     1       2.726   3.449  22.194  0.00  0.00    +0.013 A 
ENDBRANCH  38  41
ENDBRANCH  35  36
ENDBRANCH  34  35
ENDBRANCH  33  34
ENDBRANCH  32  33
ENDBRANCH   5  32
BRANCH  17  47
ATOM     47  O   UNL     1       5.024  -3.401  25.297  0.00  0.00    -0.342 OA
BRANCH  47  48
ATOM     48  C   UNL     1       3.755  -3.599  24.658  0.00  0.00    +0.281 C 
ATOM     49  C   UNL     1       3.600  -4.951  23.941  0.00  0.00    +0.187 C 
ATOM     50  C   UNL     1       2.224  -5.645  23.975  0.00  0.00    +0.092 C 
ATOM     51  C   UNL     1       1.287  -5.161  25.073  0.00  0.00    +0.053 C 
ATOM     52  C   UNL     1       1.441  -3.668  25.303  0.00  0.00    +0.120 C 
ATOM     53  C   UNL     1       0.445  -3.245  26.385  0.00  0.00    +0.038 C 
ATOM     54  O   UNL     1       2.780  -3.411  25.715  0.00  0.00    -0.346 OA
BRANCH  50  55
ATOM     55  N   UNL     1       2.371  -7.130  23.892  0.00  0.00    -0.303 NA
ATOM     56  C   UNL     1       1.493  -7.721  22.892  0.00  0.00    +0.105 C 
ATOM     57  C   UNL     1       2.252  -7.849  25.161  0.00  0.00    +0.105 C 
ENDBRANCH  50  55
BRANCH  49  58
ATOM     58  O   UNL     1       3.932  -4.835  22.542  0.00  0.00    -0.385 OA
ATOM     59  H   UNL     1       3.243  -4.338  22.081  0.00  0.00    +0.210 HD
ENDBRANCH  49  58
ENDBRANCH  47  48
ENDBRANCH  17  47
TORSDOF 12
ENDMDL
MODEL 3
REMARK VINA RESULT:      -5.3      2.010      4.147
REMARK  Name = 
REMARK  23 active torsions:
REMARK  status: ('A' for Active; 'I' for Inactive)
REMARK    1  A    between atoms: C_1  and  C_2
REMARK    2  A    between atoms: C_2  and  C_3
REMARK    3  A    between atoms: C_8  and  C_10
REMARK    4  A    between atoms: C_13  and  C_15
REMARK    5  A    between atoms: C_16  and  O_18
REMARK    6  A    between atoms: O_18  and  C_19
REMARK    7  A    between atoms: C_22  and  C_24
REMARK    8  A    between atoms: C_26  and  N_31
REMARK    9  A    between atoms: C_28  and  O_30
REMARK   10  A    between atoms: N_31  and  C_32
REMARK   11  A    between atoms: N_31  and  C_33
REMARK   12  A    between atoms: C_34  and  C_35
REMARK   13  A    between atoms: C_34  and  O_68
REMARK   14  A    between atoms: C_37  and  C_39
REMARK   15  A    between atoms: C_42  and  C_44
REMARK   16  A    between atoms: N_47  and  C_48
REMARK   17  A    between atoms: C_48  and  C_49
REMARK   18  A    between atoms: C_49  and  C_50
REMARK   19  A    between atoms: C_50  and  C_51
REMARK   20  A    between atoms: C_51  and  N_52
REMARK   21  A    between atoms: C_55  and  C_57
REMARK   22  A    between atoms: C_66  and  C_67
REMARK   23  A    between atoms: O_68  and  C_69
REMARK                            x       y       z     vdW  Elec       q    Type
REMARK                         _______ _______ _______ _____ _____    ______ ____
ROOT
ATOM      1  C   UNL     1       8.992  -0.189  23.770  0.00  0.00    +0.221 C 
ATOM      2  C   UNL     1       7.691   0.756  23.839  0.00  0.00    +0.168 C 
ATOM      3  C   UNL     1       6.714   0.443  22.633  0.00  0.00    +0.062 C 
ATOM      4  C   UNL     1       6.882   1.298  25.266  0.00  0.00    +0.136 C 
ATOM      5  N   UNL     1       7.123   2.757  25.104  0.00  0.00    -0.260 N 
ATOM      6  C   UNL     1       7.281   2.980  23.740  0.00  0.00    +0.404 C 
ATOM      7  O   UNL     1       7.022   3.999  23.139  0.00  0.00    -0.226 OA
ATOM      8  C   UNL     1       6.817   0.895  26.923  0.00  0.00    +0.077 C 
ATOM      9  C   UNL     1       6.489   2.159  27.824  0.00  0.00    +0.017 C 
ATOM     10  C   UNL     1       5.756  -0.082  27.667  0.00  0.00    +0.141 C 
ATOM     11  O   UNL     1       5.419   0.059  28.843  0.00  0.00    -0.297 OA
ATOM     12  C   UNL     1       5.186  -1.252  26.923  0.00  0.00    +0.055 C 
ATOM     13  C   UNL     1       4.231  -0.648  25.904  0.00  0.00    +0.015 C 
ATOM     14  C   UNL     1       4.502  -2.380  27.833  0.00  0.00    +0.048 C 
ATOM     15  C   UNL     1       4.986  -3.900  27.613  0.00  0.00    +0.094 C 
ATOM     16  C   UNL     1       5.829  -4.307  28.838  0.00  0.00    +0.044 C 
ATOM     17  C   UNL     1       5.736  -3.974  26.234  0.00  0.00    +0.163 C 
ATOM     18  C   UNL     1       6.584  -5.173  25.748  0.00  0.00    +0.085 C 
ATOM     19  C   UNL     1       5.881  -6.195  24.873  0.00  0.00    +0.018 C 
ATOM     20  C   UNL     1       7.994  -4.666  25.202  0.00  0.00    +0.152 C 
ATOM     21  O   UNL     1       8.995  -4.922  25.883  0.00  0.00    -0.296 OA
ATOM     22  C   UNL     1       8.164  -3.898  23.872  0.00  0.00    +0.161 C 
ATOM     23  C   UNL     1       6.882  -3.258  23.380  0.00  0.00    +0.027 C 
ATOM     24  C   UNL     1       9.206  -2.741  23.873  0.00  0.00    +0.318 C 
ATOM     25  O   UNL     1      10.414  -2.852  23.747  0.00  0.00    -0.250 OA
ATOM     26  O   UNL     1       8.143   2.028  23.299  0.00  0.00    -0.438 OA
ATOM     27  O   UNL     1       8.531  -1.551  23.953  0.00  0.00    -0.457 OA
ENDROOT
BRANCH   1  29
ATOM     28  C   UNL     1       9.546  -0.579  21.110  0.00  0.00    +0.007 C 
ATOM     29  C   UNL     1       9.925  -0.012  22.487  0.00  0.00    +0.045 C 
ENDBRANCH   1  29
BRANCH  15  30
ATOM     30  O   UNL     1       3.976  -4.905  27.493  0.00  0.00    -0.374 OA
ATOM     31  C   UNL     1       3.004  -5.117  28.504  0.00  0.00    +0.194 C 
ENDBRANCH  15  30
BRANCH   5  32
ATOM     32  C   UNL     1       8.190   3.390  25.880  0.00  0.00    +0.111 C 
BRANCH  32  33
ATOM     33  C   UNL     1       8.364   4.876  25.685  0.00  0.00    +0.021 C 
BRANCH  33  34
ATOM     34  C   UNL     1       7.646   5.687  26.728  0.00  0.00    +0.023 C 
BRANCH  34  35
ATOM     35  C   UNL     1       6.332   6.058  26.069  0.00  0.00    +0.123 C 
BRANCH  35  36
ATOM     36  N   UNL     1       5.238   5.399  26.683  0.00  0.00    -0.336 N 
ATOM     37  C   UNL     1       4.445   4.469  26.095  0.00  0.00    +0.115 A 
ATOM     38  C   UNL     1       3.581   4.076  27.088  0.00  0.00    +0.090 A 
ATOM     39  N   UNL     1       3.800   4.804  28.247  0.00  0.00    -0.236 NA
ATOM     40  C   UNL     1       4.797   5.601  27.966  0.00  0.00    +0.199 A 
BRANCH  38  41
ATOM     41  C   UNL     1       2.608   3.025  26.985  0.00  0.00    +0.020 A 
ATOM     42  C   UNL     1       1.764   2.886  25.883  0.00  0.00    +0.120 A 
ATOM     43  N   UNL     1       0.865   1.883  25.730  0.00  0.00    -0.263 NA
ATOM     44  C   UNL     1       0.818   0.973  26.725  0.00  0.00    +0.111 A 
ATOM     45  C   UNL     1       1.610   1.017  27.861  0.00  0.00    +0.020 A 
ATOM     46  C   UNL     1       2.518   2.063  27.989  0.00  0.00    +0.013 A 
ENDBRANCH  38  41
ENDBRANCH  35  36
ENDBRANCH  34  35
ENDBRANCH  33  34
ENDBRANCH  32  33
ENDBRANCH   5  32
BRANCH  17  47
ATOM     47  O   UNL     1       5.002  -3.268  25.217  0.00  0.00    -0.342 OA
BRANCH  47  48
ATOM     48  C   UNL     1       3.722  -3.478  24.606  0.00  0.00    +0.281 C 
ATOM     49  C   UNL     1       3.488  -4.904  24.078  0.00  0.00    +0.187 C 
ATOM     50  C   UNL     1       2.075  -5.508  24.200  0.00  0.00    +0.092 C 
ATOM     51  C   UNL     1       1.171  -4.827  25.218  0.00  0.00    +0.053 C 
ATOM     52  C   UNL     1       1.410  -3.328  25.245  0.00  0.00    +0.120 C 
ATOM     53  C   UNL     1       0.443  -2.708  26.255  0.00  0.00    +0.038 C 
ATOM     54  O   UNL     1       2.763  -3.094  25.624  0.00  0.00    -0.346 OA
BRANCH  50  55
ATOM     55  N   UNL     1       2.137  -6.997  24.318  0.00  0.00    -0.303 NA
ATOM     56  C   UNL     1       1.645  -7.671  23.125  0.00  0.00    +0.105 C 
ATOM     57  C   UNL     1       1.513  -7.562  25.516  0.00  0.00    +0.105 C 
ENDBRANCH  50  55
BRANCH  49  58
ATOM     58  O   UNL     1       3.821  -4.997  22.677  0.00  0.00    -0.385 OA
ATOM     59  H   UNL     1       4.745  -4.748  22.541  0.00  0.00    +0.210 HD
ENDBRANCH  49  58
ENDBRANCH  47  48
ENDBRANCH  17  47
TORSDOF 12
ENDMDL
MODEL 4
REMARK VINA RESULT:      -5.1      2.609      4.617
REMARK  Name = 
REMARK  23 active torsions:
REMARK  status: ('A' for Active; 'I' for Inactive)
REMARK    1  A    between atoms: C_1  and  C_2
REMARK    2  A    between atoms: C_2  and  C_3
REMARK    3  A    between atoms: C_8  and  C_10
REMARK    4  A    between atoms: C_13  and  C_15
REMARK    5  A    between atoms: C_16  and  O_18
REMARK    6  A    between atoms: O_18  and  C_19
REMARK    7  A    between atoms: C_22  and  C_24
REMARK    8  A    between atoms: C_26  and  N_31
REMARK    9  A    between atoms: C_28  and  O_30
REMARK   10  A    between atoms: N_31  and  C_32
REMARK   11  A    between atoms: N_31  and  C_33
REMARK   12  A    between atoms: C_34  and  C_35
REMARK   13  A    between atoms: C_34  and  O_68
REMARK   14  A    between atoms: C_37  and  C_39
REMARK   15  A    between atoms: C_42  and  C_44
REMARK   16  A    between atoms: N_47  and  C_48
REMARK   17  A    between atoms: C_48  and  C_49
REMARK   18  A    between atoms: C_49  and  C_50
REMARK   19  A    between atoms: C_50  and  C_51
REMARK   20  A    between atoms: C_51  and  N_52
REMARK   21  A    between atoms: C_55  and  C_57
REMARK   22  A    between atoms: C_66  and  C_67
REMARK   23  A    between atoms: O_68  and  C_69
REMARK                            x       y       z     vdW  Elec       q    Type
REMARK                         _______ _______ _______ _____ _____    ______ ____
ROOT
ATOM      1  C   UNL     1       8.263  -2.283  24.438  0.00  0.00    +0.221 C 
ATOM      2  C   UNL     1       7.070  -1.243  24.146  0.00  0.00    +0.168 C 
ATOM      3  C   UNL     1       6.061  -1.840  23.083  0.00  0.00    +0.062 C 
ATOM      4  C   UNL     1       6.328  -0.175  25.283  0.00  0.00    +0.136 C 
ATOM      5  N   UNL     1       6.723   1.114  24.652  0.00  0.00    -0.260 N 
ATOM      6  C   UNL     1       6.899   0.849  23.297  0.00  0.00    +0.404 C 
ATOM      7  O   UNL     1       6.748   1.629  22.383  0.00  0.00    -0.226 OA
ATOM      8  C   UNL     1       6.227   0.010  26.977  0.00  0.00    +0.077 C 
ATOM      9  C   UNL     1       6.038   1.530  27.393  0.00  0.00    +0.017 C 
ATOM     10  C   UNL     1       5.071  -0.548  27.969  0.00  0.00    +0.141 C 
ATOM     11  O   UNL     1       4.755   0.013  29.019  0.00  0.00    -0.297 OA
ATOM     12  C   UNL     1       4.376  -1.835  27.640  0.00  0.00    +0.055 C 
ATOM     13  C   UNL     1       3.488  -1.514  26.447  0.00  0.00    +0.015 C 
ATOM     14  C   UNL     1       3.579  -2.517  28.852  0.00  0.00    +0.048 C 
ATOM     15  C   UNL     1       3.898  -4.064  29.168  0.00  0.00    +0.094 C 
ATOM     16  C   UNL     1       4.697  -4.120  30.485  0.00  0.00    +0.044 C 
ATOM     17  C   UNL     1       4.631  -4.671  27.917  0.00  0.00    +0.163 C 
ATOM     18  C   UNL     1       5.344  -6.044  27.887  0.00  0.00    +0.085 C 
ATOM     19  C   UNL     1       4.534  -7.222  27.381  0.00  0.00    +0.018 C 
ATOM     20  C   UNL     1       6.798  -5.894  27.249  0.00  0.00    +0.152 C 
ATOM     21  O   UNL     1       7.769  -6.008  28.008  0.00  0.00    -0.296 OA
ATOM     22  C   UNL     1       7.045  -5.638  25.745  0.00  0.00    +0.161 C 
ATOM     23  C   UNL     1       5.837  -5.073  25.027  0.00  0.00    +0.027 C 
ATOM     24  C   UNL     1       8.204  -4.660  25.394  0.00  0.00    +0.318 C 
ATOM     25  O   UNL     1       9.393  -4.929  25.351  0.00  0.00    -0.250 OA
ATOM     26  O   UNL     1       7.653  -0.278  23.227  0.00  0.00    -0.438 OA
ATOM     27  O   UNL     1       7.660  -3.450  25.051  0.00  0.00    -0.457 OA
ENDROOT
BRANCH   1  29
ATOM     28  C   UNL     1      10.530  -1.913  22.937  0.00  0.00    +0.007 C 
ATOM     29  C   UNL     1       9.204  -2.642  23.201  0.00  0.00    +0.045 C 
ENDBRANCH   1  29
BRANCH  15  30
ATOM     30  O   UNL     1       2.786  -4.942  29.357  0.00  0.00    -0.374 OA
ATOM     31  C   UNL     1       1.655  -4.568  30.127  0.00  0.00    +0.194 C 
ENDBRANCH  15  30
BRANCH   5  32
ATOM     32  C   UNL     1       7.854   1.858  25.206  0.00  0.00    +0.111 C 
BRANCH  32  33
ATOM     33  C   UNL     1       8.092   3.233  24.632  0.00  0.00    +0.021 C 
BRANCH  33  34
ATOM     34  C   UNL     1       7.192   4.278  25.232  0.00  0.00    +0.023 C 
BRANCH  34  35
ATOM     35  C   UNL     1       6.971   5.267  24.106  0.00  0.00    +0.123 C 
BRANCH  35  36
ATOM     36  N   UNL     1       5.624   5.262  23.666  0.00  0.00    -0.336 N 
ATOM     37  C   UNL     1       4.955   4.186  23.183  0.00  0.00    +0.115 A 
ATOM     38  C   UNL     1       3.681   4.646  22.956  0.00  0.00    +0.090 A 
ATOM     39  N   UNL     1       3.590   6.000  23.235  0.00  0.00    -0.236 NA
ATOM     40  C   UNL     1       4.781   6.344  23.649  0.00  0.00    +0.199 A 
BRANCH  38  41
ATOM     41  C   UNL     1       2.563   3.849  22.536  0.00  0.00    +0.020 A 
ATOM     42  C   UNL     1       2.509   3.225  21.289  0.00  0.00    +0.120 A 
ATOM     43  N   UNL     1       1.494   2.430  20.874  0.00  0.00    -0.263 NA
ATOM     44  C   UNL     1       0.490   2.243  21.756  0.00  0.00    +0.111 A 
ATOM     45  C   UNL     1       0.445   2.813  23.019  0.00  0.00    +0.020 A 
ATOM     46  C   UNL     1       1.500   3.629  23.411  0.00  0.00    +0.013 A 
ENDBRANCH  38  41
ENDBRANCH  35  36
ENDBRANCH  34  35
ENDBRANCH  33  34
ENDBRANCH  32  33
ENDBRANCH   5  32
BRANCH  17  47
ATOM     47  O   UNL     1       3.973  -4.276  26.700  0.00  0.00    -0.342 OA
BRANCH  47  48
ATOM     48  C   UNL     1       2.668  -4.531  26.162  0.00  0.00    +0.281 C 
ATOM     49  C   UNL     1       2.618  -4.664  24.630  0.00  0.00    +0.187 C 
ATOM     50  C   UNL     1       1.646  -5.690  24.015  0.00  0.00    +0.092 C 
ATOM     51  C   UNL     1       1.163  -6.772  24.971  0.00  0.00    +0.053 C 
ATOM     52  C   UNL     1       0.966  -6.216  26.370  0.00  0.00    +0.120 C 
ATOM     53  C   UNL     1       0.443  -7.342  27.264  0.00  0.00    +0.038 C 
ATOM     54  O   UNL     1       2.220  -5.731  26.843  0.00  0.00    -0.346 OA
BRANCH  50  55
ATOM     55  N   UNL     1       2.160  -6.199  22.707  0.00  0.00    -0.303 NA
ATOM     56  C   UNL     1       1.456  -7.391  22.257  0.00  0.00    +0.105 C 
ATOM     57  C   UNL     1       3.608  -6.406  22.635  0.00  0.00    +0.105 C 
ENDBRANCH  50  55
BRANCH  49  58
ATOM     58  O   UNL     1       2.282  -3.404  24.013  0.00  0.00    -0.385 OA
ATOM     59  H   UNL     1       1.321  -3.312  23.957  0.00  0.00    +0.210 HD
ENDBRANCH  49  58
ENDBRANCH  47  48
ENDBRANCH  17  47
TORSDOF 12
ENDMDL
MODEL 5
REMARK VINA RESULT:      -4.9      3.022     10.082
REMARK  Name = 
REMARK  23 active torsions:
REMARK  status: ('A' for Active; 'I' for Inactive)
REMARK    1  A    between atoms: C_1  and  C_2
REMARK    2  A    between atoms: C_2  and  C_3
REMARK    3  A    between atoms: C_8  and  C_10
REMARK    4  A    between atoms: C_13  and  C_15
REMARK    5  A    between atoms: C_16  and  O_18
REMARK    6  A    between atoms: O_18  and  C_19
REMARK    7  A    between atoms: C_22  and  C_24
REMARK    8  A    between atoms: C_26  and  N_31
REMARK    9  A    between atoms: C_28  and  O_30
REMARK   10  A    between atoms: N_31  and  C_32
REMARK   11  A    between atoms: N_31  and  C_33
REMARK   12  A    between atoms: C_34  and  C_35
REMARK   13  A    between atoms: C_34  and  O_68
REMARK   14  A    between atoms: C_37  and  C_39
REMARK   15  A    between atoms: C_42  and  C_44
REMARK   16  A    between atoms: N_47  and  C_48
REMARK   17  A    between atoms: C_48  and  C_49
REMARK   18  A    between atoms: C_49  and  C_50
REMARK   19  A    between atoms: C_50  and  C_51
REMARK   20  A    between atoms: C_51  and  N_52
REMARK   21  A    between atoms: C_55  and  C_57
REMARK   22  A    between atoms: C_66  and  C_67
REMARK   23  A    between atoms: O_68  and  C_69
REMARK                            x       y       z     vdW  Elec       q    Type
REMARK                         _______ _______ _______ _____ _____    ______ ____
ROOT
ATOM      1  C   UNL     1       6.880   0.830  28.021  0.00  0.00    +0.221 C 
ATOM      2  C   UNL     1       6.295  -0.007  26.776  0.00  0.00    +0.168 C 
ATOM      3  C   UNL     1       4.720   0.130  26.708  0.00  0.00    +0.062 C 
ATOM      4  C   UNL     1       7.041  -0.221  25.233  0.00  0.00    +0.136 C 
ATOM      5  N   UNL     1       7.226  -1.697  25.291  0.00  0.00    -0.260 N 
ATOM      6  C   UNL     1       6.245  -2.182  26.151  0.00  0.00    +0.404 C 
ATOM      7  O   UNL     1       5.734  -3.279  26.117  0.00  0.00    -0.226 OA
ATOM      8  C   UNL     1       8.291   0.489  24.314  0.00  0.00    +0.077 C 
ATOM      9  C   UNL     1       8.979  -0.561  23.343  0.00  0.00    +0.017 C 
ATOM     10  C   UNL     1       8.159   1.650  23.187  0.00  0.00    +0.141 C 
ATOM     11  O   UNL     1       8.928   1.752  22.231  0.00  0.00    -0.297 OA
ATOM     12  C   UNL     1       7.088   2.690  23.323  0.00  0.00    +0.055 C 
ATOM     13  C   UNL     1       5.785   1.962  23.025  0.00  0.00    +0.015 C 
ATOM     14  C   UNL     1       7.289   4.007  22.434  0.00  0.00    +0.048 C 
ATOM     15  C   UNL     1       7.210   5.428  23.189  0.00  0.00    +0.094 C 
ATOM     16  C   UNL     1       8.636   6.008  23.250  0.00  0.00    +0.044 C 
ATOM     17  C   UNL     1       6.524   5.196  24.584  0.00  0.00    +0.163 C 
ATOM     18  C   UNL     1       6.480   6.231  25.733  0.00  0.00    +0.085 C 
ATOM     19  C   UNL     1       5.244   7.108  25.813  0.00  0.00    +0.018 C 
ATOM     20  C   UNL     1       6.918   5.547  27.106  0.00  0.00    +0.152 C 
ATOM     21  O   UNL     1       8.016   5.868  27.578  0.00  0.00    -0.296 OA
ATOM     22  C   UNL     1       6.036   4.534  27.871  0.00  0.00    +0.161 C 
ATOM     23  C   UNL     1       4.974   3.889  27.005  0.00  0.00    +0.027 C 
ATOM     24  C   UNL     1       6.780   3.339  28.536  0.00  0.00    +0.318 C 
ATOM     25  O   UNL     1       7.365   3.353  29.606  0.00  0.00    -0.250 OA
ATOM     26  O   UNL     1       6.275  -1.382  27.248  0.00  0.00    -0.438 OA
ATOM     27  O   UNL     1       6.597   2.227  27.756  0.00  0.00    -0.457 OA
ENDROOT
BRANCH   1  29
ATOM     28  C   UNL     1       5.001   0.655  30.013  0.00  0.00    +0.007 C 
ATOM     29  C   UNL     1       6.407   0.360  29.471  0.00  0.00    +0.045 C 
ENDBRANCH   1  29
BRANCH  15  30
ATOM     30  O   UNL     1       6.407   6.449  22.592  0.00  0.00    -0.374 OA
ATOM     31  C   UNL     1       6.795   7.108  21.398  0.00  0.00    +0.194 C 
ENDBRANCH  15  30
BRANCH   5  32
ATOM     32  C   UNL     1       8.546  -2.234  25.625  0.00  0.00    +0.111 C 
BRANCH  32  33
ATOM     33  C   UNL     1       8.836  -3.635  25.146  0.00  0.00    +0.021 C 
BRANCH  33  34
ATOM     34  C   UNL     1       8.414  -3.862  23.721  0.00  0.00    +0.023 C 
BRANCH  34  35
ATOM     35  C   UNL     1       7.795  -5.245  23.732  0.00  0.00    +0.123 C 
BRANCH  35  36
ATOM     36  N   UNL     1       6.406  -5.196  23.459  0.00  0.00    -0.336 N 
ATOM     37  C   UNL     1       5.459  -5.976  24.037  0.00  0.00    +0.115 A 
ATOM     38  C   UNL     1       4.272  -5.524  23.513  0.00  0.00    +0.090 A 
ATOM     39  N   UNL     1       4.497  -4.526  22.578  0.00  0.00    -0.236 NA
ATOM     40  C   UNL     1       5.793  -4.360  22.560  0.00  0.00    +0.199 A 
BRANCH  38  41
ATOM     41  C   UNL     1       2.962  -5.968  23.896  0.00  0.00    +0.020 A 
ATOM     42  C   UNL     1       2.605  -6.203  25.225  0.00  0.00    +0.120 A 
ATOM     43  N   UNL     1       1.368  -6.580  25.629  0.00  0.00    -0.263 NA
ATOM     44  C   UNL     1       0.443  -6.718  24.657  0.00  0.00    +0.111 A 
ATOM     45  C   UNL     1       0.691  -6.509  23.309  0.00  0.00    +0.020 A 
ATOM     46  C   UNL     1       1.973  -6.129  22.927  0.00  0.00    +0.013 A 
ENDBRANCH  38  41
ENDBRANCH  35  36
ENDBRANCH  34  35
ENDBRANCH  33  34
ENDBRANCH  32  33
ENDBRANCH   5  32
BRANCH  17  47
ATOM     47  O   UNL     1       5.364   4.355  24.447  0.00  0.00    -0.342 OA
BRANCH  47  48
ATOM     48  C   UNL     1       3.978   4.628  24.197  0.00  0.00    +0.281 C 
ATOM     49  C   UNL     1       3.602   4.733  22.709  0.00  0.00    +0.187 C 
ATOM     50  C   UNL     1       2.232   4.187  22.259  0.00  0.00    +0.092 C 
ATOM     51  C   UNL     1       1.583   3.207  23.226  0.00  0.00    +0.053 C 
ATOM     52  C   UNL     1       1.859   3.597  24.668  0.00  0.00    +0.120 C 
ATOM     53  C   UNL     1       1.145   2.597  25.579  0.00  0.00    +0.038 C 
ATOM     54  O   UNL     1       3.267   3.565  24.881  0.00  0.00    -0.346 OA
BRANCH  50  55
ATOM     55  N   UNL     1       2.280   3.722  20.840  0.00  0.00    -0.303 NA
ATOM     56  C   UNL     1       1.870   4.757  19.901  0.00  0.00    +0.105 C 
ATOM     57  C   UNL     1       1.573   2.472  20.560  0.00  0.00    +0.105 C 
ENDBRANCH  50  55
BRANCH  49  58
ATOM     58  O   UNL     1       3.627   6.106  22.265  0.00  0.00    -0.385 OA
ATOM     59  H   UNL     1       4.528   6.354  22.016  0.00  0.00    +0.210 HD
ENDBRANCH  49  58
ENDBRANCH  47  48
ENDBRANCH  17  47
TORSDOF 12
ENDMDL
MODEL 6
REMARK VINA RESULT:      -4.7      1.549      2.094
REMARK  Name = 
REMARK  23 active torsions:
REMARK  status: ('A' for Active; 'I' for Inactive)
REMARK    1  A    between atoms: C_1  and  C_2
REMARK    2  A    between atoms: C_2  and  C_3
REMARK    3  A    between atoms: C_8  and  C_10
REMARK    4  A    between atoms: C_13  and  C_15
REMARK    5  A    between atoms: C_16  and  O_18
REMARK    6  A    between atoms: O_18  and  C_19
REMARK    7  A    between atoms: C_22  and  C_24
REMARK    8  A    between atoms: C_26  and  N_31
REMARK    9  A    between atoms: C_28  and  O_30
REMARK   10  A    between atoms: N_31  and  C_32
REMARK   11  A    between atoms: N_31  and  C_33
REMARK   12  A    between atoms: C_34  and  C_35
REMARK   13  A    between atoms: C_34  and  O_68
REMARK   14  A    between atoms: C_37  and  C_39
REMARK   15  A    between atoms: C_42  and  C_44
REMARK   16  A    between atoms: N_47  and  C_48
REMARK   17  A    between atoms: C_48  and  C_49
REMARK   18  A    between atoms: C_49  and  C_50
REMARK   19  A    between atoms: C_50  and  C_51
REMARK   20  A    between atoms: C_51  and  N_52
REMARK   21  A    between atoms: C_55  and  C_57
REMARK   22  A    between atoms: C_66  and  C_67
REMARK   23  A    between atoms: O_68  and  C_69
REMARK                            x       y       z     vdW  Elec       q    Type
REMARK                         _______ _______ _______ _____ _____    ______ ____
ROOT
ATOM      1  C   UNL     1       7.447   1.414  25.923  0.00  0.00    +0.221 C 
ATOM      2  C   UNL     1       5.871   1.697  25.760  0.00  0.00    +0.168 C 
ATOM      3  C   UNL     1       5.389   1.326  24.299  0.00  0.00    +0.062 C 
ATOM      4  C   UNL     1       4.653   1.489  26.967  0.00  0.00    +0.136 C 
ATOM      5  N   UNL     1       4.228   2.910  27.086  0.00  0.00    -0.260 N 
ATOM      6  C   UNL     1       4.519   3.511  25.866  0.00  0.00    +0.404 C 
ATOM      7  O   UNL     1       3.941   4.450  25.367  0.00  0.00    -0.226 OA
ATOM      8  C   UNL     1       4.471   0.696  28.467  0.00  0.00    +0.077 C 
ATOM      9  C   UNL     1       3.440   1.448  29.410  0.00  0.00    +0.017 C 
ATOM     10  C   UNL     1       3.854  -0.780  28.742  0.00  0.00    +0.141 C 
ATOM     11  O   UNL     1       3.276  -1.086  29.786  0.00  0.00    -0.297 OA
ATOM     12  C   UNL     1       4.029  -1.855  27.712  0.00  0.00    +0.055 C 
ATOM     13  C   UNL     1       3.114  -1.459  26.563  0.00  0.00    +0.015 C 
ATOM     14  C   UNL     1       3.779  -3.352  28.227  0.00  0.00    +0.048 C 
ATOM     15  C   UNL     1       4.934  -4.436  27.939  0.00  0.00    +0.094 C 
ATOM     16  C   UNL     1       5.624  -4.756  29.279  0.00  0.00    +0.044 C 
ATOM     17  C   UNL     1       5.878  -3.851  26.826  0.00  0.00    +0.163 C 
ATOM     18  C   UNL     1       7.254  -4.440  26.431  0.00  0.00    +0.085 C 
ATOM     19  C   UNL     1       7.271  -5.405  25.260  0.00  0.00    +0.018 C 
ATOM     20  C   UNL     1       8.351  -3.284  26.376  0.00  0.00    +0.152 C 
ATOM     21  O   UNL     1       9.212  -3.271  27.265  0.00  0.00    -0.296 OA
ATOM     22  C   UNL     1       8.398  -2.208  25.267  0.00  0.00    +0.161 C 
ATOM     23  C   UNL     1       7.082  -2.044  24.534  0.00  0.00    +0.027 C 
ATOM     24  C   UNL     1       8.777  -0.767  25.721  0.00  0.00    +0.318 C 
ATOM     25  O   UNL     1       9.903  -0.342  25.921  0.00  0.00    -0.250 OA
ATOM     26  O   UNL     1       5.786   3.134  25.552  0.00  0.00    -0.438 OA
ATOM     27  O   UNL     1       7.632  -0.016  25.777  0.00  0.00    -0.457 OA
ENDROOT
BRANCH   1  29
ATOM     28  C   UNL     1       8.631   1.937  23.503  0.00  0.00    +0.007 C 
ATOM     29  C   UNL     1       8.418   2.268  24.988  0.00  0.00    +0.045 C 
ENDBRANCH   1  29
BRANCH  15  30
ATOM     30  O   UNL     1       4.536  -5.699  27.402  0.00  0.00    -0.374 OA
ATOM     31  C   UNL     1       4.851  -6.922  28.048  0.00  0.00    +0.194 C 
ENDBRANCH  15  30
BRANCH   5  32
ATOM     32  C   UNL     1       4.723   3.707  28.210  0.00  0.00    +0.111 C 
BRANCH  32  33
ATOM     33  C   UNL     1       4.481   5.194  28.129  0.00  0.00    +0.021 C 
BRANCH  33  34
ATOM     34  C   UNL     1       5.738   5.998  28.315  0.00  0.00    +0.023 C 
BRANCH  34  35
ATOM     35  C   UNL     1       5.638   7.090  27.269  0.00  0.00    +0.123 C 
BRANCH  35  36
ATOM     36  N   UNL     1       6.607   6.923  26.249  0.00  0.00    -0.336 N 
ATOM     37  C   UNL     1       7.951   6.929  26.429  0.00  0.00    +0.115 A 
ATOM     38  C   UNL     1       8.467   6.666  25.183  0.00  0.00    +0.090 A 
ATOM     39  N   UNL     1       7.453   6.568  24.243  0.00  0.00    -0.236 NA
ATOM     40  C   UNL     1       6.346   6.740  24.916  0.00  0.00    +0.199 A 
BRANCH  38  41
ATOM     41  C   UNL     1       9.854   6.467  24.874  0.00  0.00    +0.020 A 
ATOM     42  C   UNL     1      10.282   5.697  23.791  0.00  0.00    +0.120 A 
ATOM     43  N   UNL     1      11.579   5.523  23.441  0.00  0.00    -0.263 NA
ATOM     44  C   UNL     1      12.490   6.157  24.208  0.00  0.00    +0.111 A 
ATOM     45  C   UNL     1      12.174   6.945  25.304  0.00  0.00    +0.020 A 
ATOM     46  C   UNL     1      10.833   7.098  25.639  0.00  0.00    +0.013 A 
ENDBRANCH  38  41
ENDBRANCH  35  36
ENDBRANCH  34  35
ENDBRANCH  33  34
ENDBRANCH  32  33
ENDBRANCH   5  32
BRANCH  17  47
ATOM     47  O   UNL     1       5.108  -3.276  25.756  0.00  0.00    -0.342 OA
BRANCH  47  48
ATOM     48  C   UNL     1       4.380  -3.841  24.656  0.00  0.00    +0.281 C 
ATOM     49  C   UNL     1       5.215  -4.072  23.384  0.00  0.00    +0.187 C 
ATOM     50  C   UNL     1       4.917  -5.320  22.529  0.00  0.00    +0.092 C 
ATOM     51  C   UNL     1       4.149  -6.422  23.247  0.00  0.00    +0.053 C 
ATOM     52  C   UNL     1       3.125  -5.840  24.205  0.00  0.00    +0.120 C 
ATOM     53  C   UNL     1       2.367  -6.998  24.856  0.00  0.00    +0.038 C 
ATOM     54  O   UNL     1       3.812  -5.066  25.184  0.00  0.00    -0.346 OA
BRANCH  50  55
ATOM     55  N   UNL     1       6.142  -5.782  21.809  0.00  0.00    -0.303 NA
ATOM     56  C   UNL     1       7.310  -4.971  22.122  0.00  0.00    +0.105 C 
ATOM     57  C   UNL     1       6.003  -5.936  20.360  0.00  0.00    +0.105 C 
ENDBRANCH  50  55
BRANCH  49  58
ATOM     58  O   UNL     1       5.098  -2.955  22.479  0.00  0.00    -0.385 OA
ATOM     59  H   UNL     1       4.209  -2.580  22.533  0.00  0.00    +0.210 HD
ENDBRANCH  49  58
ENDBRANCH  47  48
ENDBRANCH  17  47
TORSDOF 12
ENDMDL
MODEL 7
REMARK VINA RESULT:      -4.6      2.960      9.878
REMARK  Name = 
REMARK  23 active torsions:
REMARK  status: ('A' for Active; 'I' for Inactive)
REMARK    1  A    between atoms: C_1  and  C_2
REMARK    2  A    between atoms: C_2  and  C_3
REMARK    3  A    between atoms: C_8  and  C_10
REMARK    4  A    between atoms: C_13  and  C_15
REMARK    5  A    between atoms: C_16  and  O_18
REMARK    6  A    between atoms: O_18  and  C_19
REMARK    7  A    between atoms: C_22  and  C_24
REMARK    8  A    between atoms: C_26  and  N_31
REMARK    9  A    between atoms: C_28  and  O_30
REMARK   10  A    between atoms: N_31  and  C_32
REMARK   11  A    between atoms: N_31  and  C_33
REMARK   12  A    between atoms: C_34  and  C_35
REMARK   13  A    between atoms: C_34  and  O_68
REMARK   14  A    between atoms: C_37  and  C_39
REMARK   15  A    between atoms: C_42  and  C_44
REMARK   16  A    between atoms: N_47  and  C_48
REMARK   17  A    between atoms: C_48  and  C_49
REMARK   18  A    between atoms: C_49  and  C_50
REMARK   19  A    between atoms: C_50  and  C_51
REMARK   20  A    between atoms: C_51  and  N_52
REMARK   21  A    between atoms: C_55  and  C_57
REMARK   22  A    between atoms: C_66  and  C_67
REMARK   23  A    between atoms: O_68  and  C_69
REMARK                            x       y       z     vdW  Elec       q    Type
REMARK                         _______ _______ _______ _____ _____    ______ ____
ROOT
ATOM      1  C   UNL     1       6.463  -0.257  26.204  0.00  0.00    +0.221 C 
ATOM      2  C   UNL     1       5.661   0.385  27.444  0.00  0.00    +0.168 C 
ATOM      3  C   UNL     1       6.600   1.359  28.264  0.00  0.00    +0.062 C 
ATOM      4  C   UNL     1       3.995   0.836  27.475  0.00  0.00    +0.136 C 
ATOM      5  N   UNL     1       3.538  -0.117  28.524  0.00  0.00    -0.260 N 
ATOM      6  C   UNL     1       4.649  -0.395  29.313  0.00  0.00    +0.404 C 
ATOM      7  O   UNL     1       4.646  -0.702  30.484  0.00  0.00    -0.226 OA
ATOM      8  C   UNL     1       2.734   1.130  26.363  0.00  0.00    +0.077 C 
ATOM      9  C   UNL     1       1.313   0.789  26.979  0.00  0.00    +0.017 C 
ATOM     10  C   UNL     1       2.274   2.555  25.738  0.00  0.00    +0.141 C 
ATOM     11  O   UNL     1       1.117   2.798  25.392  0.00  0.00    -0.297 OA
ATOM     12  C   UNL     1       3.299   3.626  25.512  0.00  0.00    +0.055 C 
ATOM     13  C   UNL     1       3.672   4.120  26.901  0.00  0.00    +0.015 C 
ATOM     14  C   UNL     1       2.856   4.806  24.523  0.00  0.00    +0.048 C 
ATOM     15  C   UNL     1       3.845   5.157  23.301  0.00  0.00    +0.094 C 
ATOM     16  C   UNL     1       3.180   4.663  22.001  0.00  0.00    +0.044 C 
ATOM     17  C   UNL     1       5.247   4.520  23.616  0.00  0.00    +0.163 C 
ATOM     18  C   UNL     1       6.409   4.389  22.603  0.00  0.00    +0.085 C 
ATOM     19  C   UNL     1       7.448   5.495  22.612  0.00  0.00    +0.018 C 
ATOM     20  C   UNL     1       6.995   2.906  22.626  0.00  0.00    +0.152 C 
ATOM     21  O   UNL     1       6.768   2.188  21.644  0.00  0.00    -0.296 OA
ATOM     22  C   UNL     1       7.836   2.342  23.793  0.00  0.00    +0.161 C 
ATOM     23  C   UNL     1       7.659   3.110  25.087  0.00  0.00    +0.027 C 
ATOM     24  C   UNL     1       7.570   0.856  24.179  0.00  0.00    +0.318 C 
ATOM     25  O   UNL     1       8.023  -0.130  23.623  0.00  0.00    -0.250 OA
ATOM     26  O   UNL     1       5.666  -0.662  28.453  0.00  0.00    -0.438 OA
ATOM     27  O   UNL     1       6.803   0.835  25.314  0.00  0.00    -0.457 OA
ENDROOT
BRANCH   1  29
ATOM     28  C   UNL     1       7.866  -2.610  26.042  0.00  0.00    +0.007 C 
ATOM     29  C   UNL     1       7.714  -1.177  26.572  0.00  0.00    +0.045 C 
ENDBRANCH   1  29
BRANCH  15  30
ATOM     30  O   UNL     1       4.152   6.534  23.074  0.00  0.00    -0.374 OA
ATOM     31  C   UNL     1       4.118   7.108  21.777  0.00  0.00    +0.194 C 
ENDBRANCH  15  30
BRANCH   5  32
ATOM     32  C   UNL     1       2.847  -1.341  28.117  0.00  0.00    +0.111 C 
BRANCH  32  33
ATOM     33  C   UNL     1       2.702  -2.407  29.176  0.00  0.00    +0.021 C 
BRANCH  33  34
ATOM     34  C   UNL     1       2.862  -3.797  28.627  0.00  0.00    +0.023 C 
BRANCH  34  35
ATOM     35  C   UNL     1       4.325  -4.118  28.853  0.00  0.00    +0.123 C 
BRANCH  35  36
ATOM     36  N   UNL     1       4.884  -4.803  27.746  0.00  0.00    -0.336 N 
ATOM     37  C   UNL     1       4.719  -4.465  26.442  0.00  0.00    +0.115 A 
ATOM     38  C   UNL     1       5.493  -5.366  25.752  0.00  0.00    +0.090 A 
ATOM     39  N   UNL     1       6.070  -6.282  26.616  0.00  0.00    -0.236 NA
ATOM     40  C   UNL     1       5.674  -5.922  27.809  0.00  0.00    +0.199 A 
BRANCH  38  41
ATOM     41  C   UNL     1       5.731  -5.355  24.336  0.00  0.00    +0.020 A 
ATOM     42  C   UNL     1       4.698  -5.388  23.399  0.00  0.00    +0.120 A 
ATOM     43  N   UNL     1       4.880  -5.335  22.057  0.00  0.00    -0.263 NA
ATOM     44  C   UNL     1       6.159  -5.234  21.637  0.00  0.00    +0.111 A 
ATOM     45  C   UNL     1       7.257  -5.193  22.482  0.00  0.00    +0.020 A 
ATOM     46  C   UNL     1       7.035  -5.256  23.853  0.00  0.00    +0.013 A 
ENDBRANCH  38  41
ENDBRANCH  35  36
ENDBRANCH  34  35
ENDBRANCH  33  34
ENDBRANCH  32  33
ENDBRANCH   5  32
BRANCH  17  47
ATOM     47  O   UNL     1       5.625   4.772  24.981  0.00  0.00    -0.342 OA
BRANCH  47  48
ATOM     48  C   UNL     1       6.141   5.926  25.659  0.00  0.00    +0.281 C 
ATOM     49  C   UNL     1       5.662   6.085  27.113  0.00  0.00    +0.187 C 
ATOM     50  C   UNL     1       6.652   6.644  28.154  0.00  0.00    +0.092 C 
ATOM     51  C   UNL     1       8.119   6.563  27.753  0.00  0.00    +0.053 C 
ATOM     52  C   UNL     1       8.293   6.809  26.265  0.00  0.00    +0.120 C 
ATOM     53  C   UNL     1       9.787   6.754  25.943  0.00  0.00    +0.038 C 
ATOM     54  O   UNL     1       7.581   5.798  25.556  0.00  0.00    -0.346 OA
BRANCH  50  55
ATOM     55  N   UNL     1       6.349   6.116  29.519  0.00  0.00    -0.303 NA
ATOM     56  C   UNL     1       7.408   6.407  30.475  0.00  0.00    +0.105 C 
ATOM     57  C   UNL     1       5.981   4.701  29.582  0.00  0.00    +0.105 C 
ENDBRANCH  50  55
BRANCH  49  58
ATOM     58  O   UNL     1       4.508   6.948  27.186  0.00  0.00    -0.385 OA
ATOM     59  H   UNL     1       4.407   7.286  28.086  0.00  0.00    +0.210 HD
ENDBRANCH  49  58
ENDBRANCH  47  48
ENDBRANCH  17  47
TORSDOF 12
ENDMDL
MODEL 8
REMARK VINA RESULT:      -4.5      3.011      6.516
REMARK  Name = 
REMARK  23 active torsions:
REMARK  status: ('A' for Active; 'I' for Inactive)
REMARK    1  A    between atoms: C_1  and  C_2
REMARK    2  A    between atoms: C_2  and  C_3
REMARK    3  A    between atoms: C_8  and  C_10
REMARK    4  A    between atoms: C_13  and  C_15
REMARK    5  A    between atoms: C_16  and  O_18
REMARK    6  A    between atoms: O_18  and  C_19
REMARK    7  A    between atoms: C_22  and  C_24
REMARK    8  A    between atoms: C_26  and  N_31
REMARK    9  A    between atoms: C_28  and  O_30
REMARK   10  A    between atoms: N_31  and  C_32
REMARK   11  A    between atoms: N_31  and  C_33
REMARK   12  A    between atoms: C_34  and  C_35
REMARK   13  A    between atoms: C_34  and  O_68
REMARK   14  A    between atoms: C_37  and  C_39
REMARK   15  A    between atoms: C_42  and  C_44
REMARK   16  A    between atoms: N_47  and  C_48
REMARK   17  A    between atoms: C_48  and  C_49
REMARK   18  A    between atoms: C_49  and  C_50
REMARK   19  A    between atoms: C_50  and  C_51
REMARK   20  A    between atoms: C_51  and  N_52
REMARK   21  A    between atoms: C_55  and  C_57
REMARK   22  A    between atoms: C_66  and  C_67
REMARK   23  A    between atoms: O_68  and  C_69
REMARK                            x       y       z     vdW  Elec       q    Type
REMARK                         _______ _______ _______ _____ _____    ______ ____
ROOT
ATOM      1  C   UNL     1       5.532  -0.509  26.021  0.00  0.00    +0.221 C 
ATOM      2  C   UNL     1       6.702  -1.580  25.746  0.00  0.00    +0.168 C 
ATOM      3  C   UNL     1       7.024  -2.398  27.063  0.00  0.00    +0.062 C 
ATOM      4  C   UNL     1       6.966  -2.473  24.292  0.00  0.00    +0.136 C 
ATOM      5  N   UNL     1       8.299  -1.911  23.938  0.00  0.00    -0.260 N 
ATOM      6  C   UNL     1       8.880  -1.497  25.132  0.00  0.00    +0.404 C 
ATOM      7  O   UNL     1      10.064  -1.442  25.378  0.00  0.00    -0.226 OA
ATOM      8  C   UNL     1       6.107  -2.879  22.874  0.00  0.00    +0.077 C 
ATOM      9  C   UNL     1       7.076  -3.075  21.633  0.00  0.00    +0.017 C 
ATOM     10  C   UNL     1       5.244  -4.223  22.587  0.00  0.00    +0.141 C 
ATOM     11  O   UNL     1       5.099  -4.704  21.462  0.00  0.00    -0.297 OA
ATOM     12  C   UNL     1       4.536  -4.900  23.721  0.00  0.00    +0.055 C 
ATOM     13  C   UNL     1       5.638  -5.536  24.555  0.00  0.00    +0.015 C 
ATOM     14  C   UNL     1       3.390  -5.938  23.298  0.00  0.00    +0.048 C 
ATOM     15  C   UNL     1       1.940  -5.751  23.971  0.00  0.00    +0.094 C 
ATOM     16  C   UNL     1       0.983  -5.215  22.888  0.00  0.00    +0.044 C 
ATOM     17  C   UNL     1       2.107  -4.826  25.231  0.00  0.00    +0.163 C 
ATOM     18  C   UNL     1       0.941  -4.180  26.018  0.00  0.00    +0.085 C 
ATOM     19  C   UNL     1       0.443  -4.934  27.237  0.00  0.00    +0.018 C 
ATOM     20  C   UNL     1       1.226  -2.628  26.247  0.00  0.00    +0.152 C 
ATOM     21  O   UNL     1       0.535  -1.821  25.612  0.00  0.00    -0.296 OA
ATOM     22  C   UNL     1       2.295  -2.095  27.227  0.00  0.00    +0.161 C 
ATOM     23  C   UNL     1       3.351  -3.122  27.580  0.00  0.00    +0.027 C 
ATOM     24  C   UNL     1       3.101  -0.849  26.756  0.00  0.00    +0.318 C 
ATOM     25  O   UNL     1       2.738   0.314  26.814  0.00  0.00    -0.250 OA
ATOM     26  O   UNL     1       7.925  -0.794  25.794  0.00  0.00    -0.438 OA
ATOM     27  O   UNL     1       4.338  -1.266  26.339  0.00  0.00    -0.457 OA
ENDROOT
BRANCH   1  29
ATOM     28  C   UNL     1       6.895   1.730  26.834  0.00  0.00    +0.007 C 
ATOM     29  C   UNL     1       5.855   0.630  27.091  0.00  0.00    +0.045 C 
ENDBRANCH   1  29
BRANCH  15  30
ATOM     30  O   UNL     1       1.302  -6.916  24.501  0.00  0.00    -0.374 OA
ATOM     31  C   UNL     1       1.567  -8.214  23.992  0.00  0.00    +0.194 C 
ENDBRANCH  15  30
BRANCH   5  32
ATOM     32  C   UNL     1       8.380  -0.871  22.911  0.00  0.00    +0.111 C 
BRANCH  32  33
ATOM     33  C   UNL     1       8.029   0.529  23.353  0.00  0.00    +0.021 C 
BRANCH  33  34
ATOM     34  C   UNL     1       7.735   1.446  22.198  0.00  0.00    +0.023 C 
BRANCH  34  35
ATOM     35  C   UNL     1       7.983   2.833  22.755  0.00  0.00    +0.123 C 
BRANCH  35  36
ATOM     36  N   UNL     1       6.830   3.650  22.649  0.00  0.00    -0.336 N 
ATOM     37  C   UNL     1       5.548   3.229  22.788  0.00  0.00    +0.115 A 
ATOM     38  C   UNL     1       4.795   4.372  22.671  0.00  0.00    +0.090 A 
ATOM     39  N   UNL     1       5.601   5.466  22.398  0.00  0.00    -0.236 NA
ATOM     40  C   UNL     1       6.820   4.994  22.380  0.00  0.00    +0.199 A 
BRANCH  38  41
ATOM     41  C   UNL     1       3.374   4.462  22.851  0.00  0.00    +0.020 A 
ATOM     42  C   UNL     1       2.583   5.377  22.153  0.00  0.00    +0.120 A 
ATOM     43  N   UNL     1       1.235   5.461  22.262  0.00  0.00    -0.263 NA
ATOM     44  C   UNL     1       0.652   4.582  23.103  0.00  0.00    +0.111 A 
ATOM     45  C   UNL     1       1.342   3.633  23.841  0.00  0.00    +0.020 A 
ATOM     46  C   UNL     1       2.726   3.577  23.710  0.00  0.00    +0.013 A 
ENDBRANCH  38  41
ENDBRANCH  35  36
ENDBRANCH  34  35
ENDBRANCH  33  34
ENDBRANCH  32  33
ENDBRANCH   5  32
BRANCH  17  47
ATOM     47  O   UNL     1       3.247  -5.228  26.010  0.00  0.00    -0.342 OA
BRANCH  47  48
ATOM     48  C   UNL     1       3.529  -6.381  26.815  0.00  0.00    +0.281 C 
ATOM     49  C   UNL     1       4.551  -6.146  27.940  0.00  0.00    +0.187 C 
ATOM     50  C   UNL     1       4.343  -6.874  29.284  0.00  0.00    +0.092 C 
ATOM     51  C   UNL     1       2.932  -7.392  29.521  0.00  0.00    +0.053 C 
ATOM     52  C   UNL     1       2.309  -7.893  28.230  0.00  0.00    +0.120 C 
ATOM     53  C   UNL     1       0.914  -8.434  28.550  0.00  0.00    +0.038 C 
ATOM     54  O   UNL     1       2.235  -6.804  27.314  0.00  0.00    -0.346 OA
BRANCH  50  55
ATOM     55  N   UNL     1       4.916  -6.083  30.416  0.00  0.00    -0.303 NA
ATOM     56  C   UNL     1       4.372  -4.735  30.484  0.00  0.00    +0.105 C 
ATOM     57  C   UNL     1       6.377  -6.047  30.485  0.00  0.00    +0.105 C 
ENDBRANCH  50  55
BRANCH  49  58
ATOM     58  O   UNL     1       5.882  -6.508  27.515  0.00  0.00    -0.385 OA
ATOM     59  H   UNL     1       5.852  -6.876  26.621  0.00  0.00    +0.210 HD
ENDBRANCH  49  58
ENDBRANCH  47  48
ENDBRANCH  17  47
TORSDOF 12
ENDMDL
MODEL 9
REMARK VINA RESULT:      -4.3      2.887     10.422
REMARK  Name = 
REMARK  23 active torsions:
REMARK  status: ('A' for Active; 'I' for Inactive)
REMARK    1  A    between atoms: C_1  and  C_2
REMARK    2  A    between atoms: C_2  and  C_3
REMARK    3  A    between atoms: C_8  and  C_10
REMARK    4  A    between atoms: C_13  and  C_15
REMARK    5  A    between atoms: C_16  and  O_18
REMARK    6  A    between atoms: O_18  and  C_19
REMARK    7  A    between atoms: C_22  and  C_24
REMARK    8  A    between atoms: C_26  and  N_31
REMARK    9  A    between atoms: C_28  and  O_30
REMARK   10  A    between atoms: N_31  and  C_32
REMARK   11  A    between atoms: N_31  and  C_33
REMARK   12  A    between atoms: C_34  and  C_35
REMARK   13  A    between atoms: C_34  and  O_68
REMARK   14  A    between atoms: C_37  and  C_39
REMARK   15  A    between atoms: C_42  and  C_44
REMARK   16  A    between atoms: N_47  and  C_48
REMARK   17  A    between atoms: C_48  and  C_49
REMARK   18  A    between atoms: C_49  and  C_50
REMARK   19  A    between atoms: C_50  and  C_51
REMARK   20  A    between atoms: C_51  and  N_52
REMARK   21  A    between atoms: C_55  and  C_57
REMARK   22  A    between atoms: C_66  and  C_67
REMARK   23  A    between atoms: O_68  and  C_69
REMARK                            x       y       z     vdW  Elec       q    Type
REMARK                         _______ _______ _______ _____ _____    ______ ____
ROOT
ATOM      1  C   UNL     1       7.349   1.545  22.923  0.00  0.00    +0.221 C 
ATOM      2  C   UNL     1       8.155   1.402  24.309  0.00  0.00    +0.168 C 
ATOM      3  C   UNL     1       9.032   2.693  24.575  0.00  0.00    +0.062 C 
ATOM      4  C   UNL     1       7.603   0.628  25.751  0.00  0.00    +0.136 C 
ATOM      5  N   UNL     1       8.619  -0.459  25.809  0.00  0.00    -0.260 N 
ATOM      6  C   UNL     1       9.741   0.016  25.140  0.00  0.00    +0.404 C 
ATOM      7  O   UNL     1      10.893  -0.298  25.346  0.00  0.00    -0.226 OA
ATOM      8  C   UNL     1       6.130   0.089  26.422  0.00  0.00    +0.077 C 
ATOM      9  C   UNL     1       6.341  -1.153  27.387  0.00  0.00    +0.017 C 
ATOM     10  C   UNL     1       5.151   0.888  27.441  0.00  0.00    +0.141 C 
ATOM     11  O   UNL     1       4.436   0.324  28.271  0.00  0.00    -0.297 OA
ATOM     12  C   UNL     1       5.056   2.381  27.351  0.00  0.00    +0.055 C 
ATOM     13  C   UNL     1       6.382   2.898  27.890  0.00  0.00    +0.015 C 
ATOM     14  C   UNL     1       3.786   3.036  28.076  0.00  0.00    +0.048 C 
ATOM     15  C   UNL     1       2.875   4.040  27.207  0.00  0.00    +0.094 C 
ATOM     16  C   UNL     1       1.546   3.325  26.899  0.00  0.00    +0.044 C 
ATOM     17  C   UNL     1       3.706   4.476  25.946  0.00  0.00    +0.163 C 
ATOM     18  C   UNL     1       3.130   5.223  24.719  0.00  0.00    +0.085 C 
ATOM     19  C   UNL     1       3.253   6.736  24.724  0.00  0.00    +0.018 C 
ATOM     20  C   UNL     1       3.592   4.507  23.372  0.00  0.00    +0.152 C 
ATOM     21  O   UNL     1       2.732   3.893  22.728  0.00  0.00    -0.296 OA
ATOM     22  C   UNL     1       5.039   4.563  22.833  0.00  0.00    +0.161 C 
ATOM     23  C   UNL     1       6.061   4.925  23.891  0.00  0.00    +0.027 C 
ATOM     24  C   UNL     1       5.586   3.254  22.190  0.00  0.00    +0.318 C 
ATOM     25  O   UNL     1       5.377   2.861  21.054  0.00  0.00    -0.250 OA
ATOM     26  O   UNL     1       9.289   0.554  23.977  0.00  0.00    -0.438 OA
ATOM     27  O   UNL     1       6.423   2.648  23.089  0.00  0.00    -0.457 OA
ENDROOT
BRANCH   1  29
ATOM     28  C   UNL     1       8.862   0.443  20.917  0.00  0.00    +0.007 C 
ATOM     29  C   UNL     1       8.235   1.666  21.601  0.00  0.00    +0.045 C 
ENDBRANCH   1  29
BRANCH  15  30
ATOM     30  O   UNL     1       2.509   5.286  27.806  0.00  0.00    -0.374 OA
ATOM     31  C   UNL     1       1.205   5.828  27.674  0.00  0.00    +0.194 C 
ENDBRANCH  15  30
BRANCH   5  32
ATOM     32  C   UNL     1       8.249  -1.800  25.354  0.00  0.00    +0.111 C 
BRANCH  32  33
ATOM     33  C   UNL     1       9.153  -2.925  25.794  0.00  0.00    +0.021 C 
BRANCH  33  34
ATOM     34  C   UNL     1       8.391  -4.132  26.267  0.00  0.00    +0.023 C 
BRANCH  34  35
ATOM     35  C   UNL     1       7.863  -4.760  24.993  0.00  0.00    +0.123 C 
BRANCH  35  36
ATOM     36  N   UNL     1       6.554  -5.273  25.170  0.00  0.00    -0.336 N 
ATOM     37  C   UNL     1       5.635  -5.447  24.188  0.00  0.00    +0.115 A 
ATOM     38  C   UNL     1       4.561  -6.025  24.820  0.00  0.00    +0.090 A 
ATOM     39  N   UNL     1       4.796  -6.141  26.181  0.00  0.00    -0.236 NA
ATOM     40  C   UNL     1       6.001  -5.668  26.361  0.00  0.00    +0.199 A 
BRANCH  38  41
ATOM     41  C   UNL     1       3.366  -6.499  24.180  0.00  0.00    +0.020 A 
ATOM     42  C   UNL     1       2.650  -5.733  23.260  0.00  0.00    +0.120 A 
ATOM     43  N   UNL     1       1.545  -6.162  22.603  0.00  0.00    -0.263 NA
ATOM     44  C   UNL     1       1.146  -7.422  22.875  0.00  0.00    +0.111 A 
ATOM     45  C   UNL     1       1.784  -8.266  23.770  0.00  0.00    +0.020 A 
ATOM     46  C   UNL     1       2.912  -7.793  24.432  0.00  0.00    +0.013 A 
ENDBRANCH  38  41
ENDBRANCH  35  36
ENDBRANCH  34  35
ENDBRANCH  33  34
ENDBRANCH  32  33
ENDBRANCH   5  32
BRANCH  17  47
ATOM     47  O   UNL     1       5.053   4.818  26.317  0.00  0.00    -0.342 OA
BRANCH  47  48
ATOM     48  C   UNL     1       5.690   6.053  26.671  0.00  0.00    +0.281 C 
ATOM     49  C   UNL     1       5.799   6.308  28.185  0.00  0.00    +0.187 C 
ATOM     50  C   UNL     1       7.064   7.010  28.720  0.00  0.00    +0.092 C 
ATOM     51  C   UNL     1       8.262   6.978  27.781  0.00  0.00    +0.053 C 
ATOM     52  C   UNL     1       7.825   7.104  26.333  0.00  0.00    +0.120 C 
ATOM     53  C   UNL     1       9.077   7.107  25.454  0.00  0.00    +0.038 C 
ATOM     54  O   UNL     1       6.984   5.998  26.018  0.00  0.00    -0.346 OA
BRANCH  50  55
ATOM     55  N   UNL     1       7.359   6.585  30.122  0.00  0.00    -0.303 NA
ATOM     56  C   UNL     1       8.762   6.754  30.471  0.00  0.00    +0.105 C 
ATOM     57  C   UNL     1       6.902   5.243  30.485  0.00  0.00    +0.105 C 
ENDBRANCH  50  55
BRANCH  49  58
ATOM     58  O   UNL     1       4.694   7.108  28.655  0.00  0.00    -0.385 OA
ATOM     59  H   UNL     1       3.901   6.560  28.731  0.00  0.00    +0.210 HD
ENDBRANCH  49  58
ENDBRANCH  47  48
ENDBRANCH  17  47
TORSDOF 12
ENDMDL
