MODEL 1
REMARK VINA RESULT:      -5.0      0.000      0.000
REMARK  Name = 
REMARK  13 active torsions:
REMARK  status: ('A' for Active; 'I' for Inactive)
REMARK    1  A    between atoms: C_1  and  C_2
REMARK    2  A    between atoms: C_2  and  C_3
REMARK    3  A    between atoms: C_3  and  C_4
REMARK    4  A    between atoms: C_4  and  C_5
REMARK    5  A    between atoms: C_5  and  C_6
REMARK    6  A    between atoms: C_6  and  C_7
REMARK    7  A    between atoms: C_7  and  O_8
REMARK    8  A    between atoms: C_7  and  P_9
REMARK    9  A    between atoms: C_7  and  P_13
REMARK   10  A    between atoms: P_9  and  O_10
REMARK   11  A    between atoms: P_9  and  O_11
REMARK   12  A    between atoms: P_13  and  O_14
REMARK   13  A    between atoms: P_13  and  O_15
REMARK                            x       y       z     vdW  Elec       q    Type
REMARK                         _______ _______ _______ _____ _____    ______ ____
ROOT
ATOM      1  C   UNL     1       8.430  -4.608  24.856  0.00  0.00    +0.267 C 
ENDROOT
BRANCH   1   2
ATOM      2  P   UNL     1       7.157  -4.936  23.584  0.00  0.00    +0.371 P 
ATOM      3  O   UNL     1       6.080  -5.213  22.506  0.00  0.00    -0.255 OA
BRANCH   2   4
ATOM      4  O   UNL     1       6.628  -3.381  23.828  0.00  0.00    -0.322 OA
ATOM      5  H   UNL     1       5.815  -3.208  23.292  0.00  0.00    +0.220 HD
ENDBRANCH   2   4
BRANCH   2   6
ATOM      6  O   UNL     1       6.204  -5.638  24.724  0.00  0.00    -0.322 OA
ATOM      7  H   UNL     1       6.308  -6.602  24.558  0.00  0.00    +0.220 HD
ENDBRANCH   2   6
ENDBRANCH   1   2
BRANCH   1   8
ATOM      8  P   UNL     1       7.842  -5.215  26.479  0.00  0.00    +0.371 P 
ATOM      9  O   UNL     1       7.345  -5.729  27.852  0.00  0.00    -0.255 OA
BRANCH   8  10
ATOM     10  O   UNL     1       7.209  -3.716  26.782  0.00  0.00    -0.322 OA
ATOM     11  H   UNL     1       7.449  -3.145  26.019  0.00  0.00    +0.220 HD
ENDBRANCH   8  10
BRANCH   8  12
ATOM     12  O   UNL     1       9.321  -4.876  27.108  0.00  0.00    -0.322 OA
ATOM     13  H   UNL     1       9.743  -5.729  27.357  0.00  0.00    +0.220 HD
ENDBRANCH   8  12
ENDBRANCH   1   8
BRANCH   1  14
ATOM     14  O   UNL     1       9.612  -5.392  24.438  0.00  0.00    -0.367 OA
ATOM     15  H   UNL     1       9.716  -5.146  23.488  0.00  0.00    +0.212 HD
ENDBRANCH   1  14
BRANCH   1  16
ATOM     16  C   UNL     1       8.897  -3.130  24.927  0.00  0.00    +0.060 C 
BRANCH  16  17
ATOM     17  C   UNL     1       9.939  -2.652  23.917  0.00  0.00    +0.004 C 
BRANCH  17  18
ATOM     18  C   UNL     1       9.697  -1.190  23.494  0.00  0.00    +0.000 C 
BRANCH  18  19
ATOM     19  C   UNL     1       9.986  -0.937  22.011  0.00  0.00    -0.000 C 
BRANCH  19  21
ATOM     20  C   UNL     1       9.978   1.572  22.001  0.00  0.00    +0.004 C 
ATOM     21  C   UNL     1       9.287   0.316  21.485  0.00  0.00    -0.003 C 
ENDBRANCH  19  21
ENDBRANCH  18  19
ENDBRANCH  17  18
ENDBRANCH  16  17
ENDBRANCH   1  16
TORSDOF 12
ENDMDL
MODEL 2
REMARK VINA RESULT:      -4.8      1.206      1.615
REMARK  Name = 
REMARK  13 active torsions:
REMARK  status: ('A' for Active; 'I' for Inactive)
REMARK    1  A    between atoms: C_1  and  C_2
REMARK    2  A    between atoms: C_2  and  C_3
REMARK    3  A    between atoms: C_3  and  C_4
REMARK    4  A    between atoms: C_4  and  C_5
REMARK    5  A    between atoms: C_5  and  C_6
REMARK    6  A    between atoms: C_6  and  C_7
REMARK    7  A    between atoms: C_7  and  O_8
REMARK    8  A    between atoms: C_7  and  P_9
REMARK    9  A    between atoms: C_7  and  P_13
REMARK   10  A    between atoms: P_9  and  O_10
REMARK   11  A    between atoms: P_9  and  O_11
REMARK   12  A    between atoms: P_13  and  O_14
REMARK   13  A    between atoms: P_13  and  O_15
REMARK                            x       y       z     vdW  Elec       q    Type
REMARK                         _______ _______ _______ _____ _____    ______ ____
ROOT
ATOM      1  C   UNL     1       8.364  -3.972  24.846  0.00  0.00    +0.267 C 
ENDROOT
BRANCH   1   2
ATOM      2  P   UNL     1       7.237  -4.467  23.492  0.00  0.00    +0.371 P 
ATOM      3  O   UNL     1       6.283  -4.885  22.347  0.00  0.00    -0.255 OA
BRANCH   2   4
ATOM      4  O   UNL     1       6.385  -5.331  24.627  0.00  0.00    -0.322 OA
ATOM      5  H   UNL     1       5.749  -5.944  24.182  0.00  0.00    +0.220 HD
ENDBRANCH   2   4
BRANCH   2   6
ATOM      6  O   UNL     1       8.272  -5.675  23.078  0.00  0.00    -0.322 OA
ATOM      7  H   UNL     1       8.004  -5.911  22.161  0.00  0.00    +0.220 HD
ENDBRANCH   2   6
ENDBRANCH   1   2
BRANCH   1   8
ATOM      8  P   UNL     1       7.949  -4.912  26.360  0.00  0.00    +0.371 P 
ATOM      9  O   UNL     1       7.598  -5.707  27.642  0.00  0.00    -0.255 OA
BRANCH   8  10
ATOM     10  O   UNL     1       9.139  -4.090  27.165  0.00  0.00    -0.322 OA
ATOM     11  H   UNL     1       8.796  -3.186  27.338  0.00  0.00    +0.220 HD
ENDBRANCH   8  10
BRANCH   8  12
ATOM     12  O   UNL     1       8.933  -6.121  25.844  0.00  0.00    -0.322 OA
ATOM     13  H   UNL     1       9.857  -5.874  26.073  0.00  0.00    +0.220 HD
ENDBRANCH   8  12
ENDBRANCH   1   8
BRANCH   1  14
ATOM     14  O   UNL     1       9.717  -4.354  24.388  0.00  0.00    -0.367 OA
ATOM     15  H   UNL     1      10.245  -4.344  25.223  0.00  0.00    +0.212 HD
ENDBRANCH   1  14
BRANCH   1  16
ATOM     16  C   UNL     1       8.415  -2.444  25.109  0.00  0.00    +0.060 C 
BRANCH  16  17
ATOM     17  C   UNL     1       9.476  -1.620  24.383  0.00  0.00    +0.004 C 
BRANCH  17  18
ATOM     18  C   UNL     1       9.796  -0.312  25.131  0.00  0.00    +0.000 C 
BRANCH  18  19
ATOM     19  C   UNL     1      10.693   0.637  24.329  0.00  0.00    -0.000 C 
BRANCH  19  21
ATOM     20  C   UNL     1      10.036   1.542  22.083  0.00  0.00    +0.004 C 
ATOM     21  C   UNL     1       9.895   1.711  23.591  0.00  0.00    -0.003 C 
ENDBRANCH  19  21
ENDBRANCH  18  19
ENDBRANCH  17  18
ENDBRANCH  16  17
ENDBRANCH   1  16
TORSDOF 12
ENDMDL
MODEL 3
REMARK VINA RESULT:      -4.7      1.396      3.325
REMARK  Name = 
REMARK  13 active torsions:
REMARK  status: ('A' for Active; 'I' for Inactive)
REMARK    1  A    between atoms: C_1  and  C_2
REMARK    2  A    between atoms: C_2  and  C_3
REMARK    3  A    between atoms: C_3  and  C_4
REMARK    4  A    between atoms: C_4  and  C_5
REMARK    5  A    between atoms: C_5  and  C_6
REMARK    6  A    between atoms: C_6  and  C_7
REMARK    7  A    between atoms: C_7  and  O_8
REMARK    8  A    between atoms: C_7  and  P_9
REMARK    9  A    between atoms: C_7  and  P_13
REMARK   10  A    between atoms: P_9  and  O_10
REMARK   11  A    between atoms: P_9  and  O_11
REMARK   12  A    between atoms: P_13  and  O_14
REMARK   13  A    between atoms: P_13  and  O_15
REMARK                            x       y       z     vdW  Elec       q    Type
REMARK                         _______ _______ _______ _____ _____    ______ ____
ROOT
ATOM      1  C   UNL     1       7.486  -3.163  24.259  0.00  0.00    +0.267 C 
ENDROOT
BRANCH   1   2
ATOM      2  P   UNL     1       7.766  -4.588  25.373  0.00  0.00    +0.371 P 
ATOM      3  O   UNL     1       8.003  -5.794  26.316  0.00  0.00    -0.255 OA
BRANCH   2   4
ATOM      4  O   UNL     1       8.900  -5.116  24.280  0.00  0.00    -0.322 OA
ATOM      5  H   UNL     1       8.766  -6.075  24.085  0.00  0.00    +0.220 HD
ENDBRANCH   2   4
BRANCH   2   6
ATOM      6  O   UNL     1       6.483  -5.362  24.697  0.00  0.00    -0.322 OA
ATOM      7  H   UNL     1       6.173  -4.742  23.999  0.00  0.00    +0.220 HD
ENDBRANCH   2   6
ENDBRANCH   1   2
BRANCH   1   8
ATOM      8  P   UNL     1       6.071  -3.520  23.155  0.00  0.00    +0.371 P 
ATOM      9  O   UNL     1       4.874  -3.821  22.220  0.00  0.00    -0.255 OA
BRANCH   8  10
ATOM     10  O   UNL     1       7.134  -4.089  22.020  0.00  0.00    -0.322 OA
ATOM     11  H   UNL     1       6.612  -4.630  21.387  0.00  0.00    +0.220 HD
ENDBRANCH   8  10
BRANCH   8  12
ATOM     12  O   UNL     1       6.126  -1.963  22.634  0.00  0.00    -0.322 OA
ATOM     13  H   UNL     1       7.071  -1.705  22.559  0.00  0.00    +0.220 HD
ENDBRANCH   8  12
ENDBRANCH   1   8
BRANCH   1  14
ATOM     14  O   UNL     1       7.142  -2.033  25.149  0.00  0.00    -0.367 OA
ATOM     15  H   UNL     1       7.867  -2.050  25.819  0.00  0.00    +0.212 HD
ENDBRANCH   1  14
BRANCH   1  16
ATOM     16  C   UNL     1       8.742  -2.717  23.464  0.00  0.00    +0.060 C 
BRANCH  16  17
ATOM     17  C   UNL     1       9.647  -1.652  24.081  0.00  0.00    +0.004 C 
BRANCH  17  18
ATOM     18  C   UNL     1      10.350  -0.805  23.003  0.00  0.00    +0.000 C 
BRANCH  18  19
ATOM     19  C   UNL     1       9.547  -0.699  21.702  0.00  0.00    -0.000 C 
BRANCH  19  21
ATOM     20  C   UNL     1      10.006   1.742  22.064  0.00  0.00    +0.004 C 
ATOM     21  C   UNL     1       9.067   0.725  21.426  0.00  0.00    -0.003 C 
ENDBRANCH  19  21
ENDBRANCH  18  19
ENDBRANCH  17  18
ENDBRANCH  16  17
ENDBRANCH   1  16
TORSDOF 12
ENDMDL
MODEL 4
REMARK VINA RESULT:      -4.7      1.829      2.701
REMARK  Name = 
REMARK  13 active torsions:
REMARK  status: ('A' for Active; 'I' for Inactive)
REMARK    1  A    between atoms: C_1  and  C_2
REMARK    2  A    between atoms: C_2  and  C_3
REMARK    3  A    between atoms: C_3  and  C_4
REMARK    4  A    between atoms: C_4  and  C_5
REMARK    5  A    between atoms: C_5  and  C_6
REMARK    6  A    between atoms: C_6  and  C_7
REMARK    7  A    between atoms: C_7  and  O_8
REMARK    8  A    between atoms: C_7  and  P_9
REMARK    9  A    between atoms: C_7  and  P_13
REMARK   10  A    between atoms: P_9  and  O_10
REMARK   11  A    between atoms: P_9  and  O_11
REMARK   12  A    between atoms: P_13  and  O_14
REMARK   13  A    between atoms: P_13  and  O_15
REMARK                            x       y       z     vdW  Elec       q    Type
REMARK                         _______ _______ _______ _____ _____    ______ ____
ROOT
ATOM      1  C   UNL     1       8.348  -4.209  26.361  0.00  0.00    +0.267 C 
ENDROOT
BRANCH   1   2
ATOM      2  P   UNL     1       8.472  -4.959  24.696  0.00  0.00    +0.371 P 
ATOM      3  O   UNL     1       8.576  -5.595  23.288  0.00  0.00    -0.255 OA
BRANCH   2   4
ATOM      4  O   UNL     1       9.388  -6.157  25.393  0.00  0.00    -0.322 OA
ATOM      5  H   UNL     1      10.154  -6.383  24.811  0.00  0.00    +0.220 HD
ENDBRANCH   2   4
BRANCH   2   6
ATOM      6  O   UNL     1       9.722  -3.953  24.340  0.00  0.00    -0.322 OA
ATOM      7  H   UNL     1       9.944  -3.537  25.203  0.00  0.00    +0.220 HD
ENDBRANCH   2   6
ENDBRANCH   1   2
BRANCH   1   8
ATOM      8  P   UNL     1       6.802  -4.762  27.166  0.00  0.00    +0.371 P 
ATOM      9  O   UNL     1       5.493  -5.231  27.848  0.00  0.00    -0.255 OA
BRANCH   8  10
ATOM     10  O   UNL     1       7.629  -6.039  27.819  0.00  0.00    -0.322 OA
ATOM     11  H   UNL     1       6.959  -6.700  28.101  0.00  0.00    +0.220 HD
ENDBRANCH   8  10
BRANCH   8  12
ATOM     12  O   UNL     1       6.397  -5.547  25.781  0.00  0.00    -0.322 OA
ATOM     13  H   UNL     1       5.862  -4.931  25.233  0.00  0.00    +0.220 HD
ENDBRANCH   8  12
ENDBRANCH   1   8
BRANCH   1  14
ATOM     14  O   UNL     1       9.508  -4.733  27.113  0.00  0.00    -0.367 OA
ATOM     15  H   UNL     1       9.474  -5.702  26.928  0.00  0.00    +0.212 HD
ENDBRANCH   1  14
BRANCH   1  16
ATOM     16  C   UNL     1       8.488  -2.664  26.377  0.00  0.00    +0.060 C 
BRANCH  16  17
ATOM     17  C   UNL     1       7.341  -1.828  25.813  0.00  0.00    +0.004 C 
BRANCH  17  18
ATOM     18  C   UNL     1       7.852  -0.565  25.093  0.00  0.00    +0.000 C 
BRANCH  18  19
ATOM     19  C   UNL     1       8.460  -0.860  23.718  0.00  0.00    -0.000 C 
BRANCH  19  21
ATOM     20  C   UNL     1      10.378   0.231  24.914  0.00  0.00    +0.004 C 
ATOM     21  C   UNL     1       9.885  -0.327  23.584  0.00  0.00    -0.003 C 
ENDBRANCH  19  21
ENDBRANCH  18  19
ENDBRANCH  17  18
ENDBRANCH  16  17
ENDBRANCH   1  16
TORSDOF 12
ENDMDL
MODEL 5
REMARK VINA RESULT:      -4.7      4.753      6.648
REMARK  Name = 
REMARK  13 active torsions:
REMARK  status: ('A' for Active; 'I' for Inactive)
REMARK    1  A    between atoms: C_1  and  C_2
REMARK    2  A    between atoms: C_2  and  C_3
REMARK    3  A    between atoms: C_3  and  C_4
REMARK    4  A    between atoms: C_4  and  C_5
REMARK    5  A    between atoms: C_5  and  C_6
REMARK    6  A    between atoms: C_6  and  C_7
REMARK    7  A    between atoms: C_7  and  O_8
REMARK    8  A    between atoms: C_7  and  P_9
REMARK    9  A    between atoms: C_7  and  P_13
REMARK   10  A    between atoms: P_9  and  O_10
REMARK   11  A    between atoms: P_9  and  O_11
REMARK   12  A    between atoms: P_13  and  O_14
REMARK   13  A    between atoms: P_13  and  O_15
REMARK                            x       y       z     vdW  Elec       q    Type
REMARK                         _______ _______ _______ _____ _____    ______ ____
ROOT
ATOM      1  C   UNL     1       8.650   1.060  22.108  0.00  0.00    +0.267 C 
ENDROOT
BRANCH   1   2
ATOM      2  P   UNL     1       9.509   2.430  22.963  0.00  0.00    +0.371 P 
ATOM      3  O   UNL     1      10.236   3.590  23.688  0.00  0.00    -0.255 OA
BRANCH   2   4
ATOM      4  O   UNL     1       8.379   3.448  22.295  0.00  0.00    -0.322 OA
ATOM      5  H   UNL     1       8.709   4.379  22.307  0.00  0.00    +0.220 HD
ENDBRANCH   2   4
BRANCH   2   6
ATOM      6  O   UNL     1      10.591   2.518  21.729  0.00  0.00    -0.322 OA
ATOM      7  H   UNL     1      10.092   2.966  21.009  0.00  0.00    +0.220 HD
ENDBRANCH   2   6
ENDBRANCH   1   2
BRANCH   1   8
ATOM      8  P   UNL     1       7.308   0.421  23.174  0.00  0.00    +0.371 P 
ATOM      9  O   UNL     1       6.171  -0.119  24.076  0.00  0.00    -0.255 OA
BRANCH   8  10
ATOM     10  O   UNL     1       6.252   1.446  22.414  0.00  0.00    -0.322 OA
ATOM     11  H   UNL     1       6.105   1.087  21.511  0.00  0.00    +0.220 HD
ENDBRANCH   8  10
BRANCH   8  12
ATOM     12  O   UNL     1       7.751   1.502  24.328  0.00  0.00    -0.322 OA
ATOM     13  H   UNL     1       7.586   2.404  23.973  0.00  0.00    +0.220 HD
ENDBRANCH   8  12
ENDBRANCH   1   8
BRANCH   1  14
ATOM     14  O   UNL     1       8.066   1.663  20.891  0.00  0.00    -0.367 OA
ATOM     15  H   UNL     1       8.460   1.122  20.165  0.00  0.00    +0.212 HD
ENDBRANCH   1  14
BRANCH   1  16
ATOM     16  C   UNL     1       9.588  -0.075  21.617  0.00  0.00    +0.060 C 
BRANCH  16  17
ATOM     17  C   UNL     1       9.251  -1.512  22.010  0.00  0.00    +0.004 C 
BRANCH  17  18
ATOM     18  C   UNL     1      10.217  -2.054  23.082  0.00  0.00    +0.000 C 
BRANCH  18  19
ATOM     19  C   UNL     1       9.507  -2.488  24.368  0.00  0.00    -0.000 C 
BRANCH  19  21
ATOM     20  C   UNL     1       9.330  -4.879  25.110  0.00  0.00    +0.004 C 
ATOM     21  C   UNL     1       8.747  -3.803  24.202  0.00  0.00    -0.003 C 
ENDBRANCH  19  21
ENDBRANCH  18  19
ENDBRANCH  17  18
ENDBRANCH  16  17
ENDBRANCH   1  16
TORSDOF 12
ENDMDL
MODEL 6
REMARK VINA RESULT:      -4.6      5.464      7.096
REMARK  Name = 
REMARK  13 active torsions:
REMARK  status: ('A' for Active; 'I' for Inactive)
REMARK    1  A    between atoms: C_1  and  C_2
REMARK    2  A    between atoms: C_2  and  C_3
REMARK    3  A    between atoms: C_3  and  C_4
REMARK    4  A    between atoms: C_4  and  C_5
REMARK    5  A    between atoms: C_5  and  C_6
REMARK    6  A    between atoms: C_6  and  C_7
REMARK    7  A    between atoms: C_7  and  O_8
REMARK    8  A    between atoms: C_7  and  P_9
REMARK    9  A    between atoms: C_7  and  P_13
REMARK   10  A    between atoms: P_9  and  O_10
REMARK   11  A    between atoms: P_9  and  O_11
REMARK   12  A    between atoms: P_13  and  O_14
REMARK   13  A    between atoms: P_13  and  O_15
REMARK                            x       y       z     vdW  Elec       q    Type
REMARK                         _______ _______ _______ _____ _____    ______ ____
ROOT
ATOM      1  C   UNL     1       9.548   2.185  22.888  0.00  0.00    +0.267 C 
ENDROOT
BRANCH   1   2
ATOM      2  P   UNL     1       7.746   2.313  22.592  0.00  0.00    +0.371 P 
ATOM      3  O   UNL     1       6.222   2.420  22.341  0.00  0.00    -0.255 OA
BRANCH   2   4
ATOM      4  O   UNL     1       8.036   3.832  21.986  0.00  0.00    -0.322 OA
ATOM      5  H   UNL     1       8.767   4.266  22.489  0.00  0.00    +0.220 HD
ENDBRANCH   2   4
BRANCH   2   6
ATOM      6  O   UNL     1       7.526   2.774  24.154  0.00  0.00    -0.322 OA
ATOM      7  H   UNL     1       7.211   3.704  24.084  0.00  0.00    +0.220 HD
ENDBRANCH   2   6
ENDBRANCH   1   2
BRANCH   1   8
ATOM      8  P   UNL     1       9.930   0.561  23.638  0.00  0.00    +0.371 P 
ATOM      9  O   UNL     1      10.252  -0.814  24.273  0.00  0.00    -0.255 OA
BRANCH   8  10
ATOM     10  O   UNL     1       8.328   0.157  23.517  0.00  0.00    -0.322 OA
ATOM     11  H   UNL     1       7.948   0.709  22.798  0.00  0.00    +0.220 HD
ENDBRANCH   8  10
BRANCH   8  12
ATOM     12  O   UNL     1       9.792   1.248  25.124  0.00  0.00    -0.322 OA
ATOM     13  H   UNL     1       9.718   0.523  25.783  0.00  0.00    +0.220 HD
ENDBRANCH   8  12
ENDBRANCH   1   8
BRANCH   1  14
ATOM     14  O   UNL     1      10.171   2.267  21.550  0.00  0.00    -0.367 OA
ATOM     15  H   UNL     1      10.371   3.229  21.457  0.00  0.00    +0.212 HD
ENDBRANCH   1  14
BRANCH   1  16
ATOM     16  C   UNL     1      10.144   3.357  23.712  0.00  0.00    +0.060 C 
BRANCH  16  17
ATOM     17  C   UNL     1      11.515   3.898  23.311  0.00  0.00    +0.004 C 
BRANCH  17  18
ATOM     18  C   UNL     1      11.620   5.418  23.539  0.00  0.00    +0.000 C 
BRANCH  18  19
ATOM     19  C   UNL     1      10.259   6.091  23.748  0.00  0.00    -0.000 C 
BRANCH  19  21
ATOM     20  C   UNL     1       9.007   6.253  25.916  0.00  0.00    +0.004 C 
ATOM     21  C   UNL     1      10.163   6.808  25.093  0.00  0.00    -0.003 C 
ENDBRANCH  19  21
ENDBRANCH  18  19
ENDBRANCH  17  18
ENDBRANCH  16  17
ENDBRANCH   1  16
TORSDOF 12
ENDMDL
MODEL 7
REMARK VINA RESULT:      -4.6      2.154      3.624
REMARK  Name = 
REMARK  13 active torsions:
REMARK  status: ('A' for Active; 'I' for Inactive)
REMARK    1  A    between atoms: C_1  and  C_2
REMARK    2  A    between atoms: C_2  and  C_3
REMARK    3  A    between atoms: C_3  and  C_4
REMARK    4  A    between atoms: C_4  and  C_5
REMARK    5  A    between atoms: C_5  and  C_6
REMARK    6  A    between atoms: C_6  and  C_7
REMARK    7  A    between atoms: C_7  and  O_8
REMARK    8  A    between atoms: C_7  and  P_9
REMARK    9  A    between atoms: C_7  and  P_13
REMARK   10  A    between atoms: P_9  and  O_10
REMARK   11  A    between atoms: P_9  and  O_11
REMARK   12  A    between atoms: P_13  and  O_14
REMARK   13  A    between atoms: P_13  and  O_15
REMARK                            x       y       z     vdW  Elec       q    Type
REMARK                         _______ _______ _______ _____ _____    ______ ____
ROOT
ATOM      1  C   UNL     1       8.371  -1.944  23.929  0.00  0.00    +0.267 C 
ENDROOT
BRANCH   1   2
ATOM      2  P   UNL     1       8.301  -3.623  24.653  0.00  0.00    +0.371 P 
ATOM      3  O   UNL     1       8.242  -5.044  25.267  0.00  0.00    -0.255 OA
BRANCH   2   4
ATOM      4  O   UNL     1       9.916  -3.759  24.289  0.00  0.00    -0.322 OA
ATOM      5  H   UNL     1      10.059  -3.627  23.320  0.00  0.00    +0.220 HD
ENDBRANCH   2   4
BRANCH   2   6
ATOM      6  O   UNL     1       7.738  -4.211  23.225  0.00  0.00    -0.322 OA
ATOM      7  H   UNL     1       8.007  -5.158  23.237  0.00  0.00    +0.220 HD
ENDBRANCH   2   6
ENDBRANCH   1   2
BRANCH   1   8
ATOM      8  P   UNL     1       6.823  -1.048  24.315  0.00  0.00    +0.371 P 
ATOM      9  O   UNL     1       5.512  -0.291  24.640  0.00  0.00    -0.255 OA
BRANCH   8  10
ATOM     10  O   UNL     1       6.266  -2.399  25.094  0.00  0.00    -0.322 OA
ATOM     11  H   UNL     1       5.607  -2.821  24.498  0.00  0.00    +0.220 HD
ENDBRANCH   8  10
BRANCH   8  12
ATOM     12  O   UNL     1       6.241  -1.483  22.841  0.00  0.00    -0.322 OA
ATOM     13  H   UNL     1       6.763  -2.254  22.528  0.00  0.00    +0.220 HD
ENDBRANCH   8  12
ENDBRANCH   1   8
BRANCH   1  14
ATOM     14  O   UNL     1       9.505  -1.275  24.601  0.00  0.00    -0.367 OA
ATOM     15  H   UNL     1       9.160  -1.115  25.512  0.00  0.00    +0.212 HD
ENDBRANCH   1  14
BRANCH   1  16
ATOM     16  C   UNL     1       8.693  -1.915  22.412  0.00  0.00    +0.060 C 
BRANCH  16  17
ATOM     17  C   UNL     1       9.852  -1.042  21.935  0.00  0.00    +0.004 C 
BRANCH  17  18
ATOM     18  C   UNL     1       9.357   0.277  21.311  0.00  0.00    +0.000 C 
BRANCH  18  19
ATOM     19  C   UNL     1       9.901   1.520  22.021  0.00  0.00    -0.000 C 
BRANCH  19  21
ATOM     20  C   UNL     1       7.482   2.168  21.871  0.00  0.00    +0.004 C 
ATOM     21  C   UNL     1       8.792   2.384  22.619  0.00  0.00    -0.003 C 
ENDBRANCH  19  21
ENDBRANCH  18  19
ENDBRANCH  17  18
ENDBRANCH  16  17
ENDBRANCH   1  16
TORSDOF 12
ENDMDL
MODEL 8
REMARK VINA RESULT:      -4.6      2.490      3.400
REMARK  Name = 
REMARK  13 active torsions:
REMARK  status: ('A' for Active; 'I' for Inactive)
REMARK    1  A    between atoms: C_1  and  C_2
REMARK    2  A    between atoms: C_2  and  C_3
REMARK    3  A    between atoms: C_3  and  C_4
REMARK    4  A    between atoms: C_4  and  C_5
REMARK    5  A    between atoms: C_5  and  C_6
REMARK    6  A    between atoms: C_6  and  C_7
REMARK    7  A    between atoms: C_7  and  O_8
REMARK    8  A    between atoms: C_7  and  P_9
REMARK    9  A    between atoms: C_7  and  P_13
REMARK   10  A    between atoms: P_9  and  O_10
REMARK   11  A    between atoms: P_9  and  O_11
REMARK   12  A    between atoms: P_13  and  O_14
REMARK   13  A    between atoms: P_13  and  O_15
REMARK                            x       y       z     vdW  Elec       q    Type
REMARK                         _______ _______ _______ _____ _____    ______ ____
ROOT
ATOM      1  C   UNL     1       9.241  -1.973  23.388  0.00  0.00    +0.267 C 
ENDROOT
BRANCH   1   2
ATOM      2  P   UNL     1       7.831  -2.816  22.583  0.00  0.00    +0.371 P 
ATOM      3  O   UNL     1       6.637  -3.529  21.901  0.00  0.00    -0.255 OA
BRANCH   2   4
ATOM      4  O   UNL     1       6.841  -1.975  23.618  0.00  0.00    -0.322 OA
ATOM      5  H   UNL     1       6.274  -1.344  23.111  0.00  0.00    +0.220 HD
ENDBRANCH   2   4
BRANCH   2   6
ATOM      6  O   UNL     1       8.057  -4.119  23.560  0.00  0.00    -0.322 OA
ATOM      7  H   UNL     1       7.665  -3.841  24.418  0.00  0.00    +0.220 HD
ENDBRANCH   2   6
ENDBRANCH   1   2
BRANCH   1   8
ATOM      8  P   UNL     1       8.628  -0.950  24.776  0.00  0.00    +0.371 P 
ATOM      9  O   UNL     1       8.110  -0.084  25.950  0.00  0.00    -0.255 OA
BRANCH   8  10
ATOM     10  O   UNL     1      10.168  -0.387  25.007  0.00  0.00    -0.322 OA
ATOM     11  H   UNL     1      10.618  -1.025  25.605  0.00  0.00    +0.220 HD
ENDBRANCH   8  10
BRANCH   8  12
ATOM     12  O   UNL     1       8.799  -2.247  25.768  0.00  0.00    -0.322 OA
ATOM     13  H   UNL     1       9.007  -3.028  25.208  0.00  0.00    +0.220 HD
ENDBRANCH   8  12
ENDBRANCH   1   8
BRANCH   1  14
ATOM     14  O   UNL     1      10.095  -3.057  23.919  0.00  0.00    -0.367 OA
ATOM     15  H   UNL     1       9.829  -3.836  23.372  0.00  0.00    +0.212 HD
ENDBRANCH   1  14
BRANCH   1  16
ATOM     16  C   UNL     1      10.136  -1.157  22.419  0.00  0.00    +0.060 C 
BRANCH  16  17
ATOM     17  C   UNL     1       9.458  -0.191  21.449  0.00  0.00    +0.004 C 
BRANCH  17  18
ATOM     18  C   UNL     1       9.754   1.279  21.802  0.00  0.00    +0.000 C 
BRANCH  18  19
ATOM     19  C   UNL     1       8.494   2.146  21.877  0.00  0.00    -0.000 C 
BRANCH  19  21
ATOM     20  C   UNL     1       9.488   2.940  24.040  0.00  0.00    +0.004 C 
ATOM     21  C   UNL     1       8.196   2.621  23.299  0.00  0.00    -0.003 C 
ENDBRANCH  19  21
ENDBRANCH  18  19
ENDBRANCH  17  18
ENDBRANCH  16  17
ENDBRANCH   1  16
TORSDOF 12
ENDMDL
MODEL 9
REMARK VINA RESULT:      -4.5      5.182      6.969
REMARK  Name = 
REMARK  13 active torsions:
REMARK  status: ('A' for Active; 'I' for Inactive)
REMARK    1  A    between atoms: C_1  and  C_2
REMARK    2  A    between atoms: C_2  and  C_3
REMARK    3  A    between atoms: C_3  and  C_4
REMARK    4  A    between atoms: C_4  and  C_5
REMARK    5  A    between atoms: C_5  and  C_6
REMARK    6  A    between atoms: C_6  and  C_7
REMARK    7  A    between atoms: C_7  and  O_8
REMARK    8  A    between atoms: C_7  and  P_9
REMARK    9  A    between atoms: C_7  and  P_13
REMARK   10  A    between atoms: P_9  and  O_10
REMARK   11  A    between atoms: P_9  and  O_11
REMARK   12  A    between atoms: P_13  and  O_14
REMARK   13  A    between atoms: P_13  and  O_15
REMARK                            x       y       z     vdW  Elec       q    Type
REMARK                         _______ _______ _______ _____ _____    ______ ____
ROOT
ATOM      1  C   UNL     1       9.481   1.403  22.374  0.00  0.00    +0.267 C 
ENDROOT
BRANCH   1   2
ATOM      2  P   UNL     1      10.464   0.970  23.856  0.00  0.00    +0.371 P 
ATOM      3  O   UNL     1      11.295   0.602  25.109  0.00  0.00    -0.255 OA
BRANCH   2   4
ATOM      4  O   UNL     1       9.139   1.400  24.760  0.00  0.00    -0.322 OA
ATOM      5  H   UNL     1       8.317   1.019  24.364  0.00  0.00    +0.220 HD
ENDBRANCH   2   4
BRANCH   2   6
ATOM      6  O   UNL     1      11.159   2.458  23.825  0.00  0.00    -0.322 OA
ATOM      7  H   UNL     1      12.111   2.278  24.000  0.00  0.00    +0.220 HD
ENDBRANCH   2   6
ENDBRANCH   1   2
BRANCH   1   8
ATOM      8  P   UNL     1       7.928   2.221  22.890  0.00  0.00    +0.371 P 
ATOM      9  O   UNL     1       6.614   2.914  23.325  0.00  0.00    -0.255 OA
BRANCH   8  10
ATOM     10  O   UNL     1       7.381   2.108  21.331  0.00  0.00    -0.322 OA
ATOM     11  H   UNL     1       8.145   2.303  20.745  0.00  0.00    +0.220 HD
ENDBRANCH   8  10
BRANCH   8  12
ATOM     12  O   UNL     1       8.660   3.676  22.679  0.00  0.00    -0.322 OA
ATOM     13  H   UNL     1       9.326   3.783  23.395  0.00  0.00    +0.220 HD
ENDBRANCH   8  12
ENDBRANCH   1   8
BRANCH   1  14
ATOM     14  O   UNL     1      10.314   2.363  21.619  0.00  0.00    -0.367 OA
ATOM     15  H   UNL     1      11.072   1.808  21.315  0.00  0.00    +0.212 HD
ENDBRANCH   1  14
BRANCH   1  16
ATOM     16  C   UNL     1       9.217   0.214  21.413  0.00  0.00    +0.060 C 
BRANCH  16  17
ATOM     17  C   UNL     1       9.642  -1.184  21.857  0.00  0.00    +0.004 C 
BRANCH  17  18
ATOM     18  C   UNL     1       8.427  -2.080  22.166  0.00  0.00    +0.000 C 
BRANCH  18  19
ATOM     19  C   UNL     1       7.969  -1.991  23.625  0.00  0.00    -0.000 C 
BRANCH  19  21
ATOM     20  C   UNL     1       8.025  -4.490  23.851  0.00  0.00    +0.004 C 
ATOM     21  C   UNL     1       7.195  -3.231  24.072  0.00  0.00    -0.003 C 
ENDBRANCH  19  21
ENDBRANCH  18  19
ENDBRANCH  17  18
ENDBRANCH  16  17
ENDBRANCH   1  16
TORSDOF 12
ENDMDL
