MODEL 1
REMARK VINA RESULT:      -5.8      0.000      0.000
REMARK  Name = 
REMARK  14 active torsions:
REMARK  status: ('A' for Active; 'I' for Inactive)
REMARK    1  A    between atoms: O_1  and  C_2
REMARK    2  A    between atoms: C_4  and  O_6
REMARK    3  A    between atoms: C_7  and  O_9
REMARK    4  A    between atoms: O_9  and  P_10
REMARK    5  A    between atoms: P_10  and  O_11
REMARK    6  A    between atoms: P_10  and  O_13
REMARK    7  A    between atoms: O_13  and  P_14
REMARK    8  A    between atoms: P_14  and  O_15
REMARK    9  A    between atoms: P_14  and  O_16
REMARK   10  A    between atoms: C_19  and  C_21
REMARK   11  A    between atoms: C_21  and  O_22
REMARK   12  A    between atoms: O_22  and  P_23
REMARK   13  A    between atoms: P_23  and  O_24
REMARK   14  A    between atoms: P_23  and  O_25
REMARK                            x       y       z     vdW  Elec       q    Type
REMARK                         _______ _______ _______ _____ _____    ______ ____
ROOT
ATOM      1  C   UNL     1       5.189  -6.366  27.769  0.00  0.00    +0.179 C 
ATOM      2  C   UNL     1       4.947  -6.779  26.321  0.00  0.00    +0.179 C 
ATOM      3  O   UNL     1       5.698  -5.893  25.464  0.00  0.00    -0.340 OA
ATOM      4  C   UNL     1       6.447  -4.962  26.254  0.00  0.00    +0.293 C 
ATOM      5  C   UNL     1       6.448  -5.515  27.702  0.00  0.00    +0.202 C 
ENDROOT
BRANCH   1   6
ATOM      6  O   UNL     1       5.326  -7.525  28.588  0.00  0.00    -0.386 OA
ATOM      7  H   UNL     1       4.680  -8.186  28.273  0.00  0.00    +0.210 HD
ENDBRANCH   1   6
BRANCH   5   8
ATOM      8  O   UNL     1       7.584  -6.321  28.033  0.00  0.00    -0.384 OA
ATOM      9  H   UNL     1       8.179  -6.329  27.262  0.00  0.00    +0.210 HD
ENDBRANCH   5   8
BRANCH   2  10
ATOM     10  C   UNL     1       3.453  -6.705  25.997  0.00  0.00    +0.206 C 
BRANCH  10  11
ATOM     11  O   UNL     1       3.255  -5.964  24.807  0.00  0.00    -0.284 OA
BRANCH  11  12
ATOM     12  P   UNL     1       2.544  -6.715  23.598  0.00  0.00    +0.472 P 
ATOM     13  O   UNL     1       1.097  -6.403  23.383  0.00  0.00    -0.228 OA
BRANCH  12  14
ATOM     14  O   UNL     1       2.891  -8.241  23.886  0.00  0.00    -0.303 OA
ATOM     15  H   UNL     1       2.147  -8.817  23.635  0.00  0.00    +0.222 HD
ENDBRANCH  12  14
BRANCH  12  16
ATOM     16  O   UNL     1       3.474  -6.336  22.359  0.00  0.00    -0.303 OA
ATOM     17  H   UNL     1       4.415  -6.437  22.586  0.00  0.00    +0.222 HD
ENDBRANCH  12  16
ENDBRANCH  11  12
ENDBRANCH  10  11
ENDBRANCH   2  10
BRANCH   4  18
ATOM     18  O   UNL     1       7.769  -4.807  25.785  0.00  0.00    -0.254 OA
BRANCH  18  19
ATOM     19  P   UNL     1       8.143  -4.216  24.341  0.00  0.00    +0.486 P 
ATOM     20  O   UNL     1       7.538  -2.878  24.077  0.00  0.00    -0.227 OA
BRANCH  19  21
ATOM     21  O   UNL     1       9.742  -4.137  24.364  0.00  0.00    -0.302 OA
ATOM     22  H   UNL     1      10.087  -4.848  24.942  0.00  0.00    +0.222 HD
ENDBRANCH  19  21
BRANCH  19  23
ATOM     23  O   UNL     1       7.806  -5.356  23.285  0.00  0.00    -0.186 OA
BRANCH  23  24
ATOM     24  P   UNL     1       6.774  -5.170  21.909  0.00  0.00    +0.481 P 
ATOM     25  O   UNL     1       5.850  -5.004  20.677  0.00  0.00    -0.227 OA
BRANCH  24  26
ATOM     26  O   UNL     1       5.660  -4.668  22.995  0.00  0.00    -0.302 OA
ATOM     27  H   UNL     1       6.072  -3.969  23.534  0.00  0.00    +0.222 HD
ENDBRANCH  24  26
BRANCH  24  28
ATOM     28  O   UNL     1       6.428  -6.762  22.134  0.00  0.00    -0.302 OA
ATOM     29  H   UNL     1       6.120  -7.176  21.310  0.00  0.00    +0.222 HD
ENDBRANCH  24  28
ENDBRANCH  23  24
ENDBRANCH  19  23
ENDBRANCH  18  19
ENDBRANCH   4  18
TORSDOF 14
ENDMDL
MODEL 2
REMARK VINA RESULT:      -5.7      4.969      8.362
REMARK  Name = 
REMARK  14 active torsions:
REMARK  status: ('A' for Active; 'I' for Inactive)
REMARK    1  A    between atoms: O_1  and  C_2
REMARK    2  A    between atoms: C_4  and  O_6
REMARK    3  A    between atoms: C_7  and  O_9
REMARK    4  A    between atoms: O_9  and  P_10
REMARK    5  A    between atoms: P_10  and  O_11
REMARK    6  A    between atoms: P_10  and  O_13
REMARK    7  A    between atoms: O_13  and  P_14
REMARK    8  A    between atoms: P_14  and  O_15
REMARK    9  A    between atoms: P_14  and  O_16
REMARK   10  A    between atoms: C_19  and  C_21
REMARK   11  A    between atoms: C_21  and  O_22
REMARK   12  A    between atoms: O_22  and  P_23
REMARK   13  A    between atoms: P_23  and  O_24
REMARK   14  A    between atoms: P_23  and  O_25
REMARK                            x       y       z     vdW  Elec       q    Type
REMARK                         _______ _______ _______ _____ _____    ______ ____
ROOT
ATOM      1  C   UNL     1       9.158   0.272  22.539  0.00  0.00    +0.179 C 
ATOM      2  C   UNL     1       9.819   0.432  23.904  0.00  0.00    +0.179 C 
ATOM      3  O   UNL     1       9.723  -0.826  24.604  0.00  0.00    -0.340 OA
ATOM      4  C   UNL     1       9.089  -1.806  23.774  0.00  0.00    +0.293 C 
ATOM      5  C   UNL     1       9.099  -1.233  22.334  0.00  0.00    +0.202 C 
ENDROOT
BRANCH   1   6
ATOM      6  O   UNL     1       9.921   0.955  21.547  0.00  0.00    -0.386 OA
ATOM      7  H   UNL     1      10.648   1.422  22.004  0.00  0.00    +0.210 HD
ENDBRANCH   1   6
BRANCH   5   8
ATOM      8  O   UNL     1      10.213  -1.647  21.533  0.00  0.00    -0.384 OA
ATOM      9  H   UNL     1       9.895  -2.321  20.906  0.00  0.00    +0.210 HD
ENDBRANCH   5   8
BRANCH   2  10
ATOM     10  C   UNL     1       9.126   1.544  24.696  0.00  0.00    +0.206 C 
BRANCH  10  11
ATOM     11  O   UNL     1       8.459   2.422  23.807  0.00  0.00    -0.284 OA
BRANCH  11  12
ATOM     12  P   UNL     1       9.022   3.905  23.699  0.00  0.00    +0.472 P 
ATOM     13  O   UNL     1       9.035   4.704  24.965  0.00  0.00    -0.228 OA
BRANCH  12  14
ATOM     14  O   UNL     1       8.167   4.514  22.503  0.00  0.00    -0.303 OA
ATOM     15  H   UNL     1       7.229   4.589  22.752  0.00  0.00    +0.222 HD
ENDBRANCH  12  14
BRANCH  12  16
ATOM     16  O   UNL     1      10.469   3.683  23.066  0.00  0.00    -0.303 OA
ATOM     17  H   UNL     1      10.525   2.817  22.625  0.00  0.00    +0.222 HD
ENDBRANCH  12  16
ENDBRANCH  11  12
ENDBRANCH  10  11
ENDBRANCH   2  10
BRANCH   4  18
ATOM     18  O   UNL     1       9.752  -3.051  23.814  0.00  0.00    -0.254 OA
BRANCH  18  19
ATOM     19  P   UNL     1       9.199  -4.335  24.600  0.00  0.00    +0.486 P 
ATOM     20  O   UNL     1       8.329  -5.210  23.761  0.00  0.00    -0.227 OA
BRANCH  19  21
ATOM     21  O   UNL     1      10.527  -5.103  25.058  0.00  0.00    -0.302 OA
ATOM     22  H   UNL     1      10.292  -5.762  25.744  0.00  0.00    +0.222 HD
ENDBRANCH  19  21
BRANCH  19  23
ATOM     23  O   UNL     1       8.553  -3.795  25.950  0.00  0.00    -0.186 OA
BRANCH  23  24
ATOM     24  P   UNL     1       7.546  -4.715  27.014  0.00  0.00    +0.481 P 
ATOM     25  O   UNL     1       6.644  -5.538  27.966  0.00  0.00    -0.227 OA
BRANCH  24  26
ATOM     26  O   UNL     1       8.422  -5.996  26.500  0.00  0.00    -0.302 OA
ATOM     27  H   UNL     1       8.638  -5.846  25.562  0.00  0.00    +0.222 HD
ENDBRANCH  24  26
BRANCH  24  28
ATOM     28  O   UNL     1       6.509  -4.783  25.740  0.00  0.00    -0.302 OA
ATOM     29  H   UNL     1       6.461  -5.680  25.369  0.00  0.00    +0.222 HD
ENDBRANCH  24  28
ENDBRANCH  23  24
ENDBRANCH  19  23
ENDBRANCH  18  19
ENDBRANCH   4  18
TORSDOF 14
ENDMDL
MODEL 3
REMARK VINA RESULT:      -5.7      3.270      5.799
REMARK  Name = 
REMARK  14 active torsions:
REMARK  status: ('A' for Active; 'I' for Inactive)
REMARK    1  A    between atoms: O_1  and  C_2
REMARK    2  A    between atoms: C_4  and  O_6
REMARK    3  A    between atoms: C_7  and  O_9
REMARK    4  A    between atoms: O_9  and  P_10
REMARK    5  A    between atoms: P_10  and  O_11
REMARK    6  A    between atoms: P_10  and  O_13
REMARK    7  A    between atoms: O_13  and  P_14
REMARK    8  A    between atoms: P_14  and  O_15
REMARK    9  A    between atoms: P_14  and  O_16
REMARK   10  A    between atoms: C_19  and  C_21
REMARK   11  A    between atoms: C_21  and  O_22
REMARK   12  A    between atoms: O_22  and  P_23
REMARK   13  A    between atoms: P_23  and  O_24
REMARK   14  A    between atoms: P_23  and  O_25
REMARK                            x       y       z     vdW  Elec       q    Type
REMARK                         _______ _______ _______ _____ _____    ______ ____
ROOT
ATOM      1  C   UNL     1       5.420  -4.933  23.146  0.00  0.00    +0.179 C 
ATOM      2  C   UNL     1       5.454  -3.839  24.208  0.00  0.00    +0.179 C 
ATOM      3  O   UNL     1       6.688  -3.105  24.063  0.00  0.00    -0.340 OA
ATOM      4  C   UNL     1       7.437  -3.614  22.954  0.00  0.00    +0.293 C 
ATOM      5  C   UNL     1       6.461  -4.491  22.130  0.00  0.00    +0.202 C 
ENDROOT
BRANCH   1   6
ATOM      6  O   UNL     1       4.105  -5.045  22.606  0.00  0.00    -0.386 OA
ATOM      7  H   UNL     1       3.894  -4.198  22.168  0.00  0.00    +0.210 HD
ENDBRANCH   1   6
BRANCH   5   8
ATOM      8  O   UNL     1       5.811  -3.809  21.051  0.00  0.00    -0.384 OA
ATOM      9  H   UNL     1       6.139  -2.892  21.037  0.00  0.00    +0.210 HD
ENDBRANCH   5   8
BRANCH   2  10
ATOM     10  C   UNL     1       5.355  -4.459  25.604  0.00  0.00    +0.206 C 
BRANCH  10  11
ATOM     11  O   UNL     1       6.303  -5.502  25.734  0.00  0.00    -0.284 OA
BRANCH  11  12
ATOM     12  P   UNL     1       7.428  -5.321  26.844  0.00  0.00    +0.472 P 
ATOM     13  O   UNL     1       7.157  -5.953  28.173  0.00  0.00    -0.228 OA
BRANCH  12  14
ATOM     14  O   UNL     1       7.652  -3.746  26.857  0.00  0.00    -0.303 OA
ATOM     15  H   UNL     1       6.847  -3.285  27.157  0.00  0.00    +0.222 HD
ENDBRANCH  12  14
BRANCH  12  16
ATOM     16  O   UNL     1       8.729  -5.889  26.116  0.00  0.00    -0.303 OA
ATOM     17  H   UNL     1       9.350  -6.269  26.762  0.00  0.00    +0.222 HD
ENDBRANCH  12  16
ENDBRANCH  11  12
ENDBRANCH  10  11
ENDBRANCH   2  10
BRANCH   4  18
ATOM     18  O   UNL     1       7.971  -2.583  22.152  0.00  0.00    -0.254 OA
BRANCH  18  19
ATOM     19  P   UNL     1       9.140  -1.592  22.628  0.00  0.00    +0.486 P 
ATOM     20  O   UNL     1       9.871  -2.079  23.833  0.00  0.00    -0.227 OA
BRANCH  19  21
ATOM     21  O   UNL     1      10.108  -1.506  21.356  0.00  0.00    -0.302 OA
ATOM     22  H   UNL     1      10.702  -2.284  21.355  0.00  0.00    +0.222 HD
ENDBRANCH  19  21
BRANCH  19  23
ATOM     23  O   UNL     1       8.488  -0.146  22.743  0.00  0.00    -0.186 OA
BRANCH  23  24
ATOM     24  P   UNL     1       9.361   1.329  22.978  0.00  0.00    +0.481 P 
ATOM     25  O   UNL     1      10.143   2.649  23.190  0.00  0.00    -0.227 OA
BRANCH  24  26
ATOM     26  O   UNL     1       9.541   1.311  21.354  0.00  0.00    -0.302 OA
ATOM     27  H   UNL     1      10.468   1.538  21.159  0.00  0.00    +0.222 HD
ENDBRANCH  24  26
BRANCH  24  28
ATOM     28  O   UNL     1      10.658   0.351  23.236  0.00  0.00    -0.302 OA
ATOM     29  H   UNL     1      11.302   0.421  22.512  0.00  0.00    +0.222 HD
ENDBRANCH  24  28
ENDBRANCH  23  24
ENDBRANCH  19  23
ENDBRANCH  18  19
ENDBRANCH   4  18
TORSDOF 14
ENDMDL
MODEL 4
REMARK VINA RESULT:      -5.6      4.349      7.655
REMARK  Name = 
REMARK  14 active torsions:
REMARK  status: ('A' for Active; 'I' for Inactive)
REMARK    1  A    between atoms: O_1  and  C_2
REMARK    2  A    between atoms: C_4  and  O_6
REMARK    3  A    between atoms: C_7  and  O_9
REMARK    4  A    between atoms: O_9  and  P_10
REMARK    5  A    between atoms: P_10  and  O_11
REMARK    6  A    between atoms: P_10  and  O_13
REMARK    7  A    between atoms: O_13  and  P_14
REMARK    8  A    between atoms: P_14  and  O_15
REMARK    9  A    between atoms: P_14  and  O_16
REMARK   10  A    between atoms: C_19  and  C_21
REMARK   11  A    between atoms: C_21  and  O_22
REMARK   12  A    between atoms: O_22  and  P_23
REMARK   13  A    between atoms: P_23  and  O_24
REMARK   14  A    between atoms: P_23  and  O_25
REMARK                            x       y       z     vdW  Elec       q    Type
REMARK                         _______ _______ _______ _____ _____    ______ ____
ROOT
ATOM      1  C   UNL     1       7.840  -0.338  23.204  0.00  0.00    +0.179 C 
ATOM      2  C   UNL     1       8.859  -0.559  22.091  0.00  0.00    +0.179 C 
ATOM      3  O   UNL     1       9.062  -1.980  21.939  0.00  0.00    -0.340 OA
ATOM      4  C   UNL     1       8.214  -2.699  22.842  0.00  0.00    +0.293 C 
ATOM      5  C   UNL     1       7.155  -1.688  23.349  0.00  0.00    +0.202 C 
ENDROOT
BRANCH   1   6
ATOM      6  O   UNL     1       6.951   0.719  22.846  0.00  0.00    -0.386 OA
ATOM      7  H   UNL     1       7.482   1.418  22.418  0.00  0.00    +0.210 HD
ENDBRANCH   1   6
BRANCH   5   8
ATOM      8  O   UNL     1       5.931  -1.681  22.606  0.00  0.00    -0.384 OA
ATOM      9  H   UNL     1       6.117  -2.044  21.721  0.00  0.00    +0.210 HD
ENDBRANCH   5   8
BRANCH   2  10
ATOM     10  C   UNL     1      10.175   0.141  22.438  0.00  0.00    +0.206 C 
BRANCH  10  11
ATOM     11  O   UNL     1      10.038   1.538  22.255  0.00  0.00    -0.284 OA
BRANCH  11  12
ATOM     12  P   UNL     1      10.257   2.459  23.533  0.00  0.00    +0.472 P 
ATOM     13  O   UNL     1      11.287   3.536  23.406  0.00  0.00    -0.228 OA
BRANCH  12  14
ATOM     14  O   UNL     1      10.505   1.393  24.688  0.00  0.00    -0.303 OA
ATOM     15  H   UNL     1      11.252   1.663  25.252  0.00  0.00    +0.222 HD
ENDBRANCH  12  14
BRANCH  12  16
ATOM     16  O   UNL     1       8.787   3.006  23.822  0.00  0.00    -0.303 OA
ATOM     17  H   UNL     1       8.246   2.330  24.265  0.00  0.00    +0.222 HD
ENDBRANCH  12  16
ENDBRANCH  11  12
ENDBRANCH  10  11
ENDBRANCH   2  10
BRANCH   4  18
ATOM     18  O   UNL     1       7.587  -3.801  22.222  0.00  0.00    -0.254 OA
BRANCH  18  19
ATOM     19  P   UNL     1       7.333  -5.210  22.946  0.00  0.00    +0.486 P 
ATOM     20  O   UNL     1       7.243  -6.354  21.993  0.00  0.00    -0.227 OA
BRANCH  19  21
ATOM     21  O   UNL     1       8.588  -5.367  23.927  0.00  0.00    -0.302 OA
ATOM     22  H   UNL     1       9.137  -6.119  23.622  0.00  0.00    +0.222 HD
ENDBRANCH  19  21
BRANCH  19  23
ATOM     23  O   UNL     1       6.085  -5.004  23.911  0.00  0.00    -0.186 OA
BRANCH  23  24
ATOM     24  P   UNL     1       4.426  -5.045  23.421  0.00  0.00    +0.481 P 
ATOM     25  O   UNL     1       2.942  -5.081  22.982  0.00  0.00    -0.227 OA
BRANCH  24  26
ATOM     26  O   UNL     1       4.722  -6.613  23.063  0.00  0.00    -0.302 OA
ATOM     27  H   UNL     1       5.233  -6.633  22.234  0.00  0.00    +0.222 HD
ENDBRANCH  24  26
BRANCH  24  28
ATOM     28  O   UNL     1       4.989  -4.502  21.975  0.00  0.00    -0.302 OA
ATOM     29  H   UNL     1       5.556  -3.720  22.088  0.00  0.00    +0.222 HD
ENDBRANCH  24  28
ENDBRANCH  23  24
ENDBRANCH  19  23
ENDBRANCH  18  19
ENDBRANCH   4  18
TORSDOF 14
ENDMDL
MODEL 5
REMARK VINA RESULT:      -5.6      2.460      6.248
REMARK  Name = 
REMARK  14 active torsions:
REMARK  status: ('A' for Active; 'I' for Inactive)
REMARK    1  A    between atoms: O_1  and  C_2
REMARK    2  A    between atoms: C_4  and  O_6
REMARK    3  A    between atoms: C_7  and  O_9
REMARK    4  A    between atoms: O_9  and  P_10
REMARK    5  A    between atoms: P_10  and  O_11
REMARK    6  A    between atoms: P_10  and  O_13
REMARK    7  A    between atoms: O_13  and  P_14
REMARK    8  A    between atoms: P_14  and  O_15
REMARK    9  A    between atoms: P_14  and  O_16
REMARK   10  A    between atoms: C_19  and  C_21
REMARK   11  A    between atoms: C_21  and  O_22
REMARK   12  A    between atoms: O_22  and  P_23
REMARK   13  A    between atoms: P_23  and  O_24
REMARK   14  A    between atoms: P_23  and  O_25
REMARK                            x       y       z     vdW  Elec       q    Type
REMARK                         _______ _______ _______ _____ _____    ______ ____
ROOT
ATOM      1  C   UNL     1       5.175  -5.255  22.603  0.00  0.00    +0.179 C 
ATOM      2  C   UNL     1       6.256  -5.670  23.596  0.00  0.00    +0.179 C 
ATOM      3  O   UNL     1       5.672  -5.697  24.916  0.00  0.00    -0.340 OA
ATOM      4  C   UNL     1       4.279  -5.375  24.845  0.00  0.00    +0.293 C 
ATOM      5  C   UNL     1       3.875  -5.495  23.354  0.00  0.00    +0.202 C 
ENDROOT
BRANCH   1   6
ATOM      6  O   UNL     1       5.294  -6.024  21.407  0.00  0.00    -0.386 OA
ATOM      7  H   UNL     1       4.426  -6.006  20.958  0.00  0.00    +0.210 HD
ENDBRANCH   1   6
BRANCH   5   8
ATOM      8  O   UNL     1       3.338  -6.769  22.981  0.00  0.00    -0.384 OA
ATOM      9  H   UNL     1       3.353  -6.825  22.008  0.00  0.00    +0.210 HD
ENDBRANCH   5   8
BRANCH   2  10
ATOM     10  C   UNL     1       7.425  -4.683  23.542  0.00  0.00    +0.206 C 
BRANCH  10  11
ATOM     11  O   UNL     1       8.607  -5.314  23.998  0.00  0.00    -0.284 OA
BRANCH  11  12
ATOM     12  P   UNL     1       9.122  -4.919  25.451  0.00  0.00    +0.472 P 
ATOM     13  O   UNL     1       8.947  -3.488  25.850  0.00  0.00    -0.228 OA
BRANCH  12  14
ATOM     14  O   UNL     1      10.617  -5.462  25.448  0.00  0.00    -0.303 OA
ATOM     15  H   UNL     1      11.086  -5.177  24.643  0.00  0.00    +0.222 HD
ENDBRANCH  12  14
BRANCH  12  16
ATOM     16  O   UNL     1       8.340  -5.947  26.387  0.00  0.00    -0.303 OA
ATOM     17  H   UNL     1       7.379  -5.799  26.339  0.00  0.00    +0.222 HD
ENDBRANCH  12  16
ENDBRANCH  11  12
ENDBRANCH  10  11
ENDBRANCH   2  10
BRANCH   4  18
ATOM     18  O   UNL     1       3.491  -6.234  25.640  0.00  0.00    -0.254 OA
BRANCH  18  19
ATOM     19  P   UNL     1       3.033  -5.897  27.141  0.00  0.00    +0.486 P 
ATOM     20  O   UNL     1       1.819  -5.031  27.206  0.00  0.00    -0.227 OA
BRANCH  19  21
ATOM     21  O   UNL     1       2.758  -7.335  27.787  0.00  0.00    -0.302 OA
ATOM     22  H   UNL     1       2.499  -7.958  27.077  0.00  0.00    +0.222 HD
ENDBRANCH  19  21
BRANCH  19  23
ATOM     23  O   UNL     1       4.323  -5.350  27.895  0.00  0.00    -0.186 OA
BRANCH  23  24
ATOM     24  P   UNL     1       5.472  -6.326  28.744  0.00  0.00    +0.481 P 
ATOM     25  O   UNL     1       6.500  -7.199  29.504  0.00  0.00    -0.227 OA
BRANCH  24  26
ATOM     26  O   UNL     1       6.540  -5.153  28.351  0.00  0.00    -0.302 OA
ATOM     27  H   UNL     1       6.096  -4.549  27.727  0.00  0.00    +0.222 HD
ENDBRANCH  24  26
BRANCH  24  28
ATOM     28  O   UNL     1       5.648  -7.111  27.310  0.00  0.00    -0.302 OA
ATOM     29  H   UNL     1       5.885  -8.044  27.445  0.00  0.00    +0.222 HD
ENDBRANCH  24  28
ENDBRANCH  23  24
ENDBRANCH  19  23
ENDBRANCH  18  19
ENDBRANCH   4  18
TORSDOF 14
ENDMDL
MODEL 6
REMARK VINA RESULT:      -5.6      4.220      7.267
REMARK  Name = 
REMARK  14 active torsions:
REMARK  status: ('A' for Active; 'I' for Inactive)
REMARK    1  A    between atoms: O_1  and  C_2
REMARK    2  A    between atoms: C_4  and  O_6
REMARK    3  A    between atoms: C_7  and  O_9
REMARK    4  A    between atoms: O_9  and  P_10
REMARK    5  A    between atoms: P_10  and  O_11
REMARK    6  A    between atoms: P_10  and  O_13
REMARK    7  A    between atoms: O_13  and  P_14
REMARK    8  A    between atoms: P_14  and  O_15
REMARK    9  A    between atoms: P_14  and  O_16
REMARK   10  A    between atoms: C_19  and  C_21
REMARK   11  A    between atoms: C_21  and  O_22
REMARK   12  A    between atoms: O_22  and  P_23
REMARK   13  A    between atoms: P_23  and  O_24
REMARK   14  A    between atoms: P_23  and  O_25
REMARK                            x       y       z     vdW  Elec       q    Type
REMARK                         _______ _______ _______ _____ _____    ______ ____
ROOT
ATOM      1  C   UNL     1       9.204  -0.202  25.615  0.00  0.00    +0.179 C 
ATOM      2  C   UNL     1       9.033  -0.439  24.118  0.00  0.00    +0.179 C 
ATOM      3  O   UNL     1       8.771  -1.842  23.908  0.00  0.00    -0.340 OA
ATOM      4  C   UNL     1       8.713  -2.526  25.165  0.00  0.00    +0.293 C 
ATOM      5  C   UNL     1       8.580  -1.433  26.255  0.00  0.00    +0.202 C 
ENDROOT
BRANCH   1   6
ATOM      6  O   UNL     1       8.569   1.020  25.989  0.00  0.00    -0.386 OA
ATOM      7  H   UNL     1       9.257   1.713  26.012  0.00  0.00    +0.210 HD
ENDBRANCH   1   6
BRANCH   5   8
ATOM      8  O   UNL     1       7.234  -1.136  26.643  0.00  0.00    -0.384 OA
ATOM      9  H   UNL     1       6.763  -1.981  26.755  0.00  0.00    +0.210 HD
ENDBRANCH   5   8
BRANCH   2  10
ATOM     10  C   UNL     1      10.298  -0.008  23.372  0.00  0.00    +0.206 C 
BRANCH  10  11
ATOM     11  O   UNL     1      10.695   1.281  23.804  0.00  0.00    -0.284 OA
BRANCH  11  12
ATOM     12  P   UNL     1      10.046   2.525  23.057  0.00  0.00    +0.472 P 
ATOM     13  O   UNL     1       8.760   3.041  23.622  0.00  0.00    -0.228 OA
BRANCH  12  14
ATOM     14  O   UNL     1       9.993   2.033  21.545  0.00  0.00    -0.303 OA
ATOM     15  H   UNL     1      10.799   2.298  21.067  0.00  0.00    +0.222 HD
ENDBRANCH  12  14
BRANCH  12  16
ATOM     16  O   UNL     1      11.229   3.595  23.072  0.00  0.00    -0.303 OA
ATOM     17  H   UNL     1      11.932   3.344  22.448  0.00  0.00    +0.222 HD
ENDBRANCH  12  16
ENDBRANCH  11  12
ENDBRANCH  10  11
ENDBRANCH   2  10
BRANCH   4  18
ATOM     18  O   UNL     1       7.628  -3.425  25.234  0.00  0.00    -0.254 OA
BRANCH  18  19
ATOM     19  P   UNL     1       7.720  -4.975  24.825  0.00  0.00    +0.486 P 
ATOM     20  O   UNL     1       8.997  -5.327  24.139  0.00  0.00    -0.227 OA
BRANCH  19  21
ATOM     21  O   UNL     1       7.576  -5.746  26.220  0.00  0.00    -0.302 OA
ATOM     22  H   UNL     1       8.353  -6.331  26.341  0.00  0.00    +0.222 HD
ENDBRANCH  19  21
BRANCH  19  23
ATOM     23  O   UNL     1       6.384  -5.313  24.031  0.00  0.00    -0.186 OA
BRANCH  23  24
ATOM     24  P   UNL     1       6.146  -5.087  22.333  0.00  0.00    +0.481 P 
ATOM     25  O   UNL     1       5.933  -4.885  20.812  0.00  0.00    -0.227 OA
BRANCH  24  26
ATOM     26  O   UNL     1       7.253  -6.279  22.168  0.00  0.00    -0.302 OA
ATOM     27  H   UNL     1       7.155  -6.877  22.930  0.00  0.00    +0.222 HD
ENDBRANCH  24  26
BRANCH  24  28
ATOM     28  O   UNL     1       7.284  -3.909  22.476  0.00  0.00    -0.302 OA
ATOM     29  H   UNL     1       8.137  -4.274  22.766  0.00  0.00    +0.222 HD
ENDBRANCH  24  28
ENDBRANCH  23  24
ENDBRANCH  19  23
ENDBRANCH  18  19
ENDBRANCH   4  18
TORSDOF 14
ENDMDL
MODEL 7
REMARK VINA RESULT:      -5.5      5.738      8.488
REMARK  Name = 
REMARK  14 active torsions:
REMARK  status: ('A' for Active; 'I' for Inactive)
REMARK    1  A    between atoms: O_1  and  C_2
REMARK    2  A    between atoms: C_4  and  O_6
REMARK    3  A    between atoms: C_7  and  O_9
REMARK    4  A    between atoms: O_9  and  P_10
REMARK    5  A    between atoms: P_10  and  O_11
REMARK    6  A    between atoms: P_10  and  O_13
REMARK    7  A    between atoms: O_13  and  P_14
REMARK    8  A    between atoms: P_14  and  O_15
REMARK    9  A    between atoms: P_14  and  O_16
REMARK   10  A    between atoms: C_19  and  C_21
REMARK   11  A    between atoms: C_21  and  O_22
REMARK   12  A    between atoms: O_22  and  P_23
REMARK   13  A    between atoms: P_23  and  O_24
REMARK   14  A    between atoms: P_23  and  O_25
REMARK                            x       y       z     vdW  Elec       q    Type
REMARK                         _______ _______ _______ _____ _____    ______ ____
ROOT
ATOM      1  C   UNL     1       9.381   2.057  24.245  0.00  0.00    +0.179 C 
ATOM      2  C   UNL     1       8.370   1.501  23.247  0.00  0.00    +0.179 C 
ATOM      3  O   UNL     1       8.890   0.262  22.719  0.00  0.00    -0.340 OA
ATOM      4  C   UNL     1      10.143  -0.050  23.337  0.00  0.00    +0.293 C 
ATOM      5  C   UNL     1      10.257   0.862  24.584  0.00  0.00    +0.202 C 
ENDROOT
BRANCH   1   6
ATOM      6  O   UNL     1       8.699   2.605  25.372  0.00  0.00    -0.386 OA
ATOM      7  H   UNL     1       8.733   1.941  26.087  0.00  0.00    +0.210 HD
ENDBRANCH   1   6
BRANCH   5   8
ATOM      8  O   UNL     1       9.798   0.267  25.804  0.00  0.00    -0.384 OA
ATOM      9  H   UNL     1       9.663  -0.683  25.639  0.00  0.00    +0.210 HD
ENDBRANCH   5   8
BRANCH   2  10
ATOM     10  C   UNL     1       8.134   2.511  22.121  0.00  0.00    +0.206 C 
BRANCH  10  11
ATOM     11  O   UNL     1       8.337   3.826  22.605  0.00  0.00    -0.284 OA
BRANCH  11  12
ATOM     12  P   UNL     1       7.097   4.820  22.534  0.00  0.00    +0.472 P 
ATOM     13  O   UNL     1       6.656   5.424  23.830  0.00  0.00    -0.228 OA
BRANCH  12  14
ATOM     14  O   UNL     1       6.006   3.958  21.762  0.00  0.00    -0.303 OA
ATOM     15  H   UNL     1       6.201   3.929  20.808  0.00  0.00    +0.222 HD
ENDBRANCH  12  14
BRANCH  12  16
ATOM     16  O   UNL     1       7.575   5.894  21.456  0.00  0.00    -0.303 OA
ATOM     17  H   UNL     1       8.495   6.166  21.620  0.00  0.00    +0.222 HD
ENDBRANCH  12  16
ENDBRANCH  11  12
ENDBRANCH  10  11
ENDBRANCH   2  10
BRANCH   4  18
ATOM     18  O   UNL     1      10.231  -1.408  23.710  0.00  0.00    -0.254 OA
BRANCH  18  19
ATOM     19  P   UNL     1       8.964  -2.384  23.847  0.00  0.00    +0.486 P 
ATOM     20  O   UNL     1       7.892  -1.836  24.728  0.00  0.00    -0.227 OA
BRANCH  19  21
ATOM     21  O   UNL     1       8.449  -2.553  22.341  0.00  0.00    -0.302 OA
ATOM     22  H   UNL     1       7.705  -3.190  22.329  0.00  0.00    +0.222 HD
ENDBRANCH  19  21
BRANCH  19  23
ATOM     23  O   UNL     1       9.536  -3.813  24.246  0.00  0.00    -0.186 OA
BRANCH  23  24
ATOM     24  P   UNL     1       8.753  -4.945  25.295  0.00  0.00    +0.481 P 
ATOM     25  O   UNL     1       8.053  -5.957  26.234  0.00  0.00    -0.227 OA
BRANCH  24  26
ATOM     26  O   UNL     1       9.036  -3.835  26.462  0.00  0.00    -0.302 OA
ATOM     27  H   UNL     1       8.206  -3.346  26.608  0.00  0.00    +0.222 HD
ENDBRANCH  24  26
BRANCH  24  28
ATOM     28  O   UNL     1      10.243  -5.625  25.437  0.00  0.00    -0.302 OA
ATOM     29  H   UNL     1      10.882  -5.000  25.820  0.00  0.00    +0.222 HD
ENDBRANCH  24  28
ENDBRANCH  23  24
ENDBRANCH  19  23
ENDBRANCH  18  19
ENDBRANCH   4  18
TORSDOF 14
ENDMDL
MODEL 8
REMARK VINA RESULT:      -5.5      5.509      8.156
REMARK  Name = 
REMARK  14 active torsions:
REMARK  status: ('A' for Active; 'I' for Inactive)
REMARK    1  A    between atoms: O_1  and  C_2
REMARK    2  A    between atoms: C_4  and  O_6
REMARK    3  A    between atoms: C_7  and  O_9
REMARK    4  A    between atoms: O_9  and  P_10
REMARK    5  A    between atoms: P_10  and  O_11
REMARK    6  A    between atoms: P_10  and  O_13
REMARK    7  A    between atoms: O_13  and  P_14
REMARK    8  A    between atoms: P_14  and  O_15
REMARK    9  A    between atoms: P_14  and  O_16
REMARK   10  A    between atoms: C_19  and  C_21
REMARK   11  A    between atoms: C_21  and  O_22
REMARK   12  A    between atoms: O_22  and  P_23
REMARK   13  A    between atoms: P_23  and  O_24
REMARK   14  A    between atoms: P_23  and  O_25
REMARK                            x       y       z     vdW  Elec       q    Type
REMARK                         _______ _______ _______ _____ _____    ______ ____
ROOT
ATOM      1  C   UNL     1       9.827  -1.381  22.778  0.00  0.00    +0.179 C 
ATOM      2  C   UNL     1       8.326  -1.589  22.603  0.00  0.00    +0.179 C 
ATOM      3  O   UNL     1       7.636  -0.621  23.421  0.00  0.00    -0.340 OA
ATOM      4  C   UNL     1       8.580   0.232  24.078  0.00  0.00    +0.293 C 
ATOM      5  C   UNL     1       9.937   0.018  23.362  0.00  0.00    +0.202 C 
ENDROOT
BRANCH   1   6
ATOM      6  O   UNL     1      10.487  -1.531  21.523  0.00  0.00    -0.386 OA
ATOM      7  H   UNL     1      11.084  -0.765  21.411  0.00  0.00    +0.210 HD
ENDBRANCH   1   6
BRANCH   5   8
ATOM      8  O   UNL     1      10.212   0.951  22.311  0.00  0.00    -0.384 OA
ATOM      9  H   UNL     1      10.850   1.605  22.651  0.00  0.00    +0.210 HD
ENDBRANCH   5   8
BRANCH   2  10
ATOM     10  C   UNL     1       7.942  -3.014  23.013  0.00  0.00    +0.206 C 
BRANCH  10  11
ATOM     11  O   UNL     1       9.050  -3.653  23.620  0.00  0.00    -0.284 OA
BRANCH  11  12
ATOM     12  P   UNL     1       8.756  -4.545  24.903  0.00  0.00    +0.472 P 
ATOM     13  O   UNL     1       7.473  -5.316  24.895  0.00  0.00    -0.228 OA
BRANCH  12  14
ATOM     14  O   UNL     1       8.934  -3.507  26.095  0.00  0.00    -0.303 OA
ATOM     15  H   UNL     1       8.781  -2.597  25.786  0.00  0.00    +0.222 HD
ENDBRANCH  12  14
BRANCH  12  16
ATOM     16  O   UNL     1      10.056  -5.464  24.994  0.00  0.00    -0.303 OA
ATOM     17  H   UNL     1      10.488  -5.542  24.125  0.00  0.00    +0.222 HD
ENDBRANCH  12  16
ENDBRANCH  11  12
ENDBRANCH  10  11
ENDBRANCH   2  10
BRANCH   4  18
ATOM     18  O   UNL     1       8.202   1.590  24.023  0.00  0.00    -0.254 OA
BRANCH  18  19
ATOM     19  P   UNL     1       7.138   2.182  22.977  0.00  0.00    +0.486 P 
ATOM     20  O   UNL     1       7.553   2.010  21.555  0.00  0.00    -0.227 OA
BRANCH  19  21
ATOM     21  O   UNL     1       5.797   1.368  23.295  0.00  0.00    -0.302 OA
ATOM     22  H   UNL     1       5.033   1.862  22.933  0.00  0.00    +0.222 HD
ENDBRANCH  19  21
BRANCH  19  23
ATOM     23  O   UNL     1       6.831   3.672  23.441  0.00  0.00    -0.186 OA
BRANCH  23  24
ATOM     24  P   UNL     1       7.871   5.032  23.189  0.00  0.00    +0.481 P 
ATOM     25  O   UNL     1       8.802   6.249  22.965  0.00  0.00    -0.227 OA
BRANCH  24  26
ATOM     26  O   UNL     1       7.302   4.999  21.657  0.00  0.00    -0.302 OA
ATOM     27  H   UNL     1       6.993   4.092  21.479  0.00  0.00    +0.222 HD
ENDBRANCH  24  26
BRANCH  24  28
ATOM     28  O   UNL     1       9.032   3.906  22.892  0.00  0.00    -0.302 OA
ATOM     29  H   UNL     1       8.733   3.255  22.236  0.00  0.00    +0.222 HD
ENDBRANCH  24  28
ENDBRANCH  23  24
ENDBRANCH  19  23
ENDBRANCH  18  19
ENDBRANCH   4  18
TORSDOF 14
ENDMDL
MODEL 9
REMARK VINA RESULT:      -5.5      4.379      7.971
REMARK  Name = 
REMARK  14 active torsions:
REMARK  status: ('A' for Active; 'I' for Inactive)
REMARK    1  A    between atoms: O_1  and  C_2
REMARK    2  A    between atoms: C_4  and  O_6
REMARK    3  A    between atoms: C_7  and  O_9
REMARK    4  A    between atoms: O_9  and  P_10
REMARK    5  A    between atoms: P_10  and  O_11
REMARK    6  A    between atoms: P_10  and  O_13
REMARK    7  A    between atoms: O_13  and  P_14
REMARK    8  A    between atoms: P_14  and  O_15
REMARK    9  A    between atoms: P_14  and  O_16
REMARK   10  A    between atoms: C_19  and  C_21
REMARK   11  A    between atoms: C_21  and  O_22
REMARK   12  A    between atoms: O_22  and  P_23
REMARK   13  A    between atoms: P_23  and  O_24
REMARK   14  A    between atoms: P_23  and  O_25
REMARK                            x       y       z     vdW  Elec       q    Type
REMARK                         _______ _______ _______ _____ _____    ______ ____
ROOT
ATOM      1  C   UNL     1       9.171  -1.007  22.407  0.00  0.00    +0.179 C 
ATOM      2  C   UNL     1       9.888  -1.118  23.748  0.00  0.00    +0.179 C 
ATOM      3  O   UNL     1       8.911  -1.448  24.758  0.00  0.00    -0.340 OA
ATOM      4  C   UNL     1       7.619  -1.605  24.162  0.00  0.00    +0.293 C 
ATOM      5  C   UNL     1       7.852  -1.729  22.635  0.00  0.00    +0.202 C 
ENDROOT
BRANCH   1   6
ATOM      6  O   UNL     1       9.971  -1.590  21.379  0.00  0.00    -0.386 OA
ATOM      7  H   UNL     1      10.208  -2.492  21.667  0.00  0.00    +0.210 HD
ENDBRANCH   1   6
BRANCH   5   8
ATOM      8  O   UNL     1       7.957  -3.074  22.153  0.00  0.00    -0.384 OA
ATOM      9  H   UNL     1       7.726  -3.672  22.887  0.00  0.00    +0.210 HD
ENDBRANCH   5   8
BRANCH   2  10
ATOM     10  C   UNL     1      10.584   0.204  24.082  0.00  0.00    +0.206 C 
BRANCH  10  11
ATOM     11  O   UNL     1      10.460   1.100  22.993  0.00  0.00    -0.284 OA
BRANCH  11  12
ATOM     12  P   UNL     1      10.120   2.615  23.339  0.00  0.00    +0.472 P 
ATOM     13  O   UNL     1      11.279   3.559  23.389  0.00  0.00    -0.228 OA
BRANCH  12  14
ATOM     14  O   UNL     1       9.274   2.482  24.680  0.00  0.00    -0.303 OA
ATOM     15  H   UNL     1       9.206   3.342  25.132  0.00  0.00    +0.222 HD
ENDBRANCH  12  14
BRANCH  12  16
ATOM     16  O   UNL     1       9.033   2.989  22.233  0.00  0.00    -0.303 OA
ATOM     17  H   UNL     1       8.248   2.419  22.311  0.00  0.00    +0.222 HD
ENDBRANCH  12  16
ENDBRANCH  11  12
ENDBRANCH  10  11
ENDBRANCH   2  10
BRANCH   4  18
ATOM     18  O   UNL     1       6.939  -2.741  24.650  0.00  0.00    -0.254 OA
BRANCH  18  19
ATOM     19  P   UNL     1       7.652  -3.934  25.454  0.00  0.00    +0.486 P 
ATOM     20  O   UNL     1       8.675  -4.660  24.646  0.00  0.00    -0.227 OA
BRANCH  19  21
ATOM     21  O   UNL     1       8.317  -3.202  26.712  0.00  0.00    -0.302 OA
ATOM     22  H   UNL     1       8.920  -2.501  26.390  0.00  0.00    +0.222 HD
ENDBRANCH  19  21
BRANCH  19  23
ATOM     23  O   UNL     1       6.486  -4.824  26.069  0.00  0.00    -0.186 OA
BRANCH  23  24
ATOM     24  P   UNL     1       6.414  -5.387  27.703  0.00  0.00    +0.481 P 
ATOM     25  O   UNL     1       6.350  -5.891  29.166  0.00  0.00    -0.227 OA
BRANCH  24  26
ATOM     26  O   UNL     1       7.944  -5.900  27.439  0.00  0.00    -0.302 OA
ATOM     27  H   UNL     1       8.520  -5.114  27.442  0.00  0.00    +0.222 HD
ENDBRANCH  24  26
BRANCH  24  28
ATOM     28  O   UNL     1       5.740  -6.740  27.056  0.00  0.00    -0.302 OA
ATOM     29  H   UNL     1       5.049  -6.515  26.410  0.00  0.00    +0.222 HD
ENDBRANCH  24  28
ENDBRANCH  23  24
ENDBRANCH  19  23
ENDBRANCH  18  19
ENDBRANCH   4  18
TORSDOF 14
ENDMDL
