MODEL 1
REMARK VINA RESULT:      -4.5      0.000      0.000
REMARK  Name = 
REMARK  6 active torsions:
REMARK  status: ('A' for Active; 'I' for Inactive)
REMARK    1  A    between atoms: N_1  and  C_2
REMARK    2  A    between atoms: C_4  and  O_6
REMARK    3  A    between atoms: C_8  and  C_10
REMARK    4  A    between atoms: C_10  and  O_11
REMARK    5  A    between atoms: C_12  and  O_14
REMARK    6  A    between atoms: C_15  and  O_17
REMARK                            x       y       z     vdW  Elec       q    Type
REMARK                         _______ _______ _______ _____ _____    ______ ____
ROOT
ATOM      1  C   UNL     1       8.883  -2.215  24.172  0.00  0.00    +0.139 C 
ATOM      2  C   UNL     1       8.614  -1.827  22.708  0.00  0.00    +0.167 C 
ATOM      3  C   UNL     1       9.824  -1.127  22.077  0.00  0.00    +0.176 C 
ATOM      4  C   UNL     1      10.324   0.045  22.942  0.00  0.00    +0.178 C 
ATOM      5  O   UNL     1      10.497  -0.334  24.317  0.00  0.00    -0.342 OA
ATOM      6  C   UNL     1       9.374  -0.956  24.944  0.00  0.00    +0.267 C 
ENDROOT
BRANCH   1   7
ATOM      7  N   UNL     1       9.837  -3.344  24.253  0.00  0.00    -0.321 NA
ATOM      8  H   UNL     1      10.682  -3.112  23.726  0.00  0.00    +0.119 HD
ATOM      9  H   UNL     1      10.155  -3.434  25.220  0.00  0.00    +0.119 HD
ENDBRANCH   1   7
BRANCH   2  10
ATOM     10  O   UNL     1       7.471  -0.955  22.647  0.00  0.00    -0.387 OA
ATOM     11  H   UNL     1       6.768  -1.501  22.234  0.00  0.00    +0.210 HD
ENDBRANCH   2  10
BRANCH   3  12
ATOM     12  O   UNL     1       9.474  -0.708  20.753  0.00  0.00    -0.387 OA
ATOM     13  H   UNL     1       8.601  -0.278  20.805  0.00  0.00    +0.210 HD
ENDBRANCH   3  12
BRANCH   6  14
ATOM     14  O   UNL     1       8.334  -0.022  25.185  0.00  0.00    -0.366 OA
ATOM     15  H   UNL     1       7.837   0.071  24.347  0.00  0.00    +0.213 HD
ENDBRANCH   6  14
BRANCH   4  16
ATOM     16  C   UNL     1       9.523   1.352  22.781  0.00  0.00    +0.190 C 
BRANCH  16  17
ATOM     17  O   UNL     1       9.942   2.037  21.600  0.00  0.00    -0.392 OA
ATOM     18  H   UNL     1      10.540   1.417  21.138  0.00  0.00    +0.210 HD
ENDBRANCH  16  17
ENDBRANCH   4  16
TORSDOF 6
ENDMDL
MODEL 2
REMARK VINA RESULT:      -4.5      1.586      1.948
REMARK  Name = 
REMARK  6 active torsions:
REMARK  status: ('A' for Active; 'I' for Inactive)
REMARK    1  A    between atoms: N_1  and  C_2
REMARK    2  A    between atoms: C_4  and  O_6
REMARK    3  A    between atoms: C_8  and  C_10
REMARK    4  A    between atoms: C_10  and  O_11
REMARK    5  A    between atoms: C_12  and  O_14
REMARK    6  A    between atoms: C_15  and  O_17
REMARK                            x       y       z     vdW  Elec       q    Type
REMARK                         _______ _______ _______ _____ _____    ______ ____
ROOT
ATOM      1  C   UNL     1       9.566  -0.977  23.461  0.00  0.00    +0.139 C 
ATOM      2  C   UNL     1       8.905   0.030  22.504  0.00  0.00    +0.167 C 
ATOM      3  C   UNL     1       9.882   1.135  22.084  0.00  0.00    +0.176 C 
ATOM      4  C   UNL     1      10.560   1.795  23.299  0.00  0.00    +0.178 C 
ATOM      5  O   UNL     1      11.105   0.823  24.206  0.00  0.00    -0.342 OA
ATOM      6  C   UNL     1      10.208  -0.199  24.646  0.00  0.00    +0.267 C 
ENDROOT
BRANCH   1   7
ATOM      7  N   UNL     1      10.540  -1.829  22.740  0.00  0.00    -0.321 NA
ATOM      8  H   UNL     1      11.422  -1.323  22.639  0.00  0.00    +0.119 HD
ATOM      9  H   UNL     1      10.771  -2.631  23.331  0.00  0.00    +0.119 HD
ENDBRANCH   1   7
BRANCH   2  10
ATOM     10  O   UNL     1       7.763   0.622  23.149  0.00  0.00    -0.387 OA
ATOM     11  H   UNL     1       7.105   0.733  22.430  0.00  0.00    +0.210 HD
ENDBRANCH   2  10
BRANCH   3  12
ATOM     12  O   UNL     1       9.180   2.087  21.277  0.00  0.00    -0.387 OA
ATOM     13  H   UNL     1       8.296   1.718  21.093  0.00  0.00    +0.210 HD
ENDBRANCH   3  12
BRANCH   6  14
ATOM     14  O   UNL     1       9.244   0.315  25.550  0.00  0.00    -0.366 OA
ATOM     15  H   UNL     1       9.727   0.583  26.358  0.00  0.00    +0.213 HD
ENDBRANCH   6  14
BRANCH   4  16
ATOM     16  C   UNL     1       9.708   2.863  24.011  0.00  0.00    +0.190 C 
BRANCH  16  17
ATOM     17  O   UNL     1       9.739   4.084  23.271  0.00  0.00    -0.392 OA
ATOM     18  H   UNL     1       8.891   4.116  22.787  0.00  0.00    +0.210 HD
ENDBRANCH  16  17
ENDBRANCH   4  16
TORSDOF 6
ENDMDL
MODEL 3
REMARK VINA RESULT:      -4.4      2.272      3.785
REMARK  Name = 
REMARK  6 active torsions:
REMARK  status: ('A' for Active; 'I' for Inactive)
REMARK    1  A    between atoms: N_1  and  C_2
REMARK    2  A    between atoms: C_4  and  O_6
REMARK    3  A    between atoms: C_8  and  C_10
REMARK    4  A    between atoms: C_10  and  O_11
REMARK    5  A    between atoms: C_12  and  O_14
REMARK    6  A    between atoms: C_15  and  O_17
REMARK                            x       y       z     vdW  Elec       q    Type
REMARK                         _______ _______ _______ _____ _____    ______ ____
ROOT
ATOM      1  C   UNL     1       8.915   0.918  21.885  0.00  0.00    +0.139 C 
ATOM      2  C   UNL     1       8.331   1.001  23.306  0.00  0.00    +0.167 C 
ATOM      3  C   UNL     1       9.397   0.723  24.372  0.00  0.00    +0.176 C 
ATOM      4  C   UNL     1      10.159  -0.587  24.095  0.00  0.00    +0.178 C 
ATOM      5  O   UNL     1      10.629  -0.661  22.740  0.00  0.00    -0.342 OA
ATOM      6  C   UNL     1       9.650  -0.444  21.722  0.00  0.00    +0.267 C 
ENDROOT
BRANCH   1   7
ATOM      7  N   UNL     1       9.790   2.079  21.604  0.00  0.00    -0.321 NA
ATOM      8  H   UNL     1       9.245   2.810  21.142  0.00  0.00    +0.119 HD
ATOM      9  H   UNL     1      10.074   2.495  22.494  0.00  0.00    +0.119 HD
ENDBRANCH   1   7
BRANCH   2  10
ATOM     10  O   UNL     1       7.262   0.048  23.439  0.00  0.00    -0.387 OA
ATOM     11  H   UNL     1       7.615  -0.632  24.053  0.00  0.00    +0.210 HD
ENDBRANCH   2  10
BRANCH   3  12
ATOM     12  O   UNL     1       8.771   0.720  25.659  0.00  0.00    -0.387 OA
ATOM     13  H   UNL     1       8.792   1.635  25.996  0.00  0.00    +0.210 HD
ENDBRANCH   3  12
BRANCH   6  14
ATOM     14  O   UNL     1       8.755  -1.540  21.623  0.00  0.00    -0.366 OA
ATOM     15  H   UNL     1       9.143  -2.271  22.146  0.00  0.00    +0.213 HD
ENDBRANCH   6  14
BRANCH   4  16
ATOM     16  C   UNL     1       9.424  -1.865  24.542  0.00  0.00    +0.190 C 
BRANCH  16  17
ATOM     17  O   UNL     1      10.054  -3.013  23.972  0.00  0.00    -0.392 OA
ATOM     18  H   UNL     1       9.846  -2.977  23.018  0.00  0.00    +0.210 HD
ENDBRANCH  16  17
ENDBRANCH   4  16
TORSDOF 6
ENDMDL
MODEL 4
REMARK VINA RESULT:      -4.4      2.366      3.624
REMARK  Name = 
REMARK  6 active torsions:
REMARK  status: ('A' for Active; 'I' for Inactive)
REMARK    1  A    between atoms: N_1  and  C_2
REMARK    2  A    between atoms: C_4  and  O_6
REMARK    3  A    between atoms: C_8  and  C_10
REMARK    4  A    between atoms: C_10  and  O_11
REMARK    5  A    between atoms: C_12  and  O_14
REMARK    6  A    between atoms: C_15  and  O_17
REMARK                            x       y       z     vdW  Elec       q    Type
REMARK                         _______ _______ _______ _____ _____    ______ ____
ROOT
ATOM      1  C   UNL     1       7.844   0.481  22.589  0.00  0.00    +0.139 C 
ATOM      2  C   UNL     1       8.933  -0.016  23.556  0.00  0.00    +0.167 C 
ATOM      3  C   UNL     1       9.159   0.971  24.708  0.00  0.00    +0.176 C 
ATOM      4  C   UNL     1       9.396   2.405  24.198  0.00  0.00    +0.178 C 
ATOM      5  O   UNL     1       8.401   2.810  23.245  0.00  0.00    -0.342 OA
ATOM      6  C   UNL     1       8.194   1.929  22.139  0.00  0.00    +0.267 C 
ENDROOT
BRANCH   1   7
ATOM      7  N   UNL     1       6.503   0.382  23.208  0.00  0.00    -0.321 NA
ATOM      8  H   UNL     1       5.864  -0.081  22.558  0.00  0.00    +0.119 HD
ATOM      9  H   UNL     1       6.559  -0.253  24.007  0.00  0.00    +0.119 HD
ENDBRANCH   1   7
BRANCH   2  10
ATOM     10  O   UNL     1      10.165  -0.198  22.834  0.00  0.00    -0.387 OA
ATOM     11  H   UNL     1       9.988   0.183  21.948  0.00  0.00    +0.210 HD
ENDBRANCH   2  10
BRANCH   3  12
ATOM     12  O   UNL     1      10.246   0.499  25.512  0.00  0.00    -0.387 OA
ATOM     13  H   UNL     1       9.867  -0.067  26.209  0.00  0.00    +0.210 HD
ENDBRANCH   3  12
BRANCH   6  14
ATOM     14  O   UNL     1       9.284   1.973  21.233  0.00  0.00    -0.366 OA
ATOM     15  H   UNL     1      10.047   2.338  21.724  0.00  0.00    +0.213 HD
ENDBRANCH   6  14
BRANCH   4  16
ATOM     16  C   UNL     1      10.833   2.687  23.716  0.00  0.00    +0.190 C 
BRANCH  16  17
ATOM     17  O   UNL     1      10.871   3.920  22.997  0.00  0.00    -0.392 OA
ATOM     18  H   UNL     1      11.489   3.769  22.254  0.00  0.00    +0.210 HD
ENDBRANCH  16  17
ENDBRANCH   4  16
TORSDOF 6
ENDMDL
MODEL 5
REMARK VINA RESULT:      -4.4      1.870      3.331
REMARK  Name = 
REMARK  6 active torsions:
REMARK  status: ('A' for Active; 'I' for Inactive)
REMARK    1  A    between atoms: N_1  and  C_2
REMARK    2  A    between atoms: C_4  and  O_6
REMARK    3  A    between atoms: C_8  and  C_10
REMARK    4  A    between atoms: C_10  and  O_11
REMARK    5  A    between atoms: C_12  and  O_14
REMARK    6  A    between atoms: C_15  and  O_17
REMARK                            x       y       z     vdW  Elec       q    Type
REMARK                         _______ _______ _______ _____ _____    ______ ____
ROOT
ATOM      1  C   UNL     1       8.243  -2.773  22.431  0.00  0.00    +0.139 C 
ATOM      2  C   UNL     1       8.649  -2.865  23.912  0.00  0.00    +0.167 C 
ATOM      3  C   UNL     1       8.320  -1.571  24.668  0.00  0.00    +0.176 C 
ATOM      4  C   UNL     1       8.882  -0.329  23.952  0.00  0.00    +0.178 C 
ATOM      5  O   UNL     1       8.543  -0.312  22.556  0.00  0.00    -0.342 OA
ATOM      6  C   UNL     1       8.872  -1.490  21.815  0.00  0.00    +0.267 C 
ENDROOT
BRANCH   1   7
ATOM      7  N   UNL     1       6.771  -2.819  22.282  0.00  0.00    -0.321 NA
ATOM      8  H   UNL     1       6.334  -2.457  23.132  0.00  0.00    +0.119 HD
ATOM      9  H   UNL     1       6.496  -2.159  21.551  0.00  0.00    +0.119 HD
ENDBRANCH   1   7
BRANCH   2  10
ATOM     10  O   UNL     1      10.060  -3.128  24.006  0.00  0.00    -0.387 OA
ATOM     11  H   UNL     1      10.289  -3.545  23.148  0.00  0.00    +0.210 HD
ENDBRANCH   2  10
BRANCH   3  12
ATOM     12  O   UNL     1       8.809  -1.686  26.009  0.00  0.00    -0.387 OA
ATOM     13  H   UNL     1       9.449  -2.421  26.024  0.00  0.00    +0.210 HD
ENDBRANCH   3  12
BRANCH   6  14
ATOM     14  O   UNL     1      10.272  -1.605  21.621  0.00  0.00    -0.366 OA
ATOM     15  H   UNL     1      10.483  -2.560  21.633  0.00  0.00    +0.213 HD
ENDBRANCH   6  14
BRANCH   4  16
ATOM     16  C   UNL     1      10.378  -0.061  24.206  0.00  0.00    +0.190 C 
BRANCH  16  17
ATOM     17  O   UNL     1      10.551   0.560  25.481  0.00  0.00    -0.392 OA
ATOM     18  H   UNL     1       9.680   0.941  25.705  0.00  0.00    +0.210 HD
ENDBRANCH  16  17
ENDBRANCH   4  16
TORSDOF 6
ENDMDL
MODEL 6
REMARK VINA RESULT:      -4.4      1.379      2.831
REMARK  Name = 
REMARK  6 active torsions:
REMARK  status: ('A' for Active; 'I' for Inactive)
REMARK    1  A    between atoms: N_1  and  C_2
REMARK    2  A    between atoms: C_4  and  O_6
REMARK    3  A    between atoms: C_8  and  C_10
REMARK    4  A    between atoms: C_10  and  O_11
REMARK    5  A    between atoms: C_12  and  O_14
REMARK    6  A    between atoms: C_15  and  O_17
REMARK                            x       y       z     vdW  Elec       q    Type
REMARK                         _______ _______ _______ _____ _____    ______ ____
ROOT
ATOM      1  C   UNL     1       9.622  -1.794  24.217  0.00  0.00    +0.139 C 
ATOM      2  C   UNL     1       9.838  -0.316  24.585  0.00  0.00    +0.167 C 
ATOM      3  C   UNL     1       8.682   0.563  24.093  0.00  0.00    +0.176 C 
ATOM      4  C   UNL     1       8.385   0.339  22.599  0.00  0.00    +0.178 C 
ATOM      5  O   UNL     1       8.259  -1.056  22.278  0.00  0.00    -0.342 OA
ATOM      6  C   UNL     1       9.339  -1.896  22.690  0.00  0.00    +0.267 C 
ENDROOT
BRANCH   1   7
ATOM      7  N   UNL     1       8.547  -2.392  25.041  0.00  0.00    -0.321 NA
ATOM      8  H   UNL     1       7.643  -2.018  24.741  0.00  0.00    +0.119 HD
ATOM      9  H   UNL     1       8.492  -3.391  24.831  0.00  0.00    +0.119 HD
ENDBRANCH   1   7
BRANCH   2  10
ATOM     10  O   UNL     1      11.071   0.145  24.004  0.00  0.00    -0.387 OA
ATOM     11  H   UNL     1      11.467  -0.657  23.601  0.00  0.00    +0.210 HD
ENDBRANCH   2  10
BRANCH   3  12
ATOM     12  O   UNL     1       8.991   1.932  24.381  0.00  0.00    -0.387 OA
ATOM     13  H   UNL     1       8.163   2.440  24.301  0.00  0.00    +0.210 HD
ENDBRANCH   3  12
BRANCH   6  14
ATOM     14  O   UNL     1      10.496  -1.673  21.902  0.00  0.00    -0.366 OA
ATOM     15  H   UNL     1      10.228  -1.778  20.967  0.00  0.00    +0.213 HD
ENDBRANCH   6  14
BRANCH   4  16
ATOM     16  C   UNL     1       9.325   1.089  21.636  0.00  0.00    +0.190 C 
BRANCH  16  17
ATOM     17  O   UNL     1       8.950   2.466  21.564  0.00  0.00    -0.392 OA
ATOM     18  H   UNL     1       8.867   2.761  22.492  0.00  0.00    +0.210 HD
ENDBRANCH  16  17
ENDBRANCH   4  16
TORSDOF 6
ENDMDL
MODEL 7
REMARK VINA RESULT:      -4.3      1.844      3.613
REMARK  Name = 
REMARK  6 active torsions:
REMARK  status: ('A' for Active; 'I' for Inactive)
REMARK    1  A    between atoms: N_1  and  C_2
REMARK    2  A    between atoms: C_4  and  O_6
REMARK    3  A    between atoms: C_8  and  C_10
REMARK    4  A    between atoms: C_10  and  O_11
REMARK    5  A    between atoms: C_12  and  O_14
REMARK    6  A    between atoms: C_15  and  O_17
REMARK                            x       y       z     vdW  Elec       q    Type
REMARK                         _______ _______ _______ _____ _____    ______ ____
ROOT
ATOM      1  C   UNL     1      10.180  -0.225  22.119  0.00  0.00    +0.139 C 
ATOM      2  C   UNL     1      10.362  -0.190  23.646  0.00  0.00    +0.167 C 
ATOM      3  C   UNL     1       9.022  -0.020  24.371  0.00  0.00    +0.176 C 
ATOM      4  C   UNL     1       8.217   1.172  23.820  0.00  0.00    +0.178 C 
ATOM      5  O   UNL     1       8.127   1.145  22.387  0.00  0.00    -0.342 OA
ATOM      6  C   UNL     1       9.364   1.026  21.681  0.00  0.00    +0.267 C 
ENDROOT
BRANCH   1   7
ATOM      7  N   UNL     1       9.554  -1.496  21.691  0.00  0.00    -0.321 NA
ATOM      8  H   UNL     1       8.712  -1.293  21.147  0.00  0.00    +0.119 HD
ATOM      9  H   UNL     1      10.180  -1.962  21.030  0.00  0.00    +0.119 HD
ENDBRANCH   1   7
BRANCH   2  10
ATOM     10  O   UNL     1      11.237   0.897  23.998  0.00  0.00    -0.387 OA
ATOM     11  H   UNL     1      12.121   0.482  24.085  0.00  0.00    +0.210 HD
ENDBRANCH   2  10
BRANCH   3  12
ATOM     12  O   UNL     1       9.271   0.103  25.776  0.00  0.00    -0.387 OA
ATOM     13  H   UNL     1       8.908   0.961  26.062  0.00  0.00    +0.210 HD
ENDBRANCH   3  12
BRANCH   6  14
ATOM     14  O   UNL     1      10.118   2.225  21.753  0.00  0.00    -0.366 OA
ATOM     15  H   UNL     1       9.485   2.964  21.649  0.00  0.00    +0.213 HD
ENDBRANCH   6  14
BRANCH   4  16
ATOM     16  C   UNL     1       8.650   2.548  24.364  0.00  0.00    +0.190 C 
BRANCH  16  17
ATOM     17  O   UNL     1       8.218   2.694  25.718  0.00  0.00    -0.392 OA
ATOM     18  H   UNL     1       8.787   3.391  26.098  0.00  0.00    +0.210 HD
ENDBRANCH  16  17
ENDBRANCH   4  16
TORSDOF 6
ENDMDL
MODEL 8
REMARK VINA RESULT:      -4.3      1.823      2.862
REMARK  Name = 
REMARK  6 active torsions:
REMARK  status: ('A' for Active; 'I' for Inactive)
REMARK    1  A    between atoms: N_1  and  C_2
REMARK    2  A    between atoms: C_4  and  O_6
REMARK    3  A    between atoms: C_8  and  C_10
REMARK    4  A    between atoms: C_10  and  O_11
REMARK    5  A    between atoms: C_12  and  O_14
REMARK    6  A    between atoms: C_15  and  O_17
REMARK                            x       y       z     vdW  Elec       q    Type
REMARK                         _______ _______ _______ _____ _____    ______ ____
ROOT
ATOM      1  C   UNL     1       8.997  -0.638  21.733  0.00  0.00    +0.139 C 
ATOM      2  C   UNL     1       9.484   0.806  21.518  0.00  0.00    +0.167 C 
ATOM      3  C   UNL     1      10.133   1.378  22.784  0.00  0.00    +0.176 C 
ATOM      4  C   UNL     1       9.227   1.211  24.019  0.00  0.00    +0.178 C 
ATOM      5  O   UNL     1       8.734  -0.132  24.149  0.00  0.00    -0.342 OA
ATOM      6  C   UNL     1       8.090  -0.679  22.997  0.00  0.00    +0.267 C 
ENDROOT
BRANCH   1   7
ATOM      7  N   UNL     1      10.140  -1.574  21.816  0.00  0.00    -0.321 NA
ATOM      8  H   UNL     1      11.012  -1.055  21.695  0.00  0.00    +0.119 HD
ATOM      9  H   UNL     1      10.192  -1.942  22.769  0.00  0.00    +0.119 HD
ENDBRANCH   1   7
BRANCH   2  10
ATOM     10  O   UNL     1       8.371   1.633  21.135  0.00  0.00    -0.387 OA
ATOM     11  H   UNL     1       8.783   2.454  20.790  0.00  0.00    +0.210 HD
ENDBRANCH   2  10
BRANCH   3  12
ATOM     12  O   UNL     1      10.474   2.748  22.548  0.00  0.00    -0.387 OA
ATOM     13  H   UNL     1      10.765   3.126  23.398  0.00  0.00    +0.210 HD
ENDBRANCH   3  12
BRANCH   6  14
ATOM     14  O   UNL     1       6.822  -0.082  22.781  0.00  0.00    -0.366 OA
ATOM     15  H   UNL     1       6.948   0.885  22.850  0.00  0.00    +0.213 HD
ENDBRANCH   6  14
BRANCH   4  16
ATOM     16  C   UNL     1       8.115   2.270  24.148  0.00  0.00    +0.190 C 
BRANCH  16  17
ATOM     17  O   UNL     1       8.641   3.458  24.741  0.00  0.00    -0.392 OA
ATOM     18  H   UNL     1       9.131   3.159  25.531  0.00  0.00    +0.210 HD
ENDBRANCH  16  17
ENDBRANCH   4  16
TORSDOF 6
ENDMDL
MODEL 9
REMARK VINA RESULT:      -4.3      2.347      3.544
REMARK  Name = 
REMARK  6 active torsions:
REMARK  status: ('A' for Active; 'I' for Inactive)
REMARK    1  A    between atoms: N_1  and  C_2
REMARK    2  A    between atoms: C_4  and  O_6
REMARK    3  A    between atoms: C_8  and  C_10
REMARK    4  A    between atoms: C_10  and  O_11
REMARK    5  A    between atoms: C_12  and  O_14
REMARK    6  A    between atoms: C_15  and  O_17
REMARK                            x       y       z     vdW  Elec       q    Type
REMARK                         _______ _______ _______ _____ _____    ______ ____
ROOT
ATOM      1  C   UNL     1      10.115   1.150  22.247  0.00  0.00    +0.139 C 
ATOM      2  C   UNL     1       9.505  -0.256  22.115  0.00  0.00    +0.167 C 
ATOM      3  C   UNL     1       8.188  -0.376  22.891  0.00  0.00    +0.176 C 
ATOM      4  C   UNL     1       8.336   0.097  24.350  0.00  0.00    +0.178 C 
ATOM      5  O   UNL     1       8.972   1.381  24.438  0.00  0.00    -0.342 OA
ATOM      6  C   UNL     1      10.221   1.513  23.756  0.00  0.00    +0.267 C 
ENDROOT
BRANCH   1   7
ATOM      7  N   UNL     1       9.332   2.140  21.473  0.00  0.00    -0.321 NA
ATOM      8  H   UNL     1       8.641   1.652  20.900  0.00  0.00    +0.119 HD
ATOM      9  H   UNL     1       8.776   2.698  22.125  0.00  0.00    +0.119 HD
ENDBRANCH   1   7
BRANCH   2  10
ATOM     10  O   UNL     1      10.441  -1.231  22.609  0.00  0.00    -0.387 OA
ATOM     11  H   UNL     1       9.904  -2.042  22.738  0.00  0.00    +0.210 HD
ENDBRANCH   2  10
BRANCH   3  12
ATOM     12  O   UNL     1       7.726  -1.728  22.808  0.00  0.00    -0.387 OA
ATOM     13  H   UNL     1       7.833  -2.127  23.691  0.00  0.00    +0.210 HD
ENDBRANCH   3  12
BRANCH   6  14
ATOM     14  O   UNL     1      11.250   0.798  24.420  0.00  0.00    -0.366 OA
ATOM     15  H   UNL     1      11.822   1.462  24.855  0.00  0.00    +0.213 HD
ENDBRANCH   6  14
BRANCH   4  16
ATOM     16  C   UNL     1       8.956  -0.943  25.303  0.00  0.00    +0.190 C 
BRANCH  16  17
ATOM     17  O   UNL     1       9.334  -0.315  26.528  0.00  0.00    -0.392 OA
ATOM     18  H   UNL     1       9.066  -0.937  27.233  0.00  0.00    +0.210 HD
ENDBRANCH  16  17
ENDBRANCH   4  16
TORSDOF 6
ENDMDL
