MODEL 1
REMARK VINA RESULT:      -6.4      0.000      0.000
REMARK  Name = 
REMARK  15 active torsions:
REMARK  status: ('A' for Active; 'I' for Inactive)
REMARK    1  A    between atoms: C_2  and  C_3
REMARK    2  A    between atoms: C_2  and  N_4
REMARK    3  A    between atoms: C_2  and  C_15
REMARK    4  A    between atoms: C_5  and  O_7
REMARK    5  A    between atoms: O_7  and  C_8
REMARK    6  A    between atoms: C_8  and  C_9
REMARK    7  A    between atoms: N_17  and  C_18
REMARK    8  A    between atoms: C_18  and  P_19
REMARK    9  A    between atoms: P_19  and  O_20
REMARK   10  A    between atoms: P_19  and  O_22
REMARK   11  A    between atoms: O_22  and  C_23
REMARK   12  A    between atoms: C_23  and  C_25
REMARK   13  A    between atoms: C_23  and  C_32
REMARK   14  A    between atoms: C_25  and  C_26
REMARK   15  A    between atoms: C_32  and  O_33
REMARK                            x       y       z     vdW  Elec       q    Type
REMARK                         _______ _______ _______ _____ _____    ______ ____
ROOT
ATOM      1  C   UNL     1       5.458  -4.875  23.655  0.00  0.00    +0.234 C 
ATOM      2  N   UNL     1       6.085  -5.770  24.487  0.00  0.00    -0.303 N 
ATOM      3  H   UNL     1       6.930  -6.243  24.186  0.00  0.00    +0.149 HD
ATOM      4  O   UNL     1       4.456  -4.250  24.000  0.00  0.00    -0.274 OA
ENDROOT
BRANCH   1   5
ATOM      5  C   UNL     1       5.935  -4.886  22.188  0.00  0.00    +0.159 C 
ATOM      6  C   UNL     1       6.669  -6.192  21.908  0.00  0.00    +0.038 C 
BRANCH   5   7
ATOM      7  N   UNL     1       6.777  -3.739  21.866  0.00  0.00    -0.270 N 
ATOM      8  H   UNL     1       6.470  -3.018  21.229  0.00  0.00    +0.153 HD
ATOM      9  C   UNL     1       7.929  -3.494  22.556  0.00  0.00    +0.401 C 
ATOM     10  O   UNL     1       8.403  -4.238  23.400  0.00  0.00    -0.226 OA
BRANCH   9  11
ATOM     11  O   UNL     1       8.409  -2.273  22.225  0.00  0.00    -0.446 OA
BRANCH  11  12
ATOM     12  C   UNL     1       9.681  -1.951  22.803  0.00  0.00    +0.269 C 
BRANCH  12  13
ATOM     13  C   UNL     1       9.894  -0.464  22.924  0.00  0.00    -0.010 A 
ATOM     14  C   UNL     1       9.535   0.392  21.872  0.00  0.00    +0.007 A 
ATOM     15  C   UNL     1       9.792   1.762  21.955  0.00  0.00    +0.000 A 
ATOM     16  C   UNL     1      10.400   2.293  23.091  0.00  0.00    +0.000 A 
ATOM     17  C   UNL     1      10.745   1.454  24.149  0.00  0.00    +0.000 A 
ATOM     18  C   UNL     1      10.489   0.084  24.069  0.00  0.00    +0.007 A 
ENDBRANCH  12  13
ENDBRANCH  11  12
ENDBRANCH   9  11
ENDBRANCH   5   7
ENDBRANCH   1   5
BRANCH   2  19
ATOM     19  C   UNL     1       5.687  -5.884  25.880  0.00  0.00    +0.231 C 
BRANCH  19  20
ATOM     20  P   UNL     1       6.773  -4.753  26.966  0.00  0.00    +0.348 P 
ATOM     21  O   UNL     1       6.753  -5.300  28.398  0.00  0.00    -0.257 OA
BRANCH  20  22
ATOM     22  O   UNL     1       8.137  -5.772  26.659  0.00  0.00    -0.323 OA
ATOM     23  H   UNL     1       8.846  -5.178  26.331  0.00  0.00    +0.220 HD
ENDBRANCH  20  22
BRANCH  20  24
ATOM     24  O   UNL     1       5.410  -3.733  27.273  0.00  0.00    -0.292 OA
BRANCH  24  25
ATOM     25  C   UNL     1       5.743  -2.355  27.005  0.00  0.00    +0.240 C 
BRANCH  25  26
ATOM     26  C   UNL     1       4.468  -1.532  26.837  0.00  0.00    +0.335 C 
ATOM     27  O   UNL     1       3.623  -1.719  25.975  0.00  0.00    -0.248 OA
BRANCH  26  28
ATOM     28  O   UNL     1       4.410  -0.496  27.709  0.00  0.00    -0.479 OA
ATOM     29  H   UNL     1       5.073  -0.633  28.423  0.00  0.00    +0.295 HD
ENDBRANCH  26  28
ENDBRANCH  25  26
BRANCH  25  30
ATOM     30  C   UNL     1       6.721  -2.181  25.822  0.00  0.00    +0.078 C 
BRANCH  30  31
ATOM     31  C   UNL     1       6.902  -0.748  25.382  0.00  0.00    -0.044 A 
ATOM     32  C   UNL     1       6.407  -0.291  24.153  0.00  0.00    +0.004 A 
ATOM     33  C   UNL     1       6.457   1.066  23.834  0.00  0.00    +0.000 A 
ATOM     34  C   UNL     1       7.026   1.973  24.725  0.00  0.00    +0.000 A 
ATOM     35  C   UNL     1       7.580   1.520  25.919  0.00  0.00    +0.000 A 
ATOM     36  C   UNL     1       7.525   0.167  26.242  0.00  0.00    +0.004 A 
ENDBRANCH  30  31
ENDBRANCH  25  30
ENDBRANCH  24  25
ENDBRANCH  20  24
ENDBRANCH  19  20
ENDBRANCH   2  19
TORSDOF 14
ENDMDL
MODEL 2
REMARK VINA RESULT:      -6.3      2.011      3.128
REMARK  Name = 
REMARK  15 active torsions:
REMARK  status: ('A' for Active; 'I' for Inactive)
REMARK    1  A    between atoms: C_2  and  C_3
REMARK    2  A    between atoms: C_2  and  N_4
REMARK    3  A    between atoms: C_2  and  C_15
REMARK    4  A    between atoms: C_5  and  O_7
REMARK    5  A    between atoms: O_7  and  C_8
REMARK    6  A    between atoms: C_8  and  C_9
REMARK    7  A    between atoms: N_17  and  C_18
REMARK    8  A    between atoms: C_18  and  P_19
REMARK    9  A    between atoms: P_19  and  O_20
REMARK   10  A    between atoms: P_19  and  O_22
REMARK   11  A    between atoms: O_22  and  C_23
REMARK   12  A    between atoms: C_23  and  C_25
REMARK   13  A    between atoms: C_23  and  C_32
REMARK   14  A    between atoms: C_25  and  C_26
REMARK   15  A    between atoms: C_32  and  O_33
REMARK                            x       y       z     vdW  Elec       q    Type
REMARK                         _______ _______ _______ _____ _____    ______ ____
ROOT
ATOM      1  C   UNL     1       7.427  -4.566  26.089  0.00  0.00    +0.234 C 
ATOM      2  N   UNL     1       6.426  -3.661  25.834  0.00  0.00    -0.303 N 
ATOM      3  H   UNL     1       6.227  -3.372  24.882  0.00  0.00    +0.149 HD
ATOM      4  O   UNL     1       7.669  -4.973  27.224  0.00  0.00    -0.274 OA
ENDROOT
BRANCH   1   5
ATOM      5  C   UNL     1       8.381  -4.850  24.911  0.00  0.00    +0.159 C 
ATOM      6  C   UNL     1       9.636  -5.539  25.434  0.00  0.00    +0.038 C 
BRANCH   5   7
ATOM      7  N   UNL     1       8.725  -3.643  24.167  0.00  0.00    -0.270 N 
ATOM      8  H   UNL     1       9.561  -3.114  24.372  0.00  0.00    +0.153 HD
ATOM      9  C   UNL     1       8.038  -3.288  23.042  0.00  0.00    +0.401 C 
ATOM     10  O   UNL     1       7.042  -3.861  22.627  0.00  0.00    -0.226 OA
BRANCH   9  11
ATOM     11  O   UNL     1       8.677  -2.270  22.419  0.00  0.00    -0.446 OA
BRANCH  11  12
ATOM     12  C   UNL     1       9.879  -1.831  23.065  0.00  0.00    +0.269 C 
BRANCH  12  13
ATOM     13  C   UNL     1      10.028  -0.332  23.038  0.00  0.00    -0.010 A 
ATOM     14  C   UNL     1       9.736   0.389  21.871  0.00  0.00    +0.007 A 
ATOM     15  C   UNL     1       9.937   1.770  21.823  0.00  0.00    +0.000 A 
ATOM     16  C   UNL     1      10.421   2.446  22.941  0.00  0.00    +0.000 A 
ATOM     17  C   UNL     1      10.699   1.742  24.112  0.00  0.00    +0.000 A 
ATOM     18  C   UNL     1      10.499   0.361  24.162  0.00  0.00    +0.007 A 
ENDBRANCH  12  13
ENDBRANCH  11  12
ENDBRANCH   9  11
ENDBRANCH   5   7
ENDBRANCH   1   5
BRANCH   2  19
ATOM     19  C   UNL     1       5.495  -3.278  26.881  0.00  0.00    +0.231 C 
BRANCH  19  20
ATOM     20  P   UNL     1       5.177  -1.398  26.820  0.00  0.00    +0.348 P 
ATOM     21  O   UNL     1       3.872  -1.157  26.052  0.00  0.00    -0.257 OA
BRANCH  20  22
ATOM     22  O   UNL     1       4.235  -1.514  28.267  0.00  0.00    -0.323 OA
ATOM     23  H   UNL     1       4.876  -1.464  29.008  0.00  0.00    +0.220 HD
ENDBRANCH  20  22
BRANCH  20  24
ATOM     24  O   UNL     1       6.120  -1.283  25.374  0.00  0.00    -0.292 OA
BRANCH  24  25
ATOM     25  C   UNL     1       7.100  -0.231  25.497  0.00  0.00    +0.240 C 
BRANCH  25  26
ATOM     26  C   UNL     1       8.123  -0.592  26.571  0.00  0.00    +0.335 C 
ATOM     27  O   UNL     1       8.747  -1.641  26.618  0.00  0.00    -0.248 OA
BRANCH  26  28
ATOM     28  O   UNL     1       8.208   0.357  27.536  0.00  0.00    -0.479 OA
ATOM     29  H   UNL     1       8.117  -0.067  28.419  0.00  0.00    +0.295 HD
ENDBRANCH  26  28
ENDBRANCH  25  26
BRANCH  25  30
ATOM     30  C   UNL     1       6.477   1.165  25.716  0.00  0.00    +0.078 C 
BRANCH  30  31
ATOM     31  C   UNL     1       6.770   2.148  24.609  0.00  0.00    -0.044 A 
ATOM     32  C   UNL     1       6.407   1.885  23.282  0.00  0.00    +0.004 A 
ATOM     33  C   UNL     1       6.555   2.868  22.302  0.00  0.00    +0.000 A 
ATOM     34  C   UNL     1       7.092   4.110  22.634  0.00  0.00    +0.000 A 
ATOM     35  C   UNL     1       7.516   4.358  23.937  0.00  0.00    +0.000 A 
ATOM     36  C   UNL     1       7.363   3.380  24.916  0.00  0.00    +0.004 A 
ENDBRANCH  30  31
ENDBRANCH  25  30
ENDBRANCH  24  25
ENDBRANCH  20  24
ENDBRANCH  19  20
ENDBRANCH   2  19
TORSDOF 14
ENDMDL
MODEL 3
REMARK VINA RESULT:      -6.2      2.001      4.447
REMARK  Name = 
REMARK  15 active torsions:
REMARK  status: ('A' for Active; 'I' for Inactive)
REMARK    1  A    between atoms: C_2  and  C_3
REMARK    2  A    between atoms: C_2  and  N_4
REMARK    3  A    between atoms: C_2  and  C_15
REMARK    4  A    between atoms: C_5  and  O_7
REMARK    5  A    between atoms: O_7  and  C_8
REMARK    6  A    between atoms: C_8  and  C_9
REMARK    7  A    between atoms: N_17  and  C_18
REMARK    8  A    between atoms: C_18  and  P_19
REMARK    9  A    between atoms: P_19  and  O_20
REMARK   10  A    between atoms: P_19  and  O_22
REMARK   11  A    between atoms: O_22  and  C_23
REMARK   12  A    between atoms: C_23  and  C_25
REMARK   13  A    between atoms: C_23  and  C_32
REMARK   14  A    between atoms: C_25  and  C_26
REMARK   15  A    between atoms: C_32  and  O_33
REMARK                            x       y       z     vdW  Elec       q    Type
REMARK                         _______ _______ _______ _____ _____    ______ ____
ROOT
ATOM      1  C   UNL     1       3.860  -4.821  24.107  0.00  0.00    +0.234 C 
ATOM      2  N   UNL     1       5.066  -5.443  24.315  0.00  0.00    -0.303 N 
ATOM      3  H   UNL     1       5.446  -5.523  25.252  0.00  0.00    +0.149 HD
ATOM      4  O   UNL     1       3.347  -4.742  22.992  0.00  0.00    -0.274 OA
ENDROOT
BRANCH   1   5
ATOM      5  C   UNL     1       3.312  -4.017  25.305  0.00  0.00    +0.159 C 
ATOM      6  C   UNL     1       1.789  -4.009  25.251  0.00  0.00    +0.038 C 
BRANCH   5   7
ATOM      7  N   UNL     1       3.836  -2.656  25.351  0.00  0.00    -0.270 N 
ATOM      8  H   UNL     1       3.328  -1.878  24.955  0.00  0.00    +0.153 HD
ATOM      9  C   UNL     1       4.938  -2.349  26.097  0.00  0.00    +0.401 C 
ATOM     10  O   UNL     1       5.626  -3.168  26.686  0.00  0.00    -0.226 OA
BRANCH   9  11
ATOM     11  O   UNL     1       5.092  -1.006  26.153  0.00  0.00    -0.446 OA
BRANCH  11  12
ATOM     12  C   UNL     1       6.441  -0.565  26.361  0.00  0.00    +0.269 C 
BRANCH  12  13
ATOM     13  C   UNL     1       6.850   0.502  25.379  0.00  0.00    -0.010 A 
ATOM     14  C   UNL     1       7.759   1.502  25.755  0.00  0.00    +0.007 A 
ATOM     15  C   UNL     1       8.088   2.530  24.869  0.00  0.00    +0.000 A 
ATOM     16  C   UNL     1       7.522   2.564  23.595  0.00  0.00    +0.000 A 
ATOM     17  C   UNL     1       6.631   1.566  23.205  0.00  0.00    +0.000 A 
ATOM     18  C   UNL     1       6.300   0.538  24.090  0.00  0.00    +0.007 A 
ENDBRANCH  12  13
ENDBRANCH  11  12
ENDBRANCH   9  11
ENDBRANCH   5   7
ENDBRANCH   1   5
BRANCH   2  19
ATOM     19  C   UNL     1       5.704  -6.190  23.245  0.00  0.00    +0.231 C 
BRANCH  19  20
ATOM     20  P   UNL     1       6.963  -5.083  22.334  0.00  0.00    +0.348 P 
ATOM     21  O   UNL     1       7.582  -5.899  21.193  0.00  0.00    -0.257 OA
BRANCH  20  22
ATOM     22  O   UNL     1       5.725  -4.590  21.230  0.00  0.00    -0.323 OA
ATOM     23  H   UNL     1       6.193  -4.238  20.442  0.00  0.00    +0.220 HD
ENDBRANCH  20  22
BRANCH  20  24
ATOM     24  O   UNL     1       8.200  -5.575  23.438  0.00  0.00    -0.292 OA
BRANCH  24  25
ATOM     25  C   UNL     1       8.657  -4.448  24.215  0.00  0.00    +0.240 C 
BRANCH  25  26
ATOM     26  C   UNL     1       8.645  -4.798  25.701  0.00  0.00    +0.335 C 
ATOM     27  O   UNL     1       9.611  -4.721  26.445  0.00  0.00    -0.248 OA
BRANCH  26  28
ATOM     28  O   UNL     1       7.449  -5.295  26.100  0.00  0.00    -0.479 OA
ATOM     29  H   UNL     1       7.462  -6.276  26.027  0.00  0.00    +0.295 HD
ENDBRANCH  26  28
ENDBRANCH  25  26
BRANCH  25  30
ATOM     30  C   UNL     1       7.892  -3.142  23.908  0.00  0.00    +0.078 C 
BRANCH  30  31
ATOM     31  C   UNL     1       8.768  -2.025  23.393  0.00  0.00    -0.044 A 
ATOM     32  C   UNL     1       8.669  -1.566  22.073  0.00  0.00    +0.004 A 
ATOM     33  C   UNL     1       9.383  -0.439  21.663  0.00  0.00    +0.000 A 
ATOM     34  C   UNL     1      10.222   0.220  22.558  0.00  0.00    +0.000 A 
ATOM     35  C   UNL     1      10.378  -0.267  23.853  0.00  0.00    +0.000 A 
ATOM     36  C   UNL     1       9.661  -1.388  24.265  0.00  0.00    +0.004 A 
ENDBRANCH  30  31
ENDBRANCH  25  30
ENDBRANCH  24  25
ENDBRANCH  20  24
ENDBRANCH  19  20
ENDBRANCH   2  19
TORSDOF 14
ENDMDL
MODEL 4
REMARK VINA RESULT:      -6.2      1.944      4.354
REMARK  Name = 
REMARK  15 active torsions:
REMARK  status: ('A' for Active; 'I' for Inactive)
REMARK    1  A    between atoms: C_2  and  C_3
REMARK    2  A    between atoms: C_2  and  N_4
REMARK    3  A    between atoms: C_2  and  C_15
REMARK    4  A    between atoms: C_5  and  O_7
REMARK    5  A    between atoms: O_7  and  C_8
REMARK    6  A    between atoms: C_8  and  C_9
REMARK    7  A    between atoms: N_17  and  C_18
REMARK    8  A    between atoms: C_18  and  P_19
REMARK    9  A    between atoms: P_19  and  O_20
REMARK   10  A    between atoms: P_19  and  O_22
REMARK   11  A    between atoms: O_22  and  C_23
REMARK   12  A    between atoms: C_23  and  C_25
REMARK   13  A    between atoms: C_23  and  C_32
REMARK   14  A    between atoms: C_25  and  C_26
REMARK   15  A    between atoms: C_32  and  O_33
REMARK                            x       y       z     vdW  Elec       q    Type
REMARK                         _______ _______ _______ _____ _____    ______ ____
ROOT
ATOM      1  C   UNL     1       5.233  -3.925  25.416  0.00  0.00    +0.234 C 
ATOM      2  N   UNL     1       6.425  -4.174  26.051  0.00  0.00    -0.303 N 
ATOM      3  H   UNL     1       6.602  -3.795  26.975  0.00  0.00    +0.149 HD
ATOM      4  O   UNL     1       4.965  -4.402  24.314  0.00  0.00    -0.274 OA
ENDROOT
BRANCH   1   5
ATOM      5  C   UNL     1       4.362  -2.821  26.049  0.00  0.00    +0.159 C 
ATOM      6  C   UNL     1       2.892  -3.136  25.801  0.00  0.00    +0.038 C 
BRANCH   5   7
ATOM      7  N   UNL     1       4.698  -1.490  25.553  0.00  0.00    -0.270 N 
ATOM      8  H   UNL     1       4.146  -1.035  24.841  0.00  0.00    +0.153 HD
ATOM      9  C   UNL     1       5.652  -0.730  26.166  0.00  0.00    +0.401 C 
ATOM     10  O   UNL     1       6.364  -1.114  27.081  0.00  0.00    -0.226 OA
BRANCH   9  11
ATOM     11  O   UNL     1       5.625   0.527  25.665  0.00  0.00    -0.446 OA
BRANCH  11  12
ATOM     12  C   UNL     1       6.891   1.203  25.670  0.00  0.00    +0.269 C 
BRANCH  12  13
ATOM     13  C   UNL     1       6.998   2.222  24.566  0.00  0.00    -0.010 A 
ATOM     14  C   UNL     1       7.537   3.491  24.821  0.00  0.00    +0.007 A 
ATOM     15  C   UNL     1       7.577   4.460  23.816  0.00  0.00    +0.000 A 
ATOM     16  C   UNL     1       7.089   4.168  22.544  0.00  0.00    +0.000 A 
ATOM     17  C   UNL     1       6.566   2.904  22.274  0.00  0.00    +0.000 A 
ATOM     18  C   UNL     1       6.526   1.935  23.278  0.00  0.00    +0.007 A 
ENDBRANCH  12  13
ENDBRANCH  11  12
ENDBRANCH   9  11
ENDBRANCH   5   7
ENDBRANCH   1   5
BRANCH   2  19
ATOM     19  C   UNL     1       7.351  -5.159  25.519  0.00  0.00    +0.231 C 
BRANCH  19  20
ATOM     20  P   UNL     1       9.093  -4.398  25.353  0.00  0.00    +0.348 P 
ATOM     21  O   UNL     1       9.004  -2.912  25.720  0.00  0.00    -0.257 OA
BRANCH  20  22
ATOM     22  O   UNL     1       9.394  -4.732  27.024  0.00  0.00    -0.323 OA
ATOM     23  H   UNL     1       8.686  -4.270  27.522  0.00  0.00    +0.220 HD
ENDBRANCH  20  22
BRANCH  20  24
ATOM     24  O   UNL     1       8.792  -4.065  23.683  0.00  0.00    -0.292 OA
BRANCH  24  25
ATOM     25  C   UNL     1       8.631  -2.646  23.474  0.00  0.00    +0.240 C 
BRANCH  25  26
ATOM     26  C   UNL     1       7.271  -2.362  22.840  0.00  0.00    +0.335 C 
ATOM     27  O   UNL     1       6.606  -1.355  23.035  0.00  0.00    -0.248 OA
BRANCH  26  28
ATOM     28  O   UNL     1       6.830  -3.401  22.090  0.00  0.00    -0.479 OA
ATOM     29  H   UNL     1       5.855  -3.484  22.190  0.00  0.00    +0.295 HD
ENDBRANCH  26  28
ENDBRANCH  25  26
BRANCH  25  30
ATOM     30  C   UNL     1       9.797  -2.006  22.689  0.00  0.00    +0.078 C 
BRANCH  30  31
ATOM     31  C   UNL     1       9.941  -0.520  22.909  0.00  0.00    -0.044 A 
ATOM     32  C   UNL     1      10.326   0.002  24.152  0.00  0.00    +0.004 A 
ATOM     33  C   UNL     1      10.595   1.364  24.291  0.00  0.00    +0.000 A 
ATOM     34  C   UNL     1      10.454   2.219  23.201  0.00  0.00    +0.000 A 
ATOM     35  C   UNL     1      10.009   1.722  21.980  0.00  0.00    +0.000 A 
ATOM     36  C   UNL     1       9.747   0.361  21.837  0.00  0.00    +0.004 A 
ENDBRANCH  30  31
ENDBRANCH  25  30
ENDBRANCH  24  25
ENDBRANCH  20  24
ENDBRANCH  19  20
ENDBRANCH   2  19
TORSDOF 14
ENDMDL
MODEL 5
REMARK VINA RESULT:      -6.0      2.377      3.748
REMARK  Name = 
REMARK  15 active torsions:
REMARK  status: ('A' for Active; 'I' for Inactive)
REMARK    1  A    between atoms: C_2  and  C_3
REMARK    2  A    between atoms: C_2  and  N_4
REMARK    3  A    between atoms: C_2  and  C_15
REMARK    4  A    between atoms: C_5  and  O_7
REMARK    5  A    between atoms: O_7  and  C_8
REMARK    6  A    between atoms: C_8  and  C_9
REMARK    7  A    between atoms: N_17  and  C_18
REMARK    8  A    between atoms: C_18  and  P_19
REMARK    9  A    between atoms: P_19  and  O_20
REMARK   10  A    between atoms: P_19  and  O_22
REMARK   11  A    between atoms: O_22  and  C_23
REMARK   12  A    between atoms: C_23  and  C_25
REMARK   13  A    between atoms: C_23  and  C_32
REMARK   14  A    between atoms: C_25  and  C_26
REMARK   15  A    between atoms: C_32  and  O_33
REMARK                            x       y       z     vdW  Elec       q    Type
REMARK                         _______ _______ _______ _____ _____    ______ ____
ROOT
ATOM      1  C   UNL     1       5.394  -4.590  22.933  0.00  0.00    +0.234 C 
ATOM      2  N   UNL     1       5.080  -5.556  23.858  0.00  0.00    -0.303 N 
ATOM      3  H   UNL     1       5.785  -6.218  24.165  0.00  0.00    +0.149 HD
ATOM      4  O   UNL     1       4.580  -3.744  22.567  0.00  0.00    -0.274 OA
ENDROOT
BRANCH   1   5
ATOM      5  C   UNL     1       6.740  -4.781  22.204  0.00  0.00    +0.159 C 
ATOM      6  C   UNL     1       7.025  -6.271  22.055  0.00  0.00    +0.038 C 
BRANCH   5   7
ATOM      7  N   UNL     1       7.844  -4.109  22.883  0.00  0.00    -0.270 N 
ATOM      8  H   UNL     1       8.520  -4.621  23.432  0.00  0.00    +0.153 HD
ATOM      9  C   UNL     1       8.118  -2.793  22.648  0.00  0.00    +0.401 C 
ATOM     10  O   UNL     1       7.432  -2.053  21.960  0.00  0.00    -0.226 OA
BRANCH   9  11
ATOM     11  O   UNL     1       9.302  -2.465  23.217  0.00  0.00    -0.446 OA
BRANCH  11  12
ATOM     12  C   UNL     1      10.176  -1.694  22.381  0.00  0.00    +0.269 C 
BRANCH  12  13
ATOM     13  C   UNL     1      10.187  -0.235  22.759  0.00  0.00    -0.010 A 
ATOM     14  C   UNL     1      10.467   0.156  24.076  0.00  0.00    +0.007 A 
ATOM     15  C   UNL     1      10.411   1.502  24.443  0.00  0.00    +0.000 A 
ATOM     16  C   UNL     1      10.087   2.472  23.497  0.00  0.00    +0.000 A 
ATOM     17  C   UNL     1       9.824   2.098  22.180  0.00  0.00    +0.000 A 
ATOM     18  C   UNL     1       9.878   0.752  21.812  0.00  0.00    +0.007 A 
ENDBRANCH  12  13
ENDBRANCH  11  12
ENDBRANCH   9  11
ENDBRANCH   5   7
ENDBRANCH   1   5
BRANCH   2  19
ATOM     19  C   UNL     1       3.817  -5.508  24.572  0.00  0.00    +0.231 C 
BRANCH  19  20
ATOM     20  P   UNL     1       3.496  -7.173  25.447  0.00  0.00    +0.348 P 
ATOM     21  O   UNL     1       1.984  -7.429  25.451  0.00  0.00    -0.257 OA
BRANCH  20  22
ATOM     22  O   UNL     1       3.569  -7.986  23.921  0.00  0.00    -0.323 OA
ATOM     23  H   UNL     1       2.650  -8.267  23.723  0.00  0.00    +0.220 HD
ENDBRANCH  20  22
BRANCH  20  24
ATOM     24  O   UNL     1       3.423  -6.362  26.973  0.00  0.00    -0.292 OA
BRANCH  24  25
ATOM     25  C   UNL     1       4.753  -6.121  27.478  0.00  0.00    +0.240 C 
BRANCH  25  26
ATOM     26  C   UNL     1       5.048  -7.059  28.646  0.00  0.00    +0.335 C 
ATOM     27  O   UNL     1       6.166  -7.378  29.021  0.00  0.00    -0.248 OA
BRANCH  26  28
ATOM     28  O   UNL     1       3.916  -7.579  29.182  0.00  0.00    -0.479 OA
ATOM     29  H   UNL     1       3.524  -6.929  29.808  0.00  0.00    +0.295 HD
ENDBRANCH  26  28
ENDBRANCH  25  26
BRANCH  25  30
ATOM     30  C   UNL     1       5.017  -4.639  27.826  0.00  0.00    +0.078 C 
BRANCH  30  31
ATOM     31  C   UNL     1       6.268  -4.075  27.198  0.00  0.00    -0.044 A 
ATOM     32  C   UNL     1       6.391  -2.709  26.910  0.00  0.00    +0.004 A 
ATOM     33  C   UNL     1       7.608  -2.189  26.468  0.00  0.00    +0.000 A 
ATOM     34  C   UNL     1       8.701  -3.031  26.281  0.00  0.00    +0.000 A 
ATOM     35  C   UNL     1       8.571  -4.399  26.500  0.00  0.00    +0.000 A 
ATOM     36  C   UNL     1       7.359  -4.919  26.949  0.00  0.00    +0.004 A 
ENDBRANCH  30  31
ENDBRANCH  25  30
ENDBRANCH  24  25
ENDBRANCH  20  24
ENDBRANCH  19  20
ENDBRANCH   2  19
TORSDOF 14
ENDMDL
MODEL 6
REMARK VINA RESULT:      -6.0      2.382      4.567
REMARK  Name = 
REMARK  15 active torsions:
REMARK  status: ('A' for Active; 'I' for Inactive)
REMARK    1  A    between atoms: C_2  and  C_3
REMARK    2  A    between atoms: C_2  and  N_4
REMARK    3  A    between atoms: C_2  and  C_15
REMARK    4  A    between atoms: C_5  and  O_7
REMARK    5  A    between atoms: O_7  and  C_8
REMARK    6  A    between atoms: C_8  and  C_9
REMARK    7  A    between atoms: N_17  and  C_18
REMARK    8  A    between atoms: C_18  and  P_19
REMARK    9  A    between atoms: P_19  and  O_20
REMARK   10  A    between atoms: P_19  and  O_22
REMARK   11  A    between atoms: O_22  and  C_23
REMARK   12  A    between atoms: C_23  and  C_25
REMARK   13  A    between atoms: C_23  and  C_32
REMARK   14  A    between atoms: C_25  and  C_26
REMARK   15  A    between atoms: C_32  and  O_33
REMARK                            x       y       z     vdW  Elec       q    Type
REMARK                         _______ _______ _______ _____ _____    ______ ____
ROOT
ATOM      1  C   UNL     1       8.875  -3.784  25.126  0.00  0.00    +0.234 C 
ATOM      2  N   UNL     1       7.717  -4.156  25.764  0.00  0.00    -0.303 N 
ATOM      3  H   UNL     1       7.007  -3.464  25.979  0.00  0.00    +0.149 HD
ATOM      4  O   UNL     1       9.741  -4.600  24.811  0.00  0.00    -0.274 OA
ENDROOT
BRANCH   1   5
ATOM      5  C   UNL     1       9.135  -2.265  25.053  0.00  0.00    +0.159 C 
ATOM      6  C   UNL     1       8.549  -1.595  26.290  0.00  0.00    +0.038 C 
BRANCH   5   7
ATOM      7  N   UNL     1       8.600  -1.665  23.836  0.00  0.00    -0.270 N 
ATOM      8  H   UNL     1       7.698  -1.211  23.820  0.00  0.00    +0.153 HD
ATOM      9  C   UNL     1       9.375  -1.523  22.720  0.00  0.00    +0.401 C 
ATOM     10  O   UNL     1      10.508  -1.963  22.602  0.00  0.00    -0.226 OA
BRANCH   9  11
ATOM     11  O   UNL     1       8.731  -0.751  21.813  0.00  0.00    -0.446 OA
BRANCH  11  12
ATOM     12  C   UNL     1       9.510   0.331  21.285  0.00  0.00    +0.269 C 
BRANCH  12  13
ATOM     13  C   UNL     1       9.271   1.621  22.026  0.00  0.00    -0.010 A 
ATOM     14  C   UNL     1      10.237   2.121  22.911  0.00  0.00    +0.007 A 
ATOM     15  C   UNL     1       9.989   3.281  23.648  0.00  0.00    +0.000 A 
ATOM     16  C   UNL     1       8.780   3.959  23.501  0.00  0.00    +0.000 A 
ATOM     17  C   UNL     1       7.820   3.481  22.611  0.00  0.00    +0.000 A 
ATOM     18  C   UNL     1       8.066   2.321  21.873  0.00  0.00    +0.007 A 
ENDBRANCH  12  13
ENDBRANCH  11  12
ENDBRANCH   9  11
ENDBRANCH   5   7
ENDBRANCH   1   5
BRANCH   2  19
ATOM     19  C   UNL     1       7.389  -5.560  25.936  0.00  0.00    +0.231 C 
BRANCH  19  20
ATOM     20  P   UNL     1       5.761  -5.738  26.915  0.00  0.00    +0.348 P 
ATOM     21  O   UNL     1       5.947  -6.845  27.958  0.00  0.00    -0.257 OA
BRANCH  20  22
ATOM     22  O   UNL     1       6.349  -4.612  28.090  0.00  0.00    -0.323 OA
ATOM     23  H   UNL     1       6.393  -5.108  28.936  0.00  0.00    +0.220 HD
ENDBRANCH  20  22
BRANCH  20  24
ATOM     24  O   UNL     1       5.173  -6.862  25.739  0.00  0.00    -0.292 OA
BRANCH  24  25
ATOM     25  C   UNL     1       3.843  -6.495  25.314  0.00  0.00    +0.240 C 
BRANCH  25  26
ATOM     26  C   UNL     1       2.824  -7.489  25.866  0.00  0.00    +0.335 C 
ATOM     27  O   UNL     1       2.159  -7.319  26.877  0.00  0.00    -0.248 OA
BRANCH  26  28
ATOM     28  O   UNL     1       2.794  -8.641  25.152  0.00  0.00    -0.479 OA
ATOM     29  H   UNL     1       1.934  -9.094  25.302  0.00  0.00    +0.295 HD
ENDBRANCH  26  28
ENDBRANCH  25  26
BRANCH  25  30
ATOM     30  C   UNL     1       3.719  -6.306  23.786  0.00  0.00    +0.078 C 
BRANCH  30  31
ATOM     31  C   UNL     1       4.824  -5.477  23.179  0.00  0.00    -0.044 A 
ATOM     32  C   UNL     1       5.905  -6.073  22.515  0.00  0.00    +0.004 A 
ATOM     33  C   UNL     1       6.836  -5.285  21.836  0.00  0.00    +0.000 A 
ATOM     34  C   UNL     1       6.712  -3.898  21.839  0.00  0.00    +0.000 A 
ATOM     35  C   UNL     1       5.679  -3.294  22.551  0.00  0.00    +0.000 A 
ATOM     36  C   UNL     1       4.746  -4.079  23.223  0.00  0.00    +0.004 A 
ENDBRANCH  30  31
ENDBRANCH  25  30
ENDBRANCH  24  25
ENDBRANCH  20  24
ENDBRANCH  19  20
ENDBRANCH   2  19
TORSDOF 14
ENDMDL
MODEL 7
REMARK VINA RESULT:      -5.9      2.562      4.622
REMARK  Name = 
REMARK  15 active torsions:
REMARK  status: ('A' for Active; 'I' for Inactive)
REMARK    1  A    between atoms: C_2  and  C_3
REMARK    2  A    between atoms: C_2  and  N_4
REMARK    3  A    between atoms: C_2  and  C_15
REMARK    4  A    between atoms: C_5  and  O_7
REMARK    5  A    between atoms: O_7  and  C_8
REMARK    6  A    between atoms: C_8  and  C_9
REMARK    7  A    between atoms: N_17  and  C_18
REMARK    8  A    between atoms: C_18  and  P_19
REMARK    9  A    between atoms: P_19  and  O_20
REMARK   10  A    between atoms: P_19  and  O_22
REMARK   11  A    between atoms: O_22  and  C_23
REMARK   12  A    between atoms: C_23  and  C_25
REMARK   13  A    between atoms: C_23  and  C_32
REMARK   14  A    between atoms: C_25  and  C_26
REMARK   15  A    between atoms: C_32  and  O_33
REMARK                            x       y       z     vdW  Elec       q    Type
REMARK                         _______ _______ _______ _____ _____    ______ ____
ROOT
ATOM      1  C   UNL     1       4.076  -2.221  28.166  0.00  0.00    +0.234 C 
ATOM      2  N   UNL     1       5.075  -3.100  27.827  0.00  0.00    -0.303 N 
ATOM      3  H   UNL     1       6.021  -2.766  27.674  0.00  0.00    +0.149 HD
ATOM      4  O   UNL     1       2.928  -2.593  28.400  0.00  0.00    -0.274 OA
ENDROOT
BRANCH   1   5
ATOM      5  C   UNL     1       4.420  -0.727  27.995  0.00  0.00    +0.159 C 
ATOM      6  C   UNL     1       3.239  -0.009  27.354  0.00  0.00    +0.038 C 
BRANCH   5   7
ATOM      7  N   UNL     1       5.637  -0.519  27.217  0.00  0.00    -0.270 N 
ATOM      8  H   UNL     1       5.751  -0.914  26.295  0.00  0.00    +0.153 HD
ATOM      9  C   UNL     1       6.588   0.374  27.621  0.00  0.00    +0.401 C 
ATOM     10  O   UNL     1       6.565   0.978  28.682  0.00  0.00    -0.226 OA
BRANCH   9  11
ATOM     11  O   UNL     1       7.500   0.546  26.636  0.00  0.00    -0.446 OA
BRANCH  11  12
ATOM     12  C   UNL     1       6.957   1.001  25.389  0.00  0.00    +0.269 C 
BRANCH  12  13
ATOM     13  C   UNL     1       8.027   1.469  24.438  0.00  0.00    -0.010 A 
ATOM     14  C   UNL     1       7.692   1.884  23.140  0.00  0.00    +0.007 A 
ATOM     15  C   UNL     1       8.689   2.255  22.236  0.00  0.00    +0.000 A 
ATOM     16  C   UNL     1      10.029   2.225  22.620  0.00  0.00    +0.000 A 
ATOM     17  C   UNL     1      10.372   1.831  23.911  0.00  0.00    +0.000 A 
ATOM     18  C   UNL     1       9.377   1.460  24.818  0.00  0.00    +0.007 A 
ENDBRANCH  12  13
ENDBRANCH  11  12
ENDBRANCH   9  11
ENDBRANCH   5   7
ENDBRANCH   1   5
BRANCH   2  19
ATOM     19  C   UNL     1       4.852  -4.534  27.900  0.00  0.00    +0.231 C 
BRANCH  19  20
ATOM     20  P   UNL     1       6.306  -5.466  27.091  0.00  0.00    +0.348 P 
ATOM     21  O   UNL     1       7.143  -6.109  28.204  0.00  0.00    -0.257 OA
BRANCH  20  22
ATOM     22  O   UNL     1       5.355  -6.911  27.053  0.00  0.00    -0.323 OA
ATOM     23  H   UNL     1       4.424  -6.615  26.952  0.00  0.00    +0.220 HD
ENDBRANCH  20  22
BRANCH  20  24
ATOM     24  O   UNL     1       7.258  -4.022  27.128  0.00  0.00    -0.292 OA
BRANCH  24  25
ATOM     25  C   UNL     1       7.992  -3.871  25.895  0.00  0.00    +0.240 C 
BRANCH  25  26
ATOM     26  C   UNL     1       9.133  -4.883  25.838  0.00  0.00    +0.335 C 
ATOM     27  O   UNL     1       9.393  -5.590  24.877  0.00  0.00    -0.248 OA
BRANCH  26  28
ATOM     28  O   UNL     1       9.790  -4.979  27.020  0.00  0.00    -0.479 OA
ATOM     29  H   UNL     1      10.743  -5.154  26.850  0.00  0.00    +0.295 HD
ENDBRANCH  26  28
ENDBRANCH  25  26
BRANCH  25  30
ATOM     30  C   UNL     1       8.468  -2.424  25.639  0.00  0.00    +0.078 C 
BRANCH  30  31
ATOM     31  C   UNL     1       8.763  -2.123  24.189  0.00  0.00    -0.044 A 
ATOM     32  C   UNL     1       7.734  -1.971  23.250  0.00  0.00    +0.004 A 
ATOM     33  C   UNL     1       8.022  -1.549  21.952  0.00  0.00    +0.000 A 
ATOM     34  C   UNL     1       9.340  -1.305  21.572  0.00  0.00    +0.000 A 
ATOM     35  C   UNL     1      10.375  -1.517  22.479  0.00  0.00    +0.000 A 
ATOM     36  C   UNL     1      10.088  -1.931  23.777  0.00  0.00    +0.004 A 
ENDBRANCH  30  31
ENDBRANCH  25  30
ENDBRANCH  24  25
ENDBRANCH  20  24
ENDBRANCH  19  20
ENDBRANCH   2  19
TORSDOF 14
ENDMDL
MODEL 8
REMARK VINA RESULT:      -5.7      2.246      4.668
REMARK  Name = 
REMARK  15 active torsions:
REMARK  status: ('A' for Active; 'I' for Inactive)
REMARK    1  A    between atoms: C_2  and  C_3
REMARK    2  A    between atoms: C_2  and  N_4
REMARK    3  A    between atoms: C_2  and  C_15
REMARK    4  A    between atoms: C_5  and  O_7
REMARK    5  A    between atoms: O_7  and  C_8
REMARK    6  A    between atoms: C_8  and  C_9
REMARK    7  A    between atoms: N_17  and  C_18
REMARK    8  A    between atoms: C_18  and  P_19
REMARK    9  A    between atoms: P_19  and  O_20
REMARK   10  A    between atoms: P_19  and  O_22
REMARK   11  A    between atoms: O_22  and  C_23
REMARK   12  A    between atoms: C_23  and  C_25
REMARK   13  A    between atoms: C_23  and  C_32
REMARK   14  A    between atoms: C_25  and  C_26
REMARK   15  A    between atoms: C_32  and  O_33
REMARK                            x       y       z     vdW  Elec       q    Type
REMARK                         _______ _______ _______ _____ _____    ______ ____
ROOT
ATOM      1  C   UNL     1       3.646  -2.979  26.063  0.00  0.00    +0.234 C 
ATOM      2  N   UNL     1       4.609  -3.954  26.158  0.00  0.00    -0.303 N 
ATOM      3  H   UNL     1       5.314  -3.907  26.886  0.00  0.00    +0.149 HD
ATOM      4  O   UNL     1       2.750  -3.023  25.222  0.00  0.00    -0.274 OA
ENDROOT
BRANCH   1   5
ATOM      5  C   UNL     1       3.898  -1.712  26.907  0.00  0.00    +0.159 C 
ATOM      6  C   UNL     1       2.579  -0.980  27.122  0.00  0.00    +0.038 C 
BRANCH   5   7
ATOM      7  N   UNL     1       4.889  -0.827  26.303  0.00  0.00    -0.270 N 
ATOM      8  H   UNL     1       4.956  -0.710  25.302  0.00  0.00    +0.153 HD
ATOM      9  C   UNL     1       5.635   0.022  27.069  0.00  0.00    +0.401 C 
ATOM     10  O   UNL     1       5.624   0.045  28.290  0.00  0.00    -0.226 OA
BRANCH   9  11
ATOM     11  O   UNL     1       6.313   0.880  26.272  0.00  0.00    -0.446 OA
BRANCH  11  12
ATOM     12  C   UNL     1       5.867   0.911  24.909  0.00  0.00    +0.269 C 
BRANCH  12  13
ATOM     13  C   UNL     1       6.874   1.558  23.994  0.00  0.00    -0.010 A 
ATOM     14  C   UNL     1       6.904   1.236  22.629  0.00  0.00    +0.007 A 
ATOM     15  C   UNL     1       7.879   1.784  21.793  0.00  0.00    +0.000 A 
ATOM     16  C   UNL     1       8.826   2.668  22.308  0.00  0.00    +0.000 A 
ATOM     17  C   UNL     1       8.795   3.009  23.658  0.00  0.00    +0.000 A 
ATOM     18  C   UNL     1       7.822   2.461  24.497  0.00  0.00    +0.007 A 
ENDBRANCH  12  13
ENDBRANCH  11  12
ENDBRANCH   9  11
ENDBRANCH   5   7
ENDBRANCH   1   5
BRANCH   2  19
ATOM     19  C   UNL     1       4.504  -5.172  25.374  0.00  0.00    +0.231 C 
BRANCH  19  20
ATOM     20  P   UNL     1       5.525  -5.008  23.770  0.00  0.00    +0.348 P 
ATOM     21  O   UNL     1       5.482  -6.353  23.035  0.00  0.00    -0.257 OA
BRANCH  20  22
ATOM     22  O   UNL     1       4.094  -4.558  22.908  0.00  0.00    -0.323 OA
ATOM     23  H   UNL     1       4.373  -4.424  21.977  0.00  0.00    +0.220 HD
ENDBRANCH  20  22
BRANCH  20  24
ATOM     24  O   UNL     1       6.957  -5.457  24.632  0.00  0.00    -0.292 OA
BRANCH  24  25
ATOM     25  C   UNL     1       7.993  -4.472  24.432  0.00  0.00    +0.240 C 
BRANCH  25  26
ATOM     26  C   UNL     1       9.080  -4.635  25.491  0.00  0.00    +0.335 C 
ATOM     27  O   UNL     1       8.933  -4.413  26.684  0.00  0.00    -0.248 OA
BRANCH  26  28
ATOM     28  O   UNL     1      10.275  -4.977  24.949  0.00  0.00    -0.479 OA
ATOM     29  H   UNL     1      11.000  -4.656  25.531  0.00  0.00    +0.295 HD
ENDBRANCH  26  28
ENDBRANCH  25  26
BRANCH  25  30
ATOM     30  C   UNL     1       7.456  -3.026  24.351  0.00  0.00    +0.078 C 
BRANCH  30  31
ATOM     31  C   UNL     1       8.499  -2.005  23.968  0.00  0.00    -0.044 A 
ATOM     32  C   UNL     1       9.088  -1.167  24.924  0.00  0.00    +0.004 A 
ATOM     33  C   UNL     1      10.153  -0.336  24.573  0.00  0.00    +0.000 A 
ATOM     34  C   UNL     1      10.618  -0.313  23.260  0.00  0.00    +0.000 A 
ATOM     35  C   UNL     1       9.996  -1.093  22.289  0.00  0.00    +0.000 A 
ATOM     36  C   UNL     1       8.938  -1.928  22.640  0.00  0.00    +0.004 A 
ENDBRANCH  30  31
ENDBRANCH  25  30
ENDBRANCH  24  25
ENDBRANCH  20  24
ENDBRANCH  19  20
ENDBRANCH   2  19
TORSDOF 14
ENDMDL
MODEL 9
REMARK VINA RESULT:      -5.7      1.875      4.871
REMARK  Name = 
REMARK  15 active torsions:
REMARK  status: ('A' for Active; 'I' for Inactive)
REMARK    1  A    between atoms: C_2  and  C_3
REMARK    2  A    between atoms: C_2  and  N_4
REMARK    3  A    between atoms: C_2  and  C_15
REMARK    4  A    between atoms: C_5  and  O_7
REMARK    5  A    between atoms: O_7  and  C_8
REMARK    6  A    between atoms: C_8  and  C_9
REMARK    7  A    between atoms: N_17  and  C_18
REMARK    8  A    between atoms: C_18  and  P_19
REMARK    9  A    between atoms: P_19  and  O_20
REMARK   10  A    between atoms: P_19  and  O_22
REMARK   11  A    between atoms: O_22  and  C_23
REMARK   12  A    between atoms: C_23  and  C_25
REMARK   13  A    between atoms: C_23  and  C_32
REMARK   14  A    between atoms: C_25  and  C_26
REMARK   15  A    between atoms: C_32  and  O_33
REMARK                            x       y       z     vdW  Elec       q    Type
REMARK                         _______ _______ _______ _____ _____    ______ ____
ROOT
ATOM      1  C   UNL     1       5.303  -3.790  26.553  0.00  0.00    +0.234 C 
ATOM      2  N   UNL     1       6.619  -3.835  26.163  0.00  0.00    -0.303 N 
ATOM      3  H   UNL     1       7.228  -3.040  26.325  0.00  0.00    +0.149 HD
ATOM      4  O   UNL     1       4.544  -4.748  26.412  0.00  0.00    -0.274 OA
ENDROOT
BRANCH   1   5
ATOM      5  C   UNL     1       4.775  -2.395  26.947  0.00  0.00    +0.159 C 
ATOM      6  C   UNL     1       3.263  -2.462  27.126  0.00  0.00    +0.038 C 
BRANCH   5   7
ATOM      7  N   UNL     1       5.137  -1.366  25.978  0.00  0.00    -0.270 N 
ATOM      8  H   UNL     1       4.715  -1.328  25.062  0.00  0.00    +0.153 HD
ATOM      9  C   UNL     1       5.915  -0.303  26.337  0.00  0.00    +0.401 C 
ATOM     10  O   UNL     1       6.450  -0.171  27.427  0.00  0.00    -0.226 OA
BRANCH   9  11
ATOM     11  O   UNL     1       5.926   0.612  25.339  0.00  0.00    -0.446 OA
BRANCH  11  12
ATOM     12  C   UNL     1       6.443   0.131  24.091  0.00  0.00    +0.269 C 
BRANCH  12  13
ATOM     13  C   UNL     1       7.652   0.906  23.637  0.00  0.00    -0.010 A 
ATOM     14  C   UNL     1       7.978   0.982  22.275  0.00  0.00    +0.007 A 
ATOM     15  C   UNL     1       9.135   1.644  21.859  0.00  0.00    +0.000 A 
ATOM     16  C   UNL     1       9.972   2.246  22.797  0.00  0.00    +0.000 A 
ATOM     17  C   UNL     1       9.650   2.192  24.151  0.00  0.00    +0.000 A 
ATOM     18  C   UNL     1       8.494   1.530  24.570  0.00  0.00    +0.007 A 
ENDBRANCH  12  13
ENDBRANCH  11  12
ENDBRANCH   9  11
ENDBRANCH   5   7
ENDBRANCH   1   5
BRANCH   2  19
ATOM     19  C   UNL     1       7.215  -5.085  25.724  0.00  0.00    +0.231 C 
BRANCH  19  20
ATOM     20  P   UNL     1       8.990  -4.779  25.095  0.00  0.00    +0.348 P 
ATOM     21  O   UNL     1       9.821  -4.222  26.256  0.00  0.00    -0.257 OA
BRANCH  20  22
ATOM     22  O   UNL     1       9.443  -6.368  25.610  0.00  0.00    -0.323 OA
ATOM     23  H   UNL     1       8.894  -6.987  25.082  0.00  0.00    +0.220 HD
ENDBRANCH  20  22
BRANCH  20  24
ATOM     24  O   UNL     1       8.537  -3.191  24.578  0.00  0.00    -0.292 OA
BRANCH  24  25
ATOM     25  C   UNL     1       8.944  -2.972  23.211  0.00  0.00    +0.240 C 
BRANCH  25  26
ATOM     26  C   UNL     1      10.027  -1.897  23.154  0.00  0.00    +0.335 C 
ATOM     27  O   UNL     1      10.396  -1.225  24.105  0.00  0.00    -0.248 OA
BRANCH  26  28
ATOM     28  O   UNL     1      10.486  -1.700  21.893  0.00  0.00    -0.479 OA
ATOM     29  H   UNL     1      11.047  -0.892  21.873  0.00  0.00    +0.295 HD
ENDBRANCH  26  28
ENDBRANCH  25  26
BRANCH  25  30
ATOM     30  C   UNL     1       7.763  -2.676  22.260  0.00  0.00    +0.078 C 
BRANCH  30  31
ATOM     31  C   UNL     1       6.676  -3.722  22.290  0.00  0.00    -0.044 A 
ATOM     32  C   UNL     1       6.910  -5.034  21.854  0.00  0.00    +0.004 A 
ATOM     33  C   UNL     1       5.936  -6.018  22.028  0.00  0.00    +0.000 A 
ATOM     34  C   UNL     1       4.712  -5.696  22.609  0.00  0.00    +0.000 A 
ATOM     35  C   UNL     1       4.445  -4.382  22.985  0.00  0.00    +0.000 A 
ATOM     36  C   UNL     1       5.419  -3.400  22.819  0.00  0.00    +0.004 A 
ENDBRANCH  30  31
ENDBRANCH  25  30
ENDBRANCH  24  25
ENDBRANCH  20  24
ENDBRANCH  19  20
ENDBRANCH   2  19
TORSDOF 14
ENDMDL
