MODEL 1
REMARK VINA RESULT:      -7.2      0.000      0.000
REMARK  Name = 
REMARK  5 active torsions:
REMARK  status: ('A' for Active; 'I' for Inactive)
REMARK    1  A    between atoms: C_1  and  N_2
REMARK    2  A    between atoms: N_2  and  C_3
REMARK    3  A    between atoms: N_2  and  C_4
REMARK    4  A    between atoms: C_4  and  C_5
REMARK    5  A    between atoms: N_7  and  C_8
REMARK                            x       y       z     vdW  Elec       q    Type
REMARK                         _______ _______ _______ _____ _____    ______ ____
ROOT
ATOM      1  C   UNL     1       7.450  -3.353  22.893  0.00  0.00    +0.034 A 
ATOM      2  C   UNL     1       6.847  -3.954  21.787  0.00  0.00    +0.025 A 
ATOM      3  C   UNL     1       5.932  -4.999  21.967  0.00  0.00    +0.028 A 
ATOM      4  C   UNL     1       5.632  -5.451  23.256  0.00  0.00    +0.050 A 
ATOM      5  N   UNL     1       4.727  -6.509  23.416  0.00  0.00    -0.322 N 
ATOM      6  H   UNL     1       4.289  -6.932  22.610  0.00  0.00    +0.169 HD
ATOM      7  C   UNL     1       4.380  -7.052  24.629  0.00  0.00    +0.257 A 
ATOM      8  C   UNL     1       5.000  -6.468  25.851  0.00  0.00    +0.047 A 
ATOM      9  C   UNL     1       5.899  -5.394  25.729  0.00  0.00    -0.004 A 
ATOM     10  C   UNL     1       6.443  -4.872  26.920  0.00  0.00    +0.009 A 
ATOM     11  C   UNL     1       6.119  -5.407  28.171  0.00  0.00    +0.001 A 
ATOM     12  C   UNL     1       5.236  -6.475  28.264  0.00  0.00    +0.001 A 
ATOM     13  C   UNL     1       4.673  -7.006  27.105  0.00  0.00    +0.014 A 
ATOM     14  O   UNL     1       3.586  -7.986  24.699  0.00  0.00    -0.267 OA
ATOM     15  C   UNL     1       6.229  -4.877  24.386  0.00  0.00    +0.008 A 
ATOM     16  C   UNL     1       7.139  -3.830  24.170  0.00  0.00    +0.034 A 
ENDROOT
BRANCH   1  18
ATOM     17  C   UNL     1       9.672  -2.239  23.152  0.00  0.00    +0.231 C 
ATOM     18  N   UNL     1       8.365  -2.298  22.686  0.00  0.00    -0.284 N 
ATOM     19  H   UNL     1       8.025  -1.441  22.259  0.00  0.00    +0.155 HD
ATOM     20  O   UNL     1      10.231  -3.060  23.875  0.00  0.00    -0.274 OA
BRANCH  17  21
ATOM     21  C   UNL     1      10.438  -1.012  22.662  0.00  0.00    +0.180 C 
BRANCH  21  23
ATOM     22  C   UNL     1      10.679   0.715  24.351  0.00  0.00    +0.105 C 
ATOM     23  N   UNL     1       9.879   0.248  23.207  0.00  0.00    -0.300 NA
ATOM     24  C   UNL     1       9.926   1.267  22.148  0.00  0.00    +0.105 C 
ENDBRANCH  21  23
ENDBRANCH  17  21
ENDBRANCH   1  18
TORSDOF 3
ENDMDL
MODEL 2
REMARK VINA RESULT:      -6.8      3.274      8.090
REMARK  Name = 
REMARK  5 active torsions:
REMARK  status: ('A' for Active; 'I' for Inactive)
REMARK    1  A    between atoms: C_1  and  N_2
REMARK    2  A    between atoms: N_2  and  C_3
REMARK    3  A    between atoms: N_2  and  C_4
REMARK    4  A    between atoms: C_4  and  C_5
REMARK    5  A    between atoms: N_7  and  C_8
REMARK                            x       y       z     vdW  Elec       q    Type
REMARK                         _______ _______ _______ _____ _____    ______ ____
ROOT
ATOM      1  C   UNL     1       8.529  -0.959  23.038  0.00  0.00    +0.034 A 
ATOM      2  C   UNL     1       9.398  -0.570  22.017  0.00  0.00    +0.025 A 
ATOM      3  C   UNL     1       9.871   0.747  21.960  0.00  0.00    +0.028 A 
ATOM      4  C   UNL     1       9.462   1.679  22.918  0.00  0.00    +0.050 A 
ATOM      5  N   UNL     1       9.932   2.996  22.836  0.00  0.00    -0.322 N 
ATOM      6  H   UNL     1      10.568   3.266  22.098  0.00  0.00    +0.169 HD
ATOM      7  C   UNL     1       9.575   4.000  23.704  0.00  0.00    +0.257 A 
ATOM      8  C   UNL     1       8.637   3.658  24.809  0.00  0.00    +0.047 A 
ATOM      9  C   UNL     1       8.159   2.342  24.932  0.00  0.00    -0.004 A 
ATOM     10  C   UNL     1       7.286   2.072  26.005  0.00  0.00    +0.009 A 
ATOM     11  C   UNL     1       6.894   3.072  26.901  0.00  0.00    +0.001 A 
ATOM     12  C   UNL     1       7.372   4.368  26.752  0.00  0.00    +0.001 A 
ATOM     13  C   UNL     1       8.246   4.663  25.707  0.00  0.00    +0.014 A 
ATOM     14  O   UNL     1      10.018   5.138  23.569  0.00  0.00    -0.267 OA
ATOM     15  C   UNL     1       8.581   1.324  23.949  0.00  0.00    +0.008 A 
ATOM     16  C   UNL     1       8.129  -0.004  23.979  0.00  0.00    +0.034 A 
ENDROOT
BRANCH   1  18
ATOM     17  C   UNL     1       8.734  -3.374  23.642  0.00  0.00    +0.231 C 
ATOM     18  N   UNL     1       8.071  -2.293  23.077  0.00  0.00    -0.284 N 
ATOM     19  H   UNL     1       7.236  -2.532  22.548  0.00  0.00    +0.155 HD
ATOM     20  O   UNL     1       9.855  -3.368  24.145  0.00  0.00    -0.274 OA
BRANCH  17  21
ATOM     21  C   UNL     1       7.920  -4.667  23.619  0.00  0.00    +0.180 C 
BRANCH  21  23
ATOM     22  C   UNL     1       7.097  -5.723  21.594  0.00  0.00    +0.105 C 
ATOM     23  N   UNL     1       6.871  -4.646  22.571  0.00  0.00    -0.300 NA
ATOM     24  C   UNL     1       5.569  -4.860  23.220  0.00  0.00    +0.105 C 
ENDBRANCH  21  23
ENDBRANCH  17  21
ENDBRANCH   1  18
TORSDOF 3
ENDMDL
MODEL 3
REMARK VINA RESULT:      -6.6      3.458      5.339
REMARK  Name = 
REMARK  5 active torsions:
REMARK  status: ('A' for Active; 'I' for Inactive)
REMARK    1  A    between atoms: C_1  and  N_2
REMARK    2  A    between atoms: N_2  and  C_3
REMARK    3  A    between atoms: N_2  and  C_4
REMARK    4  A    between atoms: C_4  and  C_5
REMARK    5  A    between atoms: N_7  and  C_8
REMARK                            x       y       z     vdW  Elec       q    Type
REMARK                         _______ _______ _______ _____ _____    ______ ____
ROOT
ATOM      1  C   UNL     1       7.678   0.396  23.735  0.00  0.00    +0.034 A 
ATOM      2  C   UNL     1       8.640   0.334  24.744  0.00  0.00    +0.025 A 
ATOM      3  C   UNL     1       9.175  -0.902  25.129  0.00  0.00    +0.028 A 
ATOM      4  C   UNL     1       8.735  -2.077  24.512  0.00  0.00    +0.050 A 
ATOM      5  N   UNL     1       9.269  -3.306  24.921  0.00  0.00    -0.322 N 
ATOM      6  H   UNL     1       9.973  -3.341  25.647  0.00  0.00    +0.169 HD
ATOM      7  C   UNL     1       8.892  -4.522  24.407  0.00  0.00    +0.257 A 
ATOM      8  C   UNL     1       7.856  -4.530  23.337  0.00  0.00    +0.047 A 
ATOM      9  C   UNL     1       7.311  -3.314  22.889  0.00  0.00    -0.004 A 
ATOM     10  C   UNL     1       6.345  -3.380  21.865  0.00  0.00    +0.009 A 
ATOM     11  C   UNL     1       5.931  -4.603  21.325  0.00  0.00    +0.001 A 
ATOM     12  C   UNL     1       6.477  -5.791  21.792  0.00  0.00    +0.001 A 
ATOM     13  C   UNL     1       7.443  -5.757  22.797  0.00  0.00    +0.014 A 
ATOM     14  O   UNL     1       9.395  -5.565  24.818  0.00  0.00    -0.267 OA
ATOM     15  C   UNL     1       7.762  -2.049  23.505  0.00  0.00    +0.008 A 
ATOM     16  C   UNL     1       7.248  -0.795  23.141  0.00  0.00    +0.034 A 
ENDROOT
BRANCH   1  18
ATOM     17  C   UNL     1       7.639   2.476  22.351  0.00  0.00    +0.231 C 
ATOM     18  N   UNL     1       7.157   1.654  23.361  0.00  0.00    -0.284 N 
ATOM     19  H   UNL     1       6.437   2.071  23.945  0.00  0.00    +0.155 HD
ATOM     20  O   UNL     1       8.633   2.281  21.656  0.00  0.00    -0.274 OA
BRANCH  17  21
ATOM     21  C   UNL     1       6.786   3.723  22.122  0.00  0.00    +0.180 C 
BRANCH  21  23
ATOM     22  C   UNL     1       7.396   6.067  21.963  0.00  0.00    +0.105 C 
ATOM     23  N   UNL     1       7.311   4.900  22.855  0.00  0.00    -0.300 NA
ATOM     24  C   UNL     1       6.383   5.209  23.953  0.00  0.00    +0.105 C 
ENDBRANCH  21  23
ENDBRANCH  17  21
ENDBRANCH   1  18
TORSDOF 3
ENDMDL
MODEL 4
REMARK VINA RESULT:      -6.6      1.824      3.001
REMARK  Name = 
REMARK  5 active torsions:
REMARK  status: ('A' for Active; 'I' for Inactive)
REMARK    1  A    between atoms: C_1  and  N_2
REMARK    2  A    between atoms: N_2  and  C_3
REMARK    3  A    between atoms: N_2  and  C_4
REMARK    4  A    between atoms: C_4  and  C_5
REMARK    5  A    between atoms: N_7  and  C_8
REMARK                            x       y       z     vdW  Elec       q    Type
REMARK                         _______ _______ _______ _____ _____    ______ ____
ROOT
ATOM      1  C   UNL     1       7.978  -2.301  24.334  0.00  0.00    +0.034 A 
ATOM      2  C   UNL     1       8.627  -2.444  25.562  0.00  0.00    +0.025 A 
ATOM      3  C   UNL     1       8.245  -3.464  26.443  0.00  0.00    +0.028 A 
ATOM      4  C   UNL     1       7.204  -4.332  26.099  0.00  0.00    +0.050 A 
ATOM      5  N   UNL     1       6.825  -5.336  27.000  0.00  0.00    -0.322 N 
ATOM      6  H   UNL     1       7.306  -5.438  27.883  0.00  0.00    +0.169 HD
ATOM      7  C   UNL     1       5.801  -6.225  26.780  0.00  0.00    +0.257 A 
ATOM      8  C   UNL     1       5.056  -6.118  25.495  0.00  0.00    +0.047 A 
ATOM      9  C   UNL     1       5.420  -5.134  24.561  0.00  0.00    -0.004 A 
ATOM     10  C   UNL     1       4.690  -5.087  23.357  0.00  0.00    +0.009 A 
ATOM     11  C   UNL     1       3.634  -5.971  23.104  0.00  0.00    +0.001 A 
ATOM     12  C   UNL     1       3.287  -6.928  24.049  0.00  0.00    +0.001 A 
ATOM     13  C   UNL     1       3.998  -7.005  25.245  0.00  0.00    +0.014 A 
ATOM     14  O   UNL     1       5.514  -7.077  27.617  0.00  0.00    -0.267 OA
ATOM     15  C   UNL     1       6.526  -4.207  24.880  0.00  0.00    +0.008 A 
ATOM     16  C   UNL     1       6.934  -3.177  24.019  0.00  0.00    +0.034 A 
ENDROOT
BRANCH   1  18
ATOM     17  C   UNL     1       9.497  -1.283  22.632  0.00  0.00    +0.231 C 
ATOM     18  N   UNL     1       8.384  -1.268  23.462  0.00  0.00    -0.284 N 
ATOM     19  H   UNL     1       7.900  -0.376  23.512  0.00  0.00    +0.155 HD
ATOM     20  O   UNL     1      10.350  -2.164  22.562  0.00  0.00    -0.274 OA
BRANCH  17  21
ATOM     21  C   UNL     1       9.598  -0.056  21.727  0.00  0.00    +0.180 C 
BRANCH  21  23
ATOM     22  C   UNL     1      10.210   2.138  22.565  0.00  0.00    +0.105 C 
ATOM     23  N   UNL     1       9.112   1.173  22.398  0.00  0.00    -0.300 NA
ATOM     24  C   UNL     1       8.073   1.779  21.552  0.00  0.00    +0.105 C 
ENDBRANCH  21  23
ENDBRANCH  17  21
ENDBRANCH   1  18
TORSDOF 3
ENDMDL
MODEL 5
REMARK VINA RESULT:      -6.6      2.996      8.307
REMARK  Name = 
REMARK  5 active torsions:
REMARK  status: ('A' for Active; 'I' for Inactive)
REMARK    1  A    between atoms: C_1  and  N_2
REMARK    2  A    between atoms: N_2  and  C_3
REMARK    3  A    between atoms: N_2  and  C_4
REMARK    4  A    between atoms: C_4  and  C_5
REMARK    5  A    between atoms: N_7  and  C_8
REMARK                            x       y       z     vdW  Elec       q    Type
REMARK                         _______ _______ _______ _____ _____    ______ ____
ROOT
ATOM      1  C   UNL     1       8.801  -1.618  22.979  0.00  0.00    +0.034 A 
ATOM      2  C   UNL     1      10.143  -1.507  23.349  0.00  0.00    +0.025 A 
ATOM      3  C   UNL     1      10.702  -0.245  23.591  0.00  0.00    +0.028 A 
ATOM      4  C   UNL     1       9.920   0.905  23.448  0.00  0.00    +0.050 A 
ATOM      5  N   UNL     1      10.500   2.159  23.679  0.00  0.00    -0.322 N 
ATOM      6  H   UNL     1      11.470   2.230  23.956  0.00  0.00    +0.169 HD
ATOM      7  C   UNL     1       9.838   3.354  23.542  0.00  0.00    +0.257 A 
ATOM      8  C   UNL     1       8.407   3.309  23.133  0.00  0.00    +0.047 A 
ATOM      9  C   UNL     1       7.787   2.067  22.910  0.00  0.00    -0.004 A 
ATOM     10  C   UNL     1       6.427   2.084  22.538  0.00  0.00    +0.009 A 
ATOM     11  C   UNL     1       5.725   3.283  22.380  0.00  0.00    +0.001 A 
ATOM     12  C   UNL     1       6.363   4.498  22.596  0.00  0.00    +0.001 A 
ATOM     13  C   UNL     1       7.704   4.514  22.975  0.00  0.00    +0.014 A 
ATOM     14  O   UNL     1      10.410   4.421  23.751  0.00  0.00    -0.267 OA
ATOM     15  C   UNL     1       8.574   0.827  23.066  0.00  0.00    +0.008 A 
ATOM     16  C   UNL     1       8.045  -0.451  22.834  0.00  0.00    +0.034 A 
ENDROOT
BRANCH   1  18
ATOM     17  C   UNL     1       7.933  -3.844  23.710  0.00  0.00    +0.231 C 
ATOM     18  N   UNL     1       8.260  -2.900  22.745  0.00  0.00    -0.284 N 
ATOM     19  H   UNL     1       8.202  -3.233  21.786  0.00  0.00    +0.155 HD
ATOM     20  O   UNL     1       8.118  -3.751  24.921  0.00  0.00    -0.274 OA
BRANCH  17  21
ATOM     21  C   UNL     1       7.262  -5.092  23.139  0.00  0.00    +0.180 C 
BRANCH  21  23
ATOM     22  C   UNL     1       6.133  -5.811  21.114  0.00  0.00    +0.105 C 
ATOM     23  N   UNL     1       6.223  -4.756  22.135  0.00  0.00    -0.300 NA
ATOM     24  C   UNL     1       4.931  -4.654  22.827  0.00  0.00    +0.105 C 
ENDBRANCH  21  23
ENDBRANCH  17  21
ENDBRANCH   1  18
TORSDOF 3
ENDMDL
MODEL 6
REMARK VINA RESULT:      -6.5      2.486      4.264
REMARK  Name = 
REMARK  5 active torsions:
REMARK  status: ('A' for Active; 'I' for Inactive)
REMARK    1  A    between atoms: C_1  and  N_2
REMARK    2  A    between atoms: N_2  and  C_3
REMARK    3  A    between atoms: N_2  and  C_4
REMARK    4  A    between atoms: C_4  and  C_5
REMARK    5  A    between atoms: N_7  and  C_8
REMARK                            x       y       z     vdW  Elec       q    Type
REMARK                         _______ _______ _______ _____ _____    ______ ____
ROOT
ATOM      1  C   UNL     1       8.605  -0.372  24.534  0.00  0.00    +0.034 A 
ATOM      2  C   UNL     1       8.760  -0.528  25.913  0.00  0.00    +0.025 A 
ATOM      3  C   UNL     1       8.369  -1.722  26.533  0.00  0.00    +0.028 A 
ATOM      4  C   UNL     1       7.811  -2.754  25.773  0.00  0.00    +0.050 A 
ATOM      5  N   UNL     1       7.411  -3.935  26.413  0.00  0.00    -0.322 N 
ATOM      6  H   UNL     1       7.535  -4.042  27.411  0.00  0.00    +0.169 HD
ATOM      7  C   UNL     1       6.826  -5.000  25.774  0.00  0.00    +0.257 A 
ATOM      8  C   UNL     1       6.616  -4.895  24.304  0.00  0.00    +0.047 A 
ATOM      9  C   UNL     1       7.022  -3.732  23.626  0.00  0.00    -0.004 A 
ATOM     10  C   UNL     1       6.811  -3.692  22.233  0.00  0.00    +0.009 A 
ATOM     11  C   UNL     1       6.210  -4.756  21.551  0.00  0.00    +0.001 A 
ATOM     12  C   UNL     1       5.809  -5.890  22.246  0.00  0.00    +0.001 A 
ATOM     13  C   UNL     1       6.013  -5.963  23.622  0.00  0.00    +0.014 A 
ATOM     14  O   UNL     1       6.490  -6.004  26.398  0.00  0.00    -0.267 OA
ATOM     15  C   UNL     1       7.631  -2.624  24.390  0.00  0.00    +0.008 A 
ATOM     16  C   UNL     1       8.035  -1.417  23.799  0.00  0.00    +0.034 A 
ENDROOT
BRANCH   1  18
ATOM     17  C   UNL     1      10.312   1.309  23.827  0.00  0.00    +0.231 C 
ATOM     18  N   UNL     1       9.010   0.838  23.931  0.00  0.00    -0.284 N 
ATOM     19  H   UNL     1       8.293   1.498  23.643  0.00  0.00    +0.155 HD
ATOM     20  O   UNL     1      11.322   0.788  24.294  0.00  0.00    -0.274 OA
BRANCH  17  21
ATOM     21  C   UNL     1      10.430   2.600  23.019  0.00  0.00    +0.180 C 
BRANCH  21  23
ATOM     22  C   UNL     1      11.822   4.561  23.350  0.00  0.00    +0.105 C 
ATOM     23  N   UNL     1      10.697   3.776  23.882  0.00  0.00    -0.300 NA
ATOM     24  C   UNL     1       9.493   4.620  23.894  0.00  0.00    +0.105 C 
ENDBRANCH  21  23
ENDBRANCH  17  21
ENDBRANCH   1  18
TORSDOF 3
ENDMDL
MODEL 7
REMARK VINA RESULT:      -6.4      3.017      7.928
REMARK  Name = 
REMARK  5 active torsions:
REMARK  status: ('A' for Active; 'I' for Inactive)
REMARK    1  A    between atoms: C_1  and  N_2
REMARK    2  A    between atoms: N_2  and  C_3
REMARK    3  A    between atoms: N_2  and  C_4
REMARK    4  A    between atoms: C_4  and  C_5
REMARK    5  A    between atoms: N_7  and  C_8
REMARK                            x       y       z     vdW  Elec       q    Type
REMARK                         _______ _______ _______ _____ _____    ______ ____
ROOT
ATOM      1  C   UNL     1       8.357  -2.514  24.922  0.00  0.00    +0.034 A 
ATOM      2  C   UNL     1       9.367  -2.745  23.987  0.00  0.00    +0.025 A 
ATOM      3  C   UNL     1      10.074  -1.668  23.436  0.00  0.00    +0.028 A 
ATOM      4  C   UNL     1       9.758  -0.359  23.811  0.00  0.00    +0.050 A 
ATOM      5  N   UNL     1      10.464   0.706  23.237  0.00  0.00    -0.322 N 
ATOM      6  H   UNL     1      11.201   0.529  22.567  0.00  0.00    +0.169 HD
ATOM      7  C   UNL     1      10.222   2.030  23.509  0.00  0.00    +0.257 A 
ATOM      8  C   UNL     1       9.145   2.349  24.487  0.00  0.00    +0.047 A 
ATOM      9  C   UNL     1       8.427   1.305  25.096  0.00  0.00    -0.004 A 
ATOM     10  C   UNL     1       7.429   1.665  26.023  0.00  0.00    +0.009 A 
ATOM     11  C   UNL     1       7.149   3.004  26.316  0.00  0.00    +0.001 A 
ATOM     12  C   UNL     1       7.865   4.018  25.693  0.00  0.00    +0.001 A 
ATOM     13  C   UNL     1       8.865   3.693  24.779  0.00  0.00    +0.014 A 
ATOM     14  O   UNL     1      10.873   2.917  22.962  0.00  0.00    -0.267 OA
ATOM     15  C   UNL     1       8.742  -0.093  24.738  0.00  0.00    +0.008 A 
ATOM     16  C   UNL     1       8.055  -1.194  25.273  0.00  0.00    +0.034 A 
ENDROOT
BRANCH   1  18
ATOM     17  C   UNL     1       8.126  -4.470  26.458  0.00  0.00    +0.231 C 
ATOM     18  N   UNL     1       7.663  -3.615  25.467  0.00  0.00    -0.284 N 
ATOM     19  H   UNL     1       6.790  -3.899  25.031  0.00  0.00    +0.155 HD
ATOM     20  O   UNL     1       9.237  -4.455  26.982  0.00  0.00    -0.274 OA
BRANCH  17  21
ATOM     21  C   UNL     1       7.089  -5.498  26.909  0.00  0.00    +0.180 C 
BRANCH  21  23
ATOM     22  C   UNL     1       5.289  -4.419  28.129  0.00  0.00    +0.105 C 
ATOM     23  N   UNL     1       6.540  -5.184  28.250  0.00  0.00    -0.300 NA
ATOM     24  C   UNL     1       6.255  -6.452  28.938  0.00  0.00    +0.105 C 
ENDBRANCH  21  23
ENDBRANCH  17  21
ENDBRANCH   1  18
TORSDOF 3
ENDMDL
MODEL 8
REMARK VINA RESULT:      -6.2      3.907      9.191
REMARK  Name = 
REMARK  5 active torsions:
REMARK  status: ('A' for Active; 'I' for Inactive)
REMARK    1  A    between atoms: C_1  and  N_2
REMARK    2  A    between atoms: N_2  and  C_3
REMARK    3  A    between atoms: N_2  and  C_4
REMARK    4  A    between atoms: C_4  and  C_5
REMARK    5  A    between atoms: N_7  and  C_8
REMARK                            x       y       z     vdW  Elec       q    Type
REMARK                         _______ _______ _______ _____ _____    ______ ____
ROOT
ATOM      1  C   UNL     1       8.163   0.170  23.822  0.00  0.00    +0.034 A 
ATOM      2  C   UNL     1       6.831   0.511  24.065  0.00  0.00    +0.025 A 
ATOM      3  C   UNL     1       6.458   1.858  24.162  0.00  0.00    +0.028 A 
ATOM      4  C   UNL     1       7.421   2.862  24.030  0.00  0.00    +0.050 A 
ATOM      5  N   UNL     1       7.033   4.203  24.146  0.00  0.00    -0.322 N 
ATOM      6  H   UNL     1       6.064   4.441  24.313  0.00  0.00    +0.169 HD
ATOM      7  C   UNL     1       7.895   5.268  24.062  0.00  0.00    +0.257 A 
ATOM      8  C   UNL     1       9.335   4.975  23.820  0.00  0.00    +0.047 A 
ATOM      9  C   UNL     1       9.759   3.642  23.680  0.00  0.00    -0.004 A 
ATOM     10  C   UNL     1      11.130   3.424  23.439  0.00  0.00    +0.009 A 
ATOM     11  C   UNL     1      12.038   4.485  23.357  0.00  0.00    +0.001 A 
ATOM     12  C   UNL     1      11.596   5.793  23.509  0.00  0.00    +0.001 A 
ATOM     13  C   UNL     1      10.244   6.041  23.738  0.00  0.00    +0.014 A 
ATOM     14  O   UNL     1       7.489   6.421  24.183  0.00  0.00    -0.267 OA
ATOM     15  C   UNL     1       8.768   2.552  23.798  0.00  0.00    +0.008 A 
ATOM     16  C   UNL     1       9.108   1.194  23.703  0.00  0.00    +0.034 A 
ENDROOT
BRANCH   1  18
ATOM     17  C   UNL     1       8.778  -2.053  24.782  0.00  0.00    +0.231 C 
ATOM     18  N   UNL     1       8.513  -1.193  23.724  0.00  0.00    -0.284 N 
ATOM     19  H   UNL     1       8.710  -1.576  22.803  0.00  0.00    +0.155 HD
ATOM     20  O   UNL     1       8.815  -1.760  25.974  0.00  0.00    -0.274 OA
BRANCH  17  21
ATOM     21  C   UNL     1       9.019  -3.497  24.347  0.00  0.00    +0.180 C 
BRANCH  21  23
ATOM     22  C   UNL     1       7.591  -5.179  23.335  0.00  0.00    +0.105 C 
ATOM     23  N   UNL     1       7.814  -4.342  24.525  0.00  0.00    -0.300 NA
ATOM     24  C   UNL     1       8.032  -5.216  25.686  0.00  0.00    +0.105 C 
ENDBRANCH  21  23
ENDBRANCH  17  21
ENDBRANCH   1  18
TORSDOF 3
ENDMDL
MODEL 9
REMARK VINA RESULT:      -6.2      3.630      9.400
REMARK  Name = 
REMARK  5 active torsions:
REMARK  status: ('A' for Active; 'I' for Inactive)
REMARK    1  A    between atoms: C_1  and  N_2
REMARK    2  A    between atoms: N_2  and  C_3
REMARK    3  A    between atoms: N_2  and  C_4
REMARK    4  A    between atoms: C_4  and  C_5
REMARK    5  A    between atoms: N_7  and  C_8
REMARK                            x       y       z     vdW  Elec       q    Type
REMARK                         _______ _______ _______ _____ _____    ______ ____
ROOT
ATOM      1  C   UNL     1       8.788   0.179  23.872  0.00  0.00    +0.034 A 
ATOM      2  C   UNL     1      10.166   0.070  24.066  0.00  0.00    +0.025 A 
ATOM      3  C   UNL     1      10.969   1.218  24.056  0.00  0.00    +0.028 A 
ATOM      4  C   UNL     1      10.392   2.473  23.838  0.00  0.00    +0.050 A 
ATOM      5  N   UNL     1      11.213   3.609  23.815  0.00  0.00    -0.322 N 
ATOM      6  H   UNL     1      12.210   3.522  23.965  0.00  0.00    +0.169 HD
ATOM      7  C   UNL     1      10.762   4.884  23.582  0.00  0.00    +0.257 A 
ATOM      8  C   UNL     1       9.302   5.070  23.350  0.00  0.00    +0.047 A 
ATOM      9  C   UNL     1       8.446   3.956  23.384  0.00  0.00    -0.004 A 
ATOM     10  C   UNL     1       7.073   4.192  23.172  0.00  0.00    +0.009 A 
ATOM     11  C   UNL     1       6.580   5.477  22.922  0.00  0.00    +0.001 A 
ATOM     12  C   UNL     1       7.448   6.561  22.884  0.00  0.00    +0.001 A 
ATOM     13  C   UNL     1       8.810   6.360  23.100  0.00  0.00    +0.014 A 
ATOM     14  O   UNL     1      11.538   5.836  23.566  0.00  0.00    -0.267 OA
ATOM     15  C   UNL     1       9.015   2.614  23.628  0.00  0.00    +0.008 A 
ATOM     16  C   UNL     1       8.238   1.445  23.647  0.00  0.00    +0.034 A 
ENDROOT
BRANCH   1  18
ATOM     17  C   UNL     1       7.968  -1.978  22.915  0.00  0.00    +0.231 C 
ATOM     18  N   UNL     1       7.999  -0.991  23.891  0.00  0.00    -0.284 N 
ATOM     19  H   UNL     1       7.296  -1.088  24.619  0.00  0.00    +0.155 HD
ATOM     20  O   UNL     1       8.569  -1.971  21.843  0.00  0.00    -0.274 OA
BRANCH  17  21
ATOM     21  C   UNL     1       7.093  -3.174  23.285  0.00  0.00    +0.180 C 
BRANCH  21  23
ATOM     22  C   UNL     1       7.789  -4.887  24.858  0.00  0.00    +0.105 C 
ATOM     23  N   UNL     1       7.889  -4.412  23.469  0.00  0.00    -0.300 NA
ATOM     24  C   UNL     1       7.345  -5.444  22.575  0.00  0.00    +0.105 C 
ENDBRANCH  21  23
ENDBRANCH  17  21
ENDBRANCH   1  18
TORSDOF 3
ENDMDL
