MODEL 1
REMARK VINA RESULT:      -4.5      0.000      0.000
REMARK  Name = 
REMARK  3 active torsions:
REMARK  status: ('A' for Active; 'I' for Inactive)
REMARK    1  A    between atoms: C_1  and  N_2
REMARK    2  A    between atoms: C_7  and  O_8
REMARK    3  A    between atoms: C_9  and  C_10
REMARK                            x       y       z     vdW  Elec       q    Type
REMARK                         _______ _______ _______ _____ _____    ______ ____
ROOT
ATOM      1  C   UNL     1       9.259   2.309  24.478  0.00  0.00    +0.148 C 
ATOM      2  N   UNL     1       9.418   0.863  24.271  0.00  0.00    -0.351 N 
ATOM      3  C   UNL     1       9.778   0.333  23.009  0.00  0.00    +0.061 A 
ATOM      4  C   UNL     1       9.960   1.286  21.851  0.00  0.00    +0.067 C 
ATOM      5  C   UNL     1       9.953  -0.993  22.822  0.00  0.00    +0.183 A 
ATOM      6  C   UNL     1       9.744  -1.920  23.975  0.00  0.00    +0.223 A 
ATOM      7  O   UNL     1       9.908  -3.129  23.827  0.00  0.00    -0.284 OA
ATOM      8  C   UNL     1       9.334  -1.341  25.265  0.00  0.00    +0.072 A 
ATOM      9  C   UNL     1       9.202  -0.013  25.329  0.00  0.00    +0.089 A 
ENDROOT
BRANCH   5  10
ATOM     10  O   UNL     1      10.320  -1.560  21.615  0.00  0.00    -0.502 OA
ATOM     11  H   UNL     1       9.497  -1.557  21.083  0.00  0.00    +0.292 HD
ENDBRANCH   5  10
TORSDOF 1
ENDMDL
MODEL 2
REMARK VINA RESULT:      -4.2      1.640      1.640
REMARK  Name = 
REMARK  3 active torsions:
REMARK  status: ('A' for Active; 'I' for Inactive)
REMARK    1  A    between atoms: C_1  and  N_2
REMARK    2  A    between atoms: C_7  and  O_8
REMARK    3  A    between atoms: C_9  and  C_10
REMARK                            x       y       z     vdW  Elec       q    Type
REMARK                         _______ _______ _______ _____ _____    ______ ____
ROOT
ATOM      1  C   UNL     1       6.897   0.980  23.005  0.00  0.00    +0.148 C 
ATOM      2  N   UNL     1       7.748  -0.190  23.266  0.00  0.00    -0.351 N 
ATOM      3  C   UNL     1       8.909  -0.445  22.497  0.00  0.00    +0.061 A 
ATOM      4  C   UNL     1       9.242   0.493  21.361  0.00  0.00    +0.067 C 
ATOM      5  C   UNL     1       9.708  -1.503  22.752  0.00  0.00    +0.183 A 
ATOM      6  C   UNL     1       9.347  -2.432  23.865  0.00  0.00    +0.223 A 
ATOM      7  O   UNL     1      10.066  -3.395  24.119  0.00  0.00    -0.284 OA
ATOM      8  C   UNL     1       8.113  -2.160  24.623  0.00  0.00    +0.072 A 
ATOM      9  C   UNL     1       7.409  -1.076  24.283  0.00  0.00    +0.089 A 
ENDROOT
BRANCH   5  10
ATOM     10  O   UNL     1      10.860  -1.788  22.042  0.00  0.00    -0.502 OA
ATOM     11  H   UNL     1      11.232  -2.579  22.485  0.00  0.00    +0.292 HD
ENDBRANCH   5  10
TORSDOF 1
ENDMDL
MODEL 3
REMARK VINA RESULT:      -4.2      4.444      5.712
REMARK  Name = 
REMARK  3 active torsions:
REMARK  status: ('A' for Active; 'I' for Inactive)
REMARK    1  A    between atoms: C_1  and  N_2
REMARK    2  A    between atoms: C_7  and  O_8
REMARK    3  A    between atoms: C_9  and  C_10
REMARK                            x       y       z     vdW  Elec       q    Type
REMARK                         _______ _______ _______ _____ _____    ______ ____
ROOT
ATOM      1  C   UNL     1       7.052  -3.719  22.930  0.00  0.00    +0.148 C 
ATOM      2  N   UNL     1       7.150  -4.335  24.261  0.00  0.00    -0.351 N 
ATOM      3  C   UNL     1       8.332  -4.243  25.033  0.00  0.00    +0.061 A 
ATOM      4  C   UNL     1       9.525  -3.526  24.443  0.00  0.00    +0.067 C 
ATOM      5  C   UNL     1       8.416  -4.783  26.268  0.00  0.00    +0.183 A 
ATOM      6  C   UNL     1       7.234  -5.508  26.822  0.00  0.00    +0.223 A 
ATOM      7  O   UNL     1       7.287  -5.999  27.947  0.00  0.00    -0.284 OA
ATOM      8  C   UNL     1       6.030  -5.619  25.979  0.00  0.00    +0.072 A 
ATOM      9  C   UNL     1       6.065  -5.035  24.778  0.00  0.00    +0.089 A 
ENDROOT
BRANCH   5  10
ATOM     10  O   UNL     1       9.541  -4.707  27.068  0.00  0.00    -0.502 OA
ATOM     11  H   UNL     1       9.189  -4.608  27.977  0.00  0.00    +0.292 HD
ENDBRANCH   5  10
TORSDOF 1
ENDMDL
MODEL 4
REMARK VINA RESULT:      -4.2      1.277      3.003
REMARK  Name = 
REMARK  3 active torsions:
REMARK  status: ('A' for Active; 'I' for Inactive)
REMARK    1  A    between atoms: C_1  and  N_2
REMARK    2  A    between atoms: C_7  and  O_8
REMARK    3  A    between atoms: C_9  and  C_10
REMARK                            x       y       z     vdW  Elec       q    Type
REMARK                         _______ _______ _______ _____ _____    ______ ____
ROOT
ATOM      1  C   UNL     1       8.680  -1.528  26.388  0.00  0.00    +0.148 C 
ATOM      2  N   UNL     1       9.091  -0.832  25.160  0.00  0.00    -0.351 N 
ATOM      3  C   UNL     1       9.545  -1.544  24.024  0.00  0.00    +0.061 A 
ATOM      4  C   UNL     1       9.642  -3.050  24.108  0.00  0.00    +0.067 C 
ATOM      5  C   UNL     1       9.896  -0.910  22.886  0.00  0.00    +0.183 A 
ATOM      6  C   UNL     1       9.816   0.581  22.833  0.00  0.00    +0.223 A 
ATOM      7  O   UNL     1      10.123   1.176  21.803  0.00  0.00    -0.284 OA
ATOM      8  C   UNL     1       9.375   1.295  24.044  0.00  0.00    +0.072 A 
ATOM      9  C   UNL     1       9.045   0.557  25.107  0.00  0.00    +0.089 A 
ENDROOT
BRANCH   5  10
ATOM     10  O   UNL     1      10.331  -1.558  21.744  0.00  0.00    -0.502 OA
ATOM     11  H   UNL     1      10.433  -2.494  22.018  0.00  0.00    +0.292 HD
ENDBRANCH   5  10
TORSDOF 1
ENDMDL
MODEL 5
REMARK VINA RESULT:      -4.1      2.294      3.911
REMARK  Name = 
REMARK  3 active torsions:
REMARK  status: ('A' for Active; 'I' for Inactive)
REMARK    1  A    between atoms: C_1  and  N_2
REMARK    2  A    between atoms: C_7  and  O_8
REMARK    3  A    between atoms: C_9  and  C_10
REMARK                            x       y       z     vdW  Elec       q    Type
REMARK                         _______ _______ _______ _____ _____    ______ ____
ROOT
ATOM      1  C   UNL     1       8.594  -3.119  23.739  0.00  0.00    +0.148 C 
ATOM      2  N   UNL     1       9.020  -1.768  23.347  0.00  0.00    -0.351 N 
ATOM      3  C   UNL     1       9.228  -0.751  24.309  0.00  0.00    +0.061 A 
ATOM      4  C   UNL     1       8.962  -1.068  25.763  0.00  0.00    +0.067 C 
ATOM      5  C   UNL     1       9.647   0.483  23.955  0.00  0.00    +0.183 A 
ATOM      6  C   UNL     1       9.880   0.781  22.510  0.00  0.00    +0.223 A 
ATOM      7  O   UNL     1      10.271   1.895  22.170  0.00  0.00    -0.284 OA
ATOM      8  C   UNL     1       9.620  -0.287  21.530  0.00  0.00    +0.072 A 
ATOM      9  C   UNL     1       9.216  -1.470  22.003  0.00  0.00    +0.089 A 
ENDROOT
BRANCH   5  10
ATOM     10  O   UNL     1       9.880   1.506  24.856  0.00  0.00    -0.502 OA
ATOM     11  H   UNL     1       9.296   2.234  24.557  0.00  0.00    +0.292 HD
ENDBRANCH   5  10
TORSDOF 1
ENDMDL
MODEL 6
REMARK VINA RESULT:      -4.0      4.604      6.193
REMARK  Name = 
REMARK  3 active torsions:
REMARK  status: ('A' for Active; 'I' for Inactive)
REMARK    1  A    between atoms: C_1  and  N_2
REMARK    2  A    between atoms: C_7  and  O_8
REMARK    3  A    between atoms: C_9  and  C_10
REMARK                            x       y       z     vdW  Elec       q    Type
REMARK                         _______ _______ _______ _____ _____    ______ ____
ROOT
ATOM      1  C   UNL     1       4.475  -4.683  23.894  0.00  0.00    +0.148 C 
ATOM      2  N   UNL     1       5.915  -4.659  24.183  0.00  0.00    -0.351 N 
ATOM      3  C   UNL     1       6.450  -5.289  25.332  0.00  0.00    +0.061 A 
ATOM      4  C   UNL     1       5.498  -5.963  26.293  0.00  0.00    +0.067 C 
ATOM      5  C   UNL     1       7.776  -5.293  25.585  0.00  0.00    +0.183 A 
ATOM      6  C   UNL     1       8.697  -4.601  24.634  0.00  0.00    +0.223 A 
ATOM      7  O   UNL     1       9.907  -4.602  24.841  0.00  0.00    -0.284 OA
ATOM      8  C   UNL     1       8.106  -3.923  23.466  0.00  0.00    +0.072 A 
ATOM      9  C   UNL     1       6.780  -3.996  23.318  0.00  0.00    +0.089 A 
ENDROOT
BRANCH   5  10
ATOM     10  O   UNL     1       8.350  -5.907  26.683  0.00  0.00    -0.502 OA
ATOM     11  H   UNL     1       9.314  -5.869  26.510  0.00  0.00    +0.292 HD
ENDBRANCH   5  10
TORSDOF 1
ENDMDL
MODEL 7
REMARK VINA RESULT:      -4.0      2.052      3.197
REMARK  Name = 
REMARK  3 active torsions:
REMARK  status: ('A' for Active; 'I' for Inactive)
REMARK    1  A    between atoms: C_1  and  N_2
REMARK    2  A    between atoms: C_7  and  O_8
REMARK    3  A    between atoms: C_9  and  C_10
REMARK                            x       y       z     vdW  Elec       q    Type
REMARK                         _______ _______ _______ _____ _____    ______ ____
ROOT
ATOM      1  C   UNL     1       9.010  -2.274  24.941  0.00  0.00    +0.148 C 
ATOM      2  N   UNL     1       9.410  -1.022  24.283  0.00  0.00    -0.351 N 
ATOM      3  C   UNL     1       9.131  -0.783  22.916  0.00  0.00    +0.061 A 
ATOM      4  C   UNL     1       8.442  -1.868  22.121  0.00  0.00    +0.067 C 
ATOM      5  C   UNL     1       9.472   0.377  22.316  0.00  0.00    +0.183 A 
ATOM      6  C   UNL     1      10.175   1.426  23.114  0.00  0.00    +0.223 A 
ATOM      7  O   UNL     1      10.485   2.492  22.588  0.00  0.00    -0.284 OA
ATOM      8  C   UNL     1      10.484   1.133  24.525  0.00  0.00    +0.072 A 
ATOM      9  C   UNL     1      10.087  -0.048  25.009  0.00  0.00    +0.089 A 
ENDROOT
BRANCH   5  10
ATOM     10  O   UNL     1       9.209   0.665  20.989  0.00  0.00    -0.502 OA
ATOM     11  H   UNL     1       8.532   1.374  21.022  0.00  0.00    +0.292 HD
ENDBRANCH   5  10
TORSDOF 1
ENDMDL
MODEL 8
REMARK VINA RESULT:      -4.0      2.066      3.226
REMARK  Name = 
REMARK  3 active torsions:
REMARK  status: ('A' for Active; 'I' for Inactive)
REMARK    1  A    between atoms: C_1  and  N_2
REMARK    2  A    between atoms: C_7  and  O_8
REMARK    3  A    between atoms: C_9  and  C_10
REMARK                            x       y       z     vdW  Elec       q    Type
REMARK                         _______ _______ _______ _____ _____    ______ ____
ROOT
ATOM      1  C   UNL     1       7.512   3.531  22.229  0.00  0.00    +0.148 C 
ATOM      2  N   UNL     1       8.365   2.363  22.489  0.00  0.00    -0.351 N 
ATOM      3  C   UNL     1       8.921   2.124  23.769  0.00  0.00    +0.061 A 
ATOM      4  C   UNL     1       8.654   3.125  24.869  0.00  0.00    +0.067 C 
ATOM      5  C   UNL     1       9.682   1.037  24.018  0.00  0.00    +0.183 A 
ATOM      6  C   UNL     1       9.953   0.073  22.910  0.00  0.00    +0.223 A 
ATOM      7  O   UNL     1      10.635  -0.927  23.120  0.00  0.00    -0.284 OA
ATOM      8  C   UNL     1       9.390   0.369  21.581  0.00  0.00    +0.072 A 
ATOM      9  C   UNL     1       8.646   1.471  21.459  0.00  0.00    +0.089 A 
ENDROOT
BRANCH   5  10
ATOM     10  O   UNL     1      10.235   0.750  25.253  0.00  0.00    -0.502 OA
ATOM     11  H   UNL     1      11.176   1.008  25.166  0.00  0.00    +0.292 HD
ENDBRANCH   5  10
TORSDOF 1
ENDMDL
MODEL 9
REMARK VINA RESULT:      -4.0      5.815      7.052
REMARK  Name = 
REMARK  3 active torsions:
REMARK  status: ('A' for Active; 'I' for Inactive)
REMARK    1  A    between atoms: C_1  and  N_2
REMARK    2  A    between atoms: C_7  and  O_8
REMARK    3  A    between atoms: C_9  and  C_10
REMARK                            x       y       z     vdW  Elec       q    Type
REMARK                         _______ _______ _______ _____ _____    ______ ____
ROOT
ATOM      1  C   UNL     1       6.979  -5.234  26.091  0.00  0.00    +0.148 C 
ATOM      2  N   UNL     1       6.662  -5.344  24.660  0.00  0.00    -0.351 N 
ATOM      3  C   UNL     1       5.391  -5.780  24.216  0.00  0.00    +0.061 A 
ATOM      4  C   UNL     1       4.362  -6.177  25.250  0.00  0.00    +0.067 C 
ATOM      5  C   UNL     1       5.087  -5.855  22.902  0.00  0.00    +0.183 A 
ATOM      6  C   UNL     1       6.127  -5.482  21.897  0.00  0.00    +0.223 A 
ATOM      7  O   UNL     1       5.866  -5.535  20.697  0.00  0.00    -0.284 OA
ATOM      8  C   UNL     1       7.452  -5.067  22.390  0.00  0.00    +0.072 A 
ATOM      9  C   UNL     1       7.629  -5.024  23.713  0.00  0.00    +0.089 A 
ENDROOT
BRANCH   5  10
ATOM     10  O   UNL     1       3.857  -6.259  22.417  0.00  0.00    -0.502 OA
ATOM     11  H   UNL     1       3.511  -6.869  23.102  0.00  0.00    +0.292 HD
ENDBRANCH   5  10
TORSDOF 1
ENDMDL
