MODEL 1
REMARK VINA RESULT:      -5.8      0.000      0.000
REMARK  Name = 
REMARK  5 active torsions:
REMARK  status: ('A' for Active; 'I' for Inactive)
REMARK    1  A    between atoms: C_1  and  C_2
REMARK    2  A    between atoms: C_2  and  C_3
REMARK    3  A    between atoms: C_2  and  N_4
REMARK    4  A    between atoms: C_5  and  N_7
REMARK    5  A    between atoms: N_10  and  C_11
REMARK                            x       y       z     vdW  Elec       q    Type
REMARK                         _______ _______ _______ _____ _____    ______ ____
ROOT
ATOM      1  N   UNL     1       8.199  -1.856  23.236  0.00  0.00    -0.003 NA
ATOM      2  C   UNL     1       7.152  -1.091  23.243  0.00  0.00    +0.394 C 
ATOM      3  N   UNL     1       7.164   0.268  23.040  0.00  0.00    -0.243 N 
ATOM      4  H   UNL     1       6.364   0.631  22.545  0.00  0.00    +0.265 HD
ATOM      5  N   UNL     1       5.872  -1.510  23.465  0.00  0.00    -0.288 N 
ATOM      6  H   UNL     1       5.093  -0.928  23.206  0.00  0.00    +0.255 HD
ATOM      7  H   UNL     1       5.757  -2.507  23.269  0.00  0.00    +0.255 HD
ENDROOT
BRANCH   3   8
ATOM      8  C   UNL     1       8.279   1.125  23.091  0.00  0.00    +0.100 A 
ATOM      9  C   UNL     1       9.172   1.245  22.023  0.00  0.00    +0.043 A 
ATOM     10  C   UNL     1      10.269   2.114  22.096  0.00  0.00    +0.023 A 
ATOM     11  C   UNL     1      10.455   2.895  23.233  0.00  0.00    +0.041 A 
ATOM     12 CL   UNL     1      11.773   4.000  23.307  0.00  0.00    -0.084 Cl
ATOM     13  C   UNL     1       9.577   2.790  24.310  0.00  0.00    +0.023 A 
ATOM     14  C   UNL     1       8.497   1.905  24.237  0.00  0.00    +0.043 A 
ENDBRANCH   3   8
BRANCH   1  16
ATOM     15  N   UNL     1       7.325  -3.913  22.758  0.00  0.00    -0.108 NA
ATOM     16  C   UNL     1       8.126  -3.197  23.468  0.00  0.00    +0.425 C 
ATOM     17  N   UNL     1       8.969  -3.650  24.435  0.00  0.00    -0.286 N 
ATOM     18  H   UNL     1       9.811  -3.089  24.468  0.00  0.00    +0.255 HD
ATOM     19  H   UNL     1       9.153  -4.639  24.431  0.00  0.00    +0.255 HD
BRANCH  15  21
ATOM     20  C   UNL     1       6.000  -5.579  23.890  0.00  0.00    +0.051 C 
ATOM     21  C   UNL     1       7.212  -5.352  22.991  0.00  0.00    +0.182 C 
ATOM     22  C   UNL     1       7.026  -6.068  21.656  0.00  0.00    +0.051 C 
ENDBRANCH  15  21
ENDBRANCH   1  16
TORSDOF 3
ENDMDL
MODEL 2
REMARK VINA RESULT:      -5.7      3.600      7.089
REMARK  Name = 
REMARK  5 active torsions:
REMARK  status: ('A' for Active; 'I' for Inactive)
REMARK    1  A    between atoms: C_1  and  C_2
REMARK    2  A    between atoms: C_2  and  C_3
REMARK    3  A    between atoms: C_2  and  N_4
REMARK    4  A    between atoms: C_5  and  N_7
REMARK    5  A    between atoms: N_10  and  C_11
REMARK                            x       y       z     vdW  Elec       q    Type
REMARK                         _______ _______ _______ _____ _____    ______ ____
ROOT
ATOM      1  N   UNL     1       8.212   1.756  22.515  0.00  0.00    -0.003 NA
ATOM      2  C   UNL     1       9.396   1.459  22.076  0.00  0.00    +0.394 C 
ATOM      3  N   UNL     1       9.901   0.186  21.963  0.00  0.00    -0.243 N 
ATOM      4  H   UNL     1      10.511   0.039  21.174  0.00  0.00    +0.265 HD
ATOM      5  N   UNL     1      10.333   2.362  21.666  0.00  0.00    -0.288 N 
ATOM      6  H   UNL     1      11.116   2.067  21.105  0.00  0.00    +0.255 HD
ATOM      7  H   UNL     1       9.912   3.253  21.393  0.00  0.00    +0.255 HD
ENDROOT
BRANCH   3   8
ATOM      8  C   UNL     1       9.396  -0.984  22.559  0.00  0.00    +0.100 A 
ATOM      9  C   UNL     1       8.406  -1.759  21.951  0.00  0.00    +0.043 A 
ATOM     10  C   UNL     1       7.928  -2.926  22.562  0.00  0.00    +0.023 A 
ATOM     11  C   UNL     1       8.469  -3.340  23.776  0.00  0.00    +0.041 A 
ATOM     12 CL   UNL     1       7.920  -4.799  24.506  0.00  0.00    -0.084 Cl
ATOM     13  C   UNL     1       9.457  -2.582  24.401  0.00  0.00    +0.023 A 
ATOM     14  C   UNL     1       9.913  -1.407  23.794  0.00  0.00    +0.043 A 
ENDBRANCH   3   8
BRANCH   1  16
ATOM     15  N   UNL     1       8.391   3.846  23.421  0.00  0.00    -0.108 NA
ATOM     16  C   UNL     1       7.776   3.043  22.625  0.00  0.00    +0.425 C 
ATOM     17  N   UNL     1       6.724   3.354  21.821  0.00  0.00    -0.286 N 
ATOM     18  H   UNL     1       6.751   2.809  20.968  0.00  0.00    +0.255 HD
ATOM     19  H   UNL     1       6.567   4.335  21.659  0.00  0.00    +0.255 HD
BRANCH  15  21
ATOM     20  C   UNL     1       7.361   5.372  24.978  0.00  0.00    +0.051 C 
ATOM     21  C   UNL     1       7.941   5.230  23.574  0.00  0.00    +0.182 C 
ATOM     22  C   UNL     1       9.127   6.171  23.389  0.00  0.00    +0.051 C 
ENDBRANCH  15  21
ENDBRANCH   1  16
TORSDOF 3
ENDMDL
MODEL 3
REMARK VINA RESULT:      -5.7      2.194      3.457
REMARK  Name = 
REMARK  5 active torsions:
REMARK  status: ('A' for Active; 'I' for Inactive)
REMARK    1  A    between atoms: C_1  and  C_2
REMARK    2  A    between atoms: C_2  and  C_3
REMARK    3  A    between atoms: C_2  and  N_4
REMARK    4  A    between atoms: C_5  and  N_7
REMARK    5  A    between atoms: N_10  and  C_11
REMARK                            x       y       z     vdW  Elec       q    Type
REMARK                         _______ _______ _______ _____ _____    ______ ____
ROOT
ATOM      1  N   UNL     1       7.531  -4.064  23.643  0.00  0.00    -0.003 NA
ATOM      2  C   UNL     1       8.607  -4.235  24.347  0.00  0.00    +0.394 C 
ATOM      3  N   UNL     1       9.514  -3.251  24.656  0.00  0.00    -0.243 N 
ATOM      4  H   UNL     1       9.939  -3.335  25.567  0.00  0.00    +0.265 HD
ATOM      5  N   UNL     1       9.016  -5.421  24.885  0.00  0.00    -0.288 N 
ATOM      6  H   UNL     1       9.702  -5.438  25.621  0.00  0.00    +0.255 HD
ATOM      7  H   UNL     1       8.240  -6.078  24.996  0.00  0.00    +0.255 HD
ENDROOT
BRANCH   3   8
ATOM      8  C   UNL     1       9.637  -1.988  24.050  0.00  0.00    +0.100 A 
ATOM      9  C   UNL     1       9.467  -0.801  24.767  0.00  0.00    +0.043 A 
ATOM     10  C   UNL     1       9.606   0.445  24.140  0.00  0.00    +0.023 A 
ATOM     11  C   UNL     1       9.949   0.505  22.793  0.00  0.00    +0.041 A 
ATOM     12 CL   UNL     1      10.169   2.033  22.032  0.00  0.00    -0.084 Cl
ATOM     13  C   UNL     1      10.123  -0.666  22.059  0.00  0.00    +0.023 A 
ATOM     14  C   UNL     1       9.962  -1.906  22.687  0.00  0.00    +0.043 A 
ENDBRANCH   3   8
BRANCH   1  16
ATOM     15  N   UNL     1       5.708  -5.344  24.153  0.00  0.00    -0.108 NA
ATOM     16  C   UNL     1       6.680  -5.088  23.349  0.00  0.00    +0.425 C 
ATOM     17  N   UNL     1       6.942  -5.720  22.174  0.00  0.00    -0.286 N 
ATOM     18  H   UNL     1       7.350  -5.079  21.504  0.00  0.00    +0.255 HD
ATOM     19  H   UNL     1       6.188  -6.266  21.789  0.00  0.00    +0.255 HD
BRANCH  15  21
ATOM     20  C   UNL     1       4.391  -7.064  25.213  0.00  0.00    +0.051 C 
ATOM     21  C   UNL     1       4.785  -6.444  23.875  0.00  0.00    +0.182 C 
ATOM     22  C   UNL     1       3.554  -5.902  23.156  0.00  0.00    +0.051 C 
ENDBRANCH  15  21
ENDBRANCH   1  16
TORSDOF 3
ENDMDL
MODEL 4
REMARK VINA RESULT:      -5.7      3.523      7.129
REMARK  Name = 
REMARK  5 active torsions:
REMARK  status: ('A' for Active; 'I' for Inactive)
REMARK    1  A    between atoms: C_1  and  C_2
REMARK    2  A    between atoms: C_2  and  C_3
REMARK    3  A    between atoms: C_2  and  N_4
REMARK    4  A    between atoms: C_5  and  N_7
REMARK    5  A    between atoms: N_10  and  C_11
REMARK                            x       y       z     vdW  Elec       q    Type
REMARK                         _______ _______ _______ _____ _____    ______ ____
ROOT
ATOM      1  N   UNL     1       8.671   1.653  23.347  0.00  0.00    -0.003 NA
ATOM      2  C   UNL     1       9.496   1.353  22.392  0.00  0.00    +0.394 C 
ATOM      3  N   UNL     1       9.715   0.087  21.905  0.00  0.00    -0.243 N 
ATOM      4  H   UNL     1       9.899   0.038  20.915  0.00  0.00    +0.265 HD
ATOM      5  N   UNL     1      10.286   2.243  21.724  0.00  0.00    -0.288 N 
ATOM      6  H   UNL     1      10.700   1.996  20.841  0.00  0.00    +0.255 HD
ATOM      7  H   UNL     1       9.921   3.197  21.783  0.00  0.00    +0.255 HD
ENDROOT
BRANCH   3   8
ATOM      8  C   UNL     1       9.353  -1.130  22.511  0.00  0.00    +0.100 A 
ATOM      9  C   UNL     1      10.103  -1.697  23.544  0.00  0.00    +0.043 A 
ATOM     10  C   UNL     1       9.715  -2.906  24.137  0.00  0.00    +0.023 A 
ATOM     11  C   UNL     1       8.547  -3.536  23.717  0.00  0.00    +0.041 A 
ATOM     12 CL   UNL     1       8.039  -4.994  24.476  0.00  0.00    -0.084 Cl
ATOM     13  C   UNL     1       7.784  -2.989  22.688  0.00  0.00    +0.023 A 
ATOM     14  C   UNL     1       8.190  -1.793  22.087  0.00  0.00    +0.043 A 
ENDBRANCH   3   8
BRANCH   1  16
ATOM     15  N   UNL     1       8.230   3.863  22.964  0.00  0.00    -0.108 NA
ATOM     16  C   UNL     1       8.515   2.929  23.802  0.00  0.00    +0.425 C 
ATOM     17  N   UNL     1       8.644   3.067  25.149  0.00  0.00    -0.286 N 
ATOM     18  H   UNL     1       8.342   2.226  25.627  0.00  0.00    +0.255 HD
ATOM     19  H   UNL     1       8.256   3.907  25.545  0.00  0.00    +0.255 HD
BRANCH  15  21
ATOM     20  C   UNL     1       9.454   5.882  23.450  0.00  0.00    +0.051 C 
ATOM     21  C   UNL     1       8.069   5.244  23.417  0.00  0.00    +0.182 C 
ATOM     22  C   UNL     1       7.160   5.992  22.447  0.00  0.00    +0.051 C 
ENDBRANCH  15  21
ENDBRANCH   1  16
TORSDOF 3
ENDMDL
MODEL 5
REMARK VINA RESULT:      -5.6      3.583      7.144
REMARK  Name = 
REMARK  5 active torsions:
REMARK  status: ('A' for Active; 'I' for Inactive)
REMARK    1  A    between atoms: C_1  and  C_2
REMARK    2  A    between atoms: C_2  and  C_3
REMARK    3  A    between atoms: C_2  and  N_4
REMARK    4  A    between atoms: C_5  and  N_7
REMARK    5  A    between atoms: N_10  and  C_11
REMARK                            x       y       z     vdW  Elec       q    Type
REMARK                         _______ _______ _______ _____ _____    ______ ____
ROOT
ATOM      1  N   UNL     1       8.278  -2.050  22.513  0.00  0.00    -0.003 NA
ATOM      2  C   UNL     1       8.758  -2.856  23.408  0.00  0.00    +0.394 C 
ATOM      3  N   UNL     1       8.171  -4.031  23.812  0.00  0.00    -0.243 N 
ATOM      4  H   UNL     1       8.816  -4.771  24.042  0.00  0.00    +0.265 HD
ATOM      5  N   UNL     1       9.919  -2.662  24.100  0.00  0.00    -0.288 N 
ATOM      6  H   UNL     1      10.362  -3.429  24.579  0.00  0.00    +0.255 HD
ATOM      7  H   UNL     1      10.555  -2.028  23.610  0.00  0.00    +0.255 HD
ENDROOT
BRANCH   3   8
ATOM      8  C   UNL     1       6.843  -4.437  23.590  0.00  0.00    +0.100 A 
ATOM      9  C   UNL     1       6.503  -5.350  22.589  0.00  0.00    +0.043 A 
ATOM     10  C   UNL     1       5.173  -5.745  22.395  0.00  0.00    +0.023 A 
ATOM     11  C   UNL     1       4.178  -5.249  23.232  0.00  0.00    +0.041 A 
ATOM     12 CL   UNL     1       2.550  -5.770  23.030  0.00  0.00    -0.084 Cl
ATOM     13  C   UNL     1       4.494  -4.337  24.237  0.00  0.00    +0.023 A 
ATOM     14  C   UNL     1       5.821  -3.931  24.409  0.00  0.00    +0.043 A 
ENDBRANCH   3   8
BRANCH   1  16
ATOM     15  N   UNL     1       8.764   0.142  22.935  0.00  0.00    -0.108 NA
ATOM     16  C   UNL     1       8.897  -0.885  22.171  0.00  0.00    +0.425 C 
ATOM     17  N   UNL     1       9.646  -0.955  21.038  0.00  0.00    -0.286 N 
ATOM     18  H   UNL     1      10.026  -1.886  20.916  0.00  0.00    +0.255 HD
ATOM     19  H   UNL     1      10.332  -0.229  20.917  0.00  0.00    +0.255 HD
BRANCH  15  21
ATOM     20  C   UNL     1       8.336   2.314  21.978  0.00  0.00    +0.051 C 
ATOM     21  C   UNL     1       9.404   1.412  22.590  0.00  0.00    +0.182 C 
ATOM     22  C   UNL     1       9.979   2.048  23.852  0.00  0.00    +0.051 C 
ENDBRANCH  15  21
ENDBRANCH   1  16
TORSDOF 3
ENDMDL
MODEL 6
REMARK VINA RESULT:      -5.6      3.483      7.047
REMARK  Name = 
REMARK  5 active torsions:
REMARK  status: ('A' for Active; 'I' for Inactive)
REMARK    1  A    between atoms: C_1  and  C_2
REMARK    2  A    between atoms: C_2  and  C_3
REMARK    3  A    between atoms: C_2  and  N_4
REMARK    4  A    between atoms: C_5  and  N_7
REMARK    5  A    between atoms: N_10  and  C_11
REMARK                            x       y       z     vdW  Elec       q    Type
REMARK                         _______ _______ _______ _____ _____    ______ ____
ROOT
ATOM      1  N   UNL     1       8.454  -0.556  23.638  0.00  0.00    -0.003 NA
ATOM      2  C   UNL     1       8.859  -1.118  22.542  0.00  0.00    +0.394 C 
ATOM      3  N   UNL     1       8.291  -2.228  21.966  0.00  0.00    -0.243 N 
ATOM      4  H   UNL     1       8.298  -2.234  20.957  0.00  0.00    +0.265 HD
ATOM      5  N   UNL     1       9.919  -0.702  21.789  0.00  0.00    -0.288 N 
ATOM      6  H   UNL     1      10.022  -1.011  20.837  0.00  0.00    +0.255 HD
ATOM      7  H   UNL     1      10.145   0.282  21.956  0.00  0.00    +0.255 HD
ENDROOT
BRANCH   3   8
ATOM      8  C   UNL     1       7.399  -3.135  22.567  0.00  0.00    +0.100 A 
ATOM      9  C   UNL     1       6.031  -3.126  22.288  0.00  0.00    +0.043 A 
ATOM     10  C   UNL     1       5.165  -4.047  22.892  0.00  0.00    +0.023 A 
ATOM     11  C   UNL     1       5.679  -5.008  23.759  0.00  0.00    +0.041 A 
ATOM     12 CL   UNL     1       4.628  -6.173  24.465  0.00  0.00    -0.084 Cl
ATOM     13  C   UNL     1       7.040  -5.035  24.052  0.00  0.00    +0.023 A 
ATOM     14  C   UNL     1       7.894  -4.098  23.460  0.00  0.00    +0.043 A 
ENDBRANCH   3   8
BRANCH   1  16
ATOM     15  N   UNL     1       8.938   1.677  23.600  0.00  0.00    -0.108 NA
ATOM     16  C   UNL     1       9.075   0.533  24.174  0.00  0.00    +0.425 C 
ATOM     17  N   UNL     1       9.763   0.284  25.320  0.00  0.00    -0.286 N 
ATOM     18  H   UNL     1       9.329  -0.467  25.844  0.00  0.00    +0.255 HD
ATOM     19  H   UNL     1       9.980   1.086  25.888  0.00  0.00    +0.255 HD
BRANCH  15  21
ATOM     20  C   UNL     1      10.871   3.092  23.326  0.00  0.00    +0.051 C 
ATOM     21  C   UNL     1       9.602   2.863  24.141  0.00  0.00    +0.182 C 
ATOM     22  C   UNL     1       8.668   4.064  24.022  0.00  0.00    +0.051 C 
ENDBRANCH  15  21
ENDBRANCH   1  16
TORSDOF 3
ENDMDL
MODEL 7
REMARK VINA RESULT:      -5.5      3.730      7.198
REMARK  Name = 
REMARK  5 active torsions:
REMARK  status: ('A' for Active; 'I' for Inactive)
REMARK    1  A    between atoms: C_1  and  C_2
REMARK    2  A    between atoms: C_2  and  C_3
REMARK    3  A    between atoms: C_2  and  N_4
REMARK    4  A    between atoms: C_5  and  N_7
REMARK    5  A    between atoms: N_10  and  C_11
REMARK                            x       y       z     vdW  Elec       q    Type
REMARK                         _______ _______ _______ _____ _____    ______ ____
ROOT
ATOM      1  N   UNL     1       8.364  -1.451  24.432  0.00  0.00    -0.003 NA
ATOM      2  C   UNL     1       9.156  -2.354  23.942  0.00  0.00    +0.394 C 
ATOM      3  N   UNL     1       8.972  -3.711  24.051  0.00  0.00    -0.243 N 
ATOM      4  H   UNL     1       9.271  -4.247  23.251  0.00  0.00    +0.265 HD
ATOM      5  N   UNL     1      10.305  -2.102  23.249  0.00  0.00    -0.288 N 
ATOM      6  H   UNL     1      10.728  -2.819  22.684  0.00  0.00    +0.255 HD
ATOM      7  H   UNL     1      10.306  -1.165  22.838  0.00  0.00    +0.255 HD
ENDROOT
BRANCH   3   8
ATOM      8  C   UNL     1       8.108  -4.383  24.936  0.00  0.00    +0.100 A 
ATOM      9  C   UNL     1       8.455  -4.632  26.266  0.00  0.00    +0.043 A 
ATOM     10  C   UNL     1       7.571  -5.294  27.129  0.00  0.00    +0.023 A 
ATOM     11  C   UNL     1       6.317  -5.680  26.667  0.00  0.00    +0.041 A 
ATOM     12 CL   UNL     1       5.209  -6.449  27.736  0.00  0.00    -0.084 Cl
ATOM     13  C   UNL     1       5.950  -5.442  25.344  0.00  0.00    +0.023 A 
ATOM     14  C   UNL     1       6.846  -4.800  24.484  0.00  0.00    +0.043 A 
ENDBRANCH   3   8
BRANCH   1  16
ATOM     15  N   UNL     1       8.482   0.443  23.158  0.00  0.00    -0.108 NA
ATOM     16  C   UNL     1       8.614  -0.117  24.310  0.00  0.00    +0.425 C 
ATOM     17  N   UNL     1       8.948   0.503  25.473  0.00  0.00    -0.286 N 
ATOM     18  H   UNL     1       8.497   0.055  26.262  0.00  0.00    +0.255 HD
ATOM     19  H   UNL     1       8.853   1.505  25.482  0.00  0.00    +0.255 HD
BRANCH  15  21
ATOM     20  C   UNL     1      10.125   2.001  22.331  0.00  0.00    +0.051 C 
ATOM     21  C   UNL     1       8.755   1.870  22.990  0.00  0.00    +0.182 C 
ATOM     22  C   UNL     1       7.677   2.491  22.107  0.00  0.00    +0.051 C 
ENDBRANCH  15  21
ENDBRANCH   1  16
TORSDOF 3
ENDMDL
MODEL 8
REMARK VINA RESULT:      -5.5      3.370      7.082
REMARK  Name = 
REMARK  5 active torsions:
REMARK  status: ('A' for Active; 'I' for Inactive)
REMARK    1  A    between atoms: C_1  and  C_2
REMARK    2  A    between atoms: C_2  and  C_3
REMARK    3  A    between atoms: C_2  and  N_4
REMARK    4  A    between atoms: C_5  and  N_7
REMARK    5  A    between atoms: N_10  and  C_11
REMARK                            x       y       z     vdW  Elec       q    Type
REMARK                         _______ _______ _______ _____ _____    ______ ____
ROOT
ATOM      1  N   UNL     1       7.491  -0.994  23.084  0.00  0.00    -0.003 NA
ATOM      2  C   UNL     1       8.242  -1.791  22.389  0.00  0.00    +0.394 C 
ATOM      3  N   UNL     1       8.157  -3.162  22.391  0.00  0.00    -0.243 N 
ATOM      4  H   UNL     1       8.351  -3.602  21.505  0.00  0.00    +0.265 HD
ATOM      5  N   UNL     1       9.245  -1.396  21.550  0.00  0.00    -0.288 N 
ATOM      6  H   UNL     1       9.610  -2.028  20.858  0.00  0.00    +0.255 HD
ATOM      7  H   UNL     1       9.124  -0.429  21.239  0.00  0.00    +0.255 HD
ENDROOT
BRANCH   3   8
ATOM      8  C   UNL     1       7.491  -3.969  23.331  0.00  0.00    +0.100 A 
ATOM      9  C   UNL     1       8.075  -4.328  24.548  0.00  0.00    +0.043 A 
ATOM     10  C   UNL     1       7.385  -5.125  25.471  0.00  0.00    +0.023 A 
ATOM     11  C   UNL     1       6.087  -5.540  25.190  0.00  0.00    +0.041 A 
ATOM     12 CL   UNL     1       5.217  -6.477  26.341  0.00  0.00    -0.084 Cl
ATOM     13  C   UNL     1       5.484  -5.194  23.982  0.00  0.00    +0.023 A 
ATOM     14  C   UNL     1       6.188  -4.415  23.057  0.00  0.00    +0.043 A 
ENDBRANCH   3   8
BRANCH   1  16
ATOM     15  N   UNL     1       8.735   0.879  23.489  0.00  0.00    -0.108 NA
ATOM     16  C   UNL     1       7.640   0.360  23.056  0.00  0.00    +0.425 C 
ATOM     17  N   UNL     1       6.589   1.033  22.516  0.00  0.00    -0.286 N 
ATOM     18  H   UNL     1       6.130   0.473  21.807  0.00  0.00    +0.255 HD
ATOM     19  H   UNL     1       6.775   1.975  22.215  0.00  0.00    +0.255 HD
BRANCH  15  21
ATOM     20  C   UNL     1       8.602   2.838  24.889  0.00  0.00    +0.051 C 
ATOM     21  C   UNL     1       8.923   2.329  23.486  0.00  0.00    +0.182 C 
ATOM     22  C   UNL     1      10.367   2.653  23.119  0.00  0.00    +0.051 C 
ENDBRANCH  15  21
ENDBRANCH   1  16
TORSDOF 3
ENDMDL
MODEL 9
REMARK VINA RESULT:      -5.5      2.418      3.645
REMARK  Name = 
REMARK  5 active torsions:
REMARK  status: ('A' for Active; 'I' for Inactive)
REMARK    1  A    between atoms: C_1  and  C_2
REMARK    2  A    between atoms: C_2  and  C_3
REMARK    3  A    between atoms: C_2  and  N_4
REMARK    4  A    between atoms: C_5  and  N_7
REMARK    5  A    between atoms: N_10  and  C_11
REMARK                            x       y       z     vdW  Elec       q    Type
REMARK                         _______ _______ _______ _____ _____    ______ ____
ROOT
ATOM      1  N   UNL     1       7.942  -4.104  24.961  0.00  0.00    -0.003 NA
ATOM      2  C   UNL     1       7.652  -4.258  23.706  0.00  0.00    +0.394 C 
ATOM      3  N   UNL     1       8.017  -3.398  22.699  0.00  0.00    -0.243 N 
ATOM      4  H   UNL     1       8.230  -3.840  21.818  0.00  0.00    +0.265 HD
ATOM      5  N   UNL     1       6.931  -5.293  23.186  0.00  0.00    -0.288 N 
ATOM      6  H   UNL     1       6.961  -5.492  22.200  0.00  0.00    +0.255 HD
ATOM      7  H   UNL     1       6.944  -6.114  23.797  0.00  0.00    +0.255 HD
ENDROOT
BRANCH   3   8
ATOM      8  C   UNL     1       8.483  -2.078  22.837  0.00  0.00    +0.100 A 
ATOM      9  C   UNL     1       7.612  -0.994  22.971  0.00  0.00    +0.043 A 
ATOM     10  C   UNL     1       8.102   0.311  23.117  0.00  0.00    +0.023 A 
ATOM     11  C   UNL     1       9.476   0.530  23.164  0.00  0.00    +0.041 A 
ATOM     12 CL   UNL     1      10.082   2.124  23.393  0.00  0.00    -0.084 Cl
ATOM     13  C   UNL     1      10.363  -0.536  23.032  0.00  0.00    +0.023 A 
ATOM     14  C   UNL     1       9.865  -1.833  22.865  0.00  0.00    +0.043 A 
ENDBRANCH   3   8
BRANCH   1  16
ATOM     15  N   UNL     1       6.276  -5.064  26.196  0.00  0.00    -0.108 NA
ATOM     16  C   UNL     1       7.530  -4.983  25.919  0.00  0.00    +0.425 C 
ATOM     17  N   UNL     1       8.527  -5.730  26.465  0.00  0.00    -0.286 N 
ATOM     18  H   UNL     1       9.265  -5.893  25.791  0.00  0.00    +0.255 HD
ATOM     19  H   UNL     1       8.238  -6.567  26.944  0.00  0.00    +0.255 HD
BRANCH  15  21
ATOM     20  C   UNL     1       5.395  -5.152  28.439  0.00  0.00    +0.051 C 
ATOM     21  C   UNL     1       5.802  -5.986  27.228  0.00  0.00    +0.182 C 
ATOM     22  C   UNL     1       4.608  -6.771  26.695  0.00  0.00    +0.051 C 
ENDBRANCH  15  21
ENDBRANCH   1  16
TORSDOF 3
ENDMDL
