MODEL 1
REMARK VINA RESULT:      -5.8      0.000      0.000
REMARK  Name = 
REMARK  9 active torsions:
REMARK  status: ('A' for Active; 'I' for Inactive)
REMARK    1  A    between atoms: C_1  and  C_2
REMARK    2  A    between atoms: C_2  and  O_3
REMARK    3  A    between atoms: O_3  and  C_4
REMARK    4  A    between atoms: C_4  and  N_5
REMARK    5  A    between atoms: C_11  and  C_12
REMARK    6  A    between atoms: C_12  and  C_13
REMARK    7  A    between atoms: C_12  and  C_14
REMARK    8  A    between atoms: C_15  and  C_16
REMARK    9  A    between atoms: C_16  and  C_17
REMARK                            x       y       z     vdW  Elec       q    Type
REMARK                         _______ _______ _______ _____ _____    ______ ____
ROOT
ATOM      1  N   UNL     1       7.981  -0.908  25.436  0.00  0.00    -0.273 N 
ATOM      2  C   UNL     1       7.981  -0.535  24.072  0.00  0.00    +0.039 A 
ATOM      3  C   UNL     1       9.021   0.176  23.553  0.00  0.00    +0.039 A 
ATOM      4  C   UNL     1      10.048   0.693  24.507  0.00  0.00    +0.258 A 
ATOM      5  O   UNL     1      10.928   1.486  24.180  0.00  0.00    -0.267 OA
ATOM      6  N   UNL     1       9.961   0.271  25.792  0.00  0.00    -0.275 N 
ATOM      7  H   UNL     1      10.656   0.613  26.434  0.00  0.00    +0.173 HD
ATOM      8  C   UNL     1       8.979  -0.508  26.313  0.00  0.00    +0.331 A 
ATOM      9  O   UNL     1       9.015  -0.779  27.512  0.00  0.00    -0.246 OA
ENDROOT
BRANCH   3  10
ATOM     10  C   UNL     1       9.320   0.538  22.091  0.00  0.00    +0.020 C 
ATOM     11  C   UNL     1       8.365   1.540  21.442  0.00  0.00    +0.012 C 
ATOM     12  C   UNL     1       9.546  -0.699  21.213  0.00  0.00    +0.012 C 
ENDBRANCH   3  10
BRANCH   1  13
ATOM     13  C   UNL     1       6.938  -1.745  26.025  0.00  0.00    +0.289 C 
BRANCH  13  14
ATOM     14  O   UNL     1       7.421  -3.080  26.231  0.00  0.00    -0.359 OA
BRANCH  14  16
ATOM     15  C   UNL     1       6.794  -5.429  26.173  0.00  0.00    +0.034 C 
ATOM     16  C   UNL     1       6.318  -3.992  26.283  0.00  0.00    +0.159 C 
ENDBRANCH  14  16
ENDBRANCH  13  14
ENDBRANCH   1  13
BRANCH   2  17
ATOM     17  C   UNL     1       6.795  -0.988  23.220  0.00  0.00    +0.089 C 
BRANCH  17  18
ATOM     18  C   UNL     1       6.718  -2.470  22.879  0.00  0.00    -0.042 A 
ATOM     19  C   UNL     1       5.438  -3.044  22.759  0.00  0.00    +0.004 A 
ATOM     20  C   UNL     1       5.278  -4.420  22.586  0.00  0.00    +0.000 A 
ATOM     21  C   UNL     1       6.396  -5.244  22.511  0.00  0.00    +0.000 A 
ATOM     22  C   UNL     1       7.672  -4.688  22.579  0.00  0.00    +0.000 A 
ATOM     23  C   UNL     1       7.835  -3.310  22.756  0.00  0.00    +0.004 A 
ENDBRANCH  17  18
ENDBRANCH   2  17
TORSDOF 6
ENDMDL
MODEL 2
REMARK VINA RESULT:      -5.7      4.268      6.660
REMARK  Name = 
REMARK  9 active torsions:
REMARK  status: ('A' for Active; 'I' for Inactive)
REMARK    1  A    between atoms: C_1  and  C_2
REMARK    2  A    between atoms: C_2  and  O_3
REMARK    3  A    between atoms: O_3  and  C_4
REMARK    4  A    between atoms: C_4  and  N_5
REMARK    5  A    between atoms: C_11  and  C_12
REMARK    6  A    between atoms: C_12  and  C_13
REMARK    7  A    between atoms: C_12  and  C_14
REMARK    8  A    between atoms: C_15  and  C_16
REMARK    9  A    between atoms: C_16  and  C_17
REMARK                            x       y       z     vdW  Elec       q    Type
REMARK                         _______ _______ _______ _____ _____    ______ ____
ROOT
ATOM      1  N   UNL     1       5.330  -5.727  27.197  0.00  0.00    -0.273 N 
ATOM      2  C   UNL     1       4.533  -5.131  26.192  0.00  0.00    +0.039 A 
ATOM      3  C   UNL     1       3.272  -5.589  25.954  0.00  0.00    +0.039 A 
ATOM      4  C   UNL     1       2.847  -6.838  26.655  0.00  0.00    +0.258 A 
ATOM      5  O   UNL     1       1.807  -7.436  26.387  0.00  0.00    -0.267 OA
ATOM      6  N   UNL     1       3.683  -7.325  27.604  0.00  0.00    -0.275 N 
ATOM      7  H   UNL     1       3.394  -8.162  28.081  0.00  0.00    +0.173 HD
ATOM      8  C   UNL     1       4.909  -6.834  27.918  0.00  0.00    +0.331 A 
ATOM      9  O   UNL     1       5.570  -7.408  28.782  0.00  0.00    -0.246 OA
ENDROOT
BRANCH   3  10
ATOM     10  C   UNL     1       2.177  -5.002  25.052  0.00  0.00    +0.020 C 
ATOM     11  C   UNL     1       2.332  -5.266  23.554  0.00  0.00    +0.012 C 
ATOM     12  C   UNL     1       1.896  -3.524  25.353  0.00  0.00    +0.012 C 
ENDBRANCH   3  10
BRANCH   1  13
ATOM     13  C   UNL     1       6.653  -5.221  27.557  0.00  0.00    +0.289 C 
BRANCH  13  14
ATOM     14  O   UNL     1       7.663  -5.821  26.731  0.00  0.00    -0.359 OA
BRANCH  14  16
ATOM     15  C   UNL     1       9.408  -5.156  25.173  0.00  0.00    +0.034 C 
ATOM     16  C   UNL     1       8.718  -4.881  26.497  0.00  0.00    +0.159 C 
ENDBRANCH  14  16
ENDBRANCH  13  14
ENDBRANCH   1  13
BRANCH   2  17
ATOM     17  C   UNL     1       5.133  -3.952  25.426  0.00  0.00    +0.089 C 
BRANCH  17  18
ATOM     18  C   UNL     1       5.645  -4.232  24.020  0.00  0.00    -0.042 A 
ATOM     19  C   UNL     1       5.557  -3.191  23.076  0.00  0.00    +0.004 A 
ATOM     20  C   UNL     1       5.875  -3.406  21.735  0.00  0.00    +0.000 A 
ATOM     21  C   UNL     1       6.306  -4.660  21.316  0.00  0.00    +0.000 A 
ATOM     22  C   UNL     1       6.446  -5.689  22.245  0.00  0.00    +0.000 A 
ATOM     23  C   UNL     1       6.125  -5.478  23.590  0.00  0.00    +0.004 A 
ENDBRANCH  17  18
ENDBRANCH   2  17
TORSDOF 6
ENDMDL
MODEL 3
REMARK VINA RESULT:      -5.7      1.487      4.445
REMARK  Name = 
REMARK  9 active torsions:
REMARK  status: ('A' for Active; 'I' for Inactive)
REMARK    1  A    between atoms: C_1  and  C_2
REMARK    2  A    between atoms: C_2  and  O_3
REMARK    3  A    between atoms: O_3  and  C_4
REMARK    4  A    between atoms: C_4  and  N_5
REMARK    5  A    between atoms: C_11  and  C_12
REMARK    6  A    between atoms: C_12  and  C_13
REMARK    7  A    between atoms: C_12  and  C_14
REMARK    8  A    between atoms: C_15  and  C_16
REMARK    9  A    between atoms: C_16  and  C_17
REMARK                            x       y       z     vdW  Elec       q    Type
REMARK                         _______ _______ _______ _____ _____    ______ ____
ROOT
ATOM      1  N   UNL     1       9.299  -0.967  24.525  0.00  0.00    -0.273 N 
ATOM      2  C   UNL     1       8.621  -2.104  25.022  0.00  0.00    +0.039 A 
ATOM      3  C   UNL     1       7.740  -1.984  26.054  0.00  0.00    +0.039 A 
ATOM      4  C   UNL     1       7.663  -0.660  26.744  0.00  0.00    +0.258 A 
ATOM      5  O   UNL     1       7.039  -0.485  27.788  0.00  0.00    -0.267 OA
ATOM      6  N   UNL     1       8.347   0.366  26.183  0.00  0.00    -0.275 N 
ATOM      7  H   UNL     1       8.291   1.259  26.644  0.00  0.00    +0.173 HD
ATOM      8  C   UNL     1       9.165   0.286  25.103  0.00  0.00    +0.331 A 
ATOM      9  O   UNL     1       9.750   1.302  24.730  0.00  0.00    -0.246 OA
ENDROOT
BRANCH   3  10
ATOM     10  C   UNL     1       6.775  -3.025  26.638  0.00  0.00    +0.020 C 
ATOM     11  C   UNL     1       7.374  -4.400  26.932  0.00  0.00    +0.012 C 
ATOM     12  C   UNL     1       5.464  -3.121  25.847  0.00  0.00    +0.012 C 
ENDBRANCH   3  10
BRANCH   1  13
ATOM     13  C   UNL     1      10.186  -1.023  23.365  0.00  0.00    +0.289 C 
BRANCH  13  14
ATOM     14  O   UNL     1       9.431  -0.906  22.149  0.00  0.00    -0.359 OA
BRANCH  14  16
ATOM     15  C   UNL     1       8.515   1.252  21.500  0.00  0.00    +0.034 C 
ATOM     16  C   UNL     1       9.730   0.341  21.511  0.00  0.00    +0.159 C 
ENDBRANCH  14  16
ENDBRANCH  13  14
ENDBRANCH   1  13
BRANCH   2  17
ATOM     17  C   UNL     1       8.896  -3.443  24.335  0.00  0.00    +0.089 C 
BRANCH  17  18
ATOM     18  C   UNL     1       7.838  -3.950  23.365  0.00  0.00    -0.042 A 
ATOM     19  C   UNL     1       7.741  -5.342  23.178  0.00  0.00    +0.004 A 
ATOM     20  C   UNL     1       6.896  -5.882  22.208  0.00  0.00    +0.000 A 
ATOM     21  C   UNL     1       6.117  -5.040  21.420  0.00  0.00    +0.000 A 
ATOM     22  C   UNL     1       6.164  -3.662  21.624  0.00  0.00    +0.000 A 
ATOM     23  C   UNL     1       7.013  -3.119  22.593  0.00  0.00    +0.004 A 
ENDBRANCH  17  18
ENDBRANCH   2  17
TORSDOF 6
ENDMDL
MODEL 4
REMARK VINA RESULT:      -5.6      2.858      5.905
REMARK  Name = 
REMARK  9 active torsions:
REMARK  status: ('A' for Active; 'I' for Inactive)
REMARK    1  A    between atoms: C_1  and  C_2
REMARK    2  A    between atoms: C_2  and  O_3
REMARK    3  A    between atoms: O_3  and  C_4
REMARK    4  A    between atoms: C_4  and  N_5
REMARK    5  A    between atoms: C_11  and  C_12
REMARK    6  A    between atoms: C_12  and  C_13
REMARK    7  A    between atoms: C_12  and  C_14
REMARK    8  A    between atoms: C_15  and  C_16
REMARK    9  A    between atoms: C_16  and  C_17
REMARK                            x       y       z     vdW  Elec       q    Type
REMARK                         _______ _______ _______ _____ _____    ______ ____
ROOT
ATOM      1  N   UNL     1       7.527  -4.394  24.801  0.00  0.00    -0.273 N 
ATOM      2  C   UNL     1       6.330  -4.181  25.523  0.00  0.00    +0.039 A 
ATOM      3  C   UNL     1       6.197  -4.661  26.792  0.00  0.00    +0.039 A 
ATOM      4  C   UNL     1       7.274  -5.561  27.305  0.00  0.00    +0.258 A 
ATOM      5  O   UNL     1       7.178  -6.187  28.359  0.00  0.00    -0.267 OA
ATOM      6  N   UNL     1       8.383  -5.693  26.538  0.00  0.00    -0.275 N 
ATOM      7  H   UNL     1       9.111  -6.293  26.886  0.00  0.00    +0.173 HD
ATOM      8  C   UNL     1       8.571  -5.154  25.306  0.00  0.00    +0.331 A 
ATOM      9  O   UNL     1       9.622  -5.394  24.712  0.00  0.00    -0.246 OA
ENDROOT
BRANCH   3  10
ATOM     10  C   UNL     1       5.081  -4.411  27.816  0.00  0.00    +0.020 C 
ATOM     11  C   UNL     1       3.865  -5.332  27.716  0.00  0.00    +0.012 C 
ATOM     12  C   UNL     1       4.683  -2.932  27.903  0.00  0.00    +0.012 C 
ENDBRANCH   3  10
BRANCH   1  13
ATOM     13  C   UNL     1       7.758  -3.827  23.474  0.00  0.00    +0.289 C 
BRANCH  13  14
ATOM     14  O   UNL     1       8.406  -2.551  23.579  0.00  0.00    -0.359 OA
BRANCH  14  16
ATOM     15  C   UNL     1       9.981  -1.372  22.149  0.00  0.00    +0.034 C 
ATOM     16  C   UNL     1       8.604  -2.000  22.271  0.00  0.00    +0.159 C 
ENDBRANCH  14  16
ENDBRANCH  13  14
ENDBRANCH   1  13
BRANCH   2  17
ATOM     17  C   UNL     1       5.228  -3.375  24.836  0.00  0.00    +0.089 C 
BRANCH  17  18
ATOM     18  C   UNL     1       4.041  -4.156  24.288  0.00  0.00    -0.042 A 
ATOM     19  C   UNL     1       2.762  -3.816  24.766  0.00  0.00    +0.004 A 
ATOM     20  C   UNL     1       1.639  -4.570  24.422  0.00  0.00    +0.000 A 
ATOM     21  C   UNL     1       1.773  -5.667  23.577  0.00  0.00    +0.000 A 
ATOM     22  C   UNL     1       3.024  -5.990  23.055  0.00  0.00    +0.000 A 
ATOM     23  C   UNL     1       4.151  -5.237  23.401  0.00  0.00    +0.004 A 
ENDBRANCH  17  18
ENDBRANCH   2  17
TORSDOF 6
ENDMDL
MODEL 5
REMARK VINA RESULT:      -5.6      3.905      6.065
REMARK  Name = 
REMARK  9 active torsions:
REMARK  status: ('A' for Active; 'I' for Inactive)
REMARK    1  A    between atoms: C_1  and  C_2
REMARK    2  A    between atoms: C_2  and  O_3
REMARK    3  A    between atoms: O_3  and  C_4
REMARK    4  A    between atoms: C_4  and  N_5
REMARK    5  A    between atoms: C_11  and  C_12
REMARK    6  A    between atoms: C_12  and  C_13
REMARK    7  A    between atoms: C_12  and  C_14
REMARK    8  A    between atoms: C_15  and  C_16
REMARK    9  A    between atoms: C_16  and  C_17
REMARK                            x       y       z     vdW  Elec       q    Type
REMARK                         _______ _______ _______ _____ _____    ______ ____
ROOT
ATOM      1  N   UNL     1       7.434  -4.576  25.044  0.00  0.00    -0.273 N 
ATOM      2  C   UNL     1       6.196  -4.422  25.709  0.00  0.00    +0.039 A 
ATOM      3  C   UNL     1       6.037  -4.883  26.982  0.00  0.00    +0.039 A 
ATOM      4  C   UNL     1       7.142  -5.705  27.560  0.00  0.00    +0.258 A 
ATOM      5  O   UNL     1       7.037  -6.315  28.623  0.00  0.00    -0.267 OA
ATOM      6  N   UNL     1       8.289  -5.786  26.844  0.00  0.00    -0.275 N 
ATOM      7  H   UNL     1       9.036  -6.334  27.236  0.00  0.00    +0.173 HD
ATOM      8  C   UNL     1       8.499  -5.261  25.610  0.00  0.00    +0.331 A 
ATOM      9  O   UNL     1       9.587  -5.449  25.067  0.00  0.00    -0.246 OA
ENDROOT
BRANCH   3  10
ATOM     10  C   UNL     1       4.864  -4.681  27.952  0.00  0.00    +0.020 C 
ATOM     11  C   UNL     1       3.652  -5.586  27.733  0.00  0.00    +0.012 C 
ATOM     12  C   UNL     1       4.467  -3.205  28.095  0.00  0.00    +0.012 C 
ENDBRANCH   3  10
BRANCH   1  13
ATOM     13  C   UNL     1       7.689  -4.023  23.715  0.00  0.00    +0.289 C 
BRANCH  13  14
ATOM     14  O   UNL     1       7.550  -5.040  22.712  0.00  0.00    -0.359 OA
BRANCH  14  16
ATOM     15  C   UNL     1       6.169  -5.754  20.842  0.00  0.00    +0.034 C 
ATOM     16  C   UNL     1       6.655  -4.591  21.689  0.00  0.00    +0.159 C 
ENDBRANCH  14  16
ENDBRANCH  13  14
ENDBRANCH   1  13
BRANCH   2  17
ATOM     17  C   UNL     1       5.080  -3.697  24.957  0.00  0.00    +0.089 C 
BRANCH  17  18
ATOM     18  C   UNL     1       3.930  -4.551  24.439  0.00  0.00    -0.042 A 
ATOM     19  C   UNL     1       2.628  -4.030  24.557  0.00  0.00    +0.004 A 
ATOM     20  C   UNL     1       1.510  -4.801  24.235  0.00  0.00    +0.000 A 
ATOM     21  C   UNL     1       1.676  -6.102  23.771  0.00  0.00    +0.000 A 
ATOM     22  C   UNL     1       2.959  -6.618  23.603  0.00  0.00    +0.000 A 
ATOM     23  C   UNL     1       4.080  -5.848  23.927  0.00  0.00    +0.004 A 
ENDBRANCH  17  18
ENDBRANCH   2  17
TORSDOF 6
ENDMDL
MODEL 6
REMARK VINA RESULT:      -5.6      3.548      5.944
REMARK  Name = 
REMARK  9 active torsions:
REMARK  status: ('A' for Active; 'I' for Inactive)
REMARK    1  A    between atoms: C_1  and  C_2
REMARK    2  A    between atoms: C_2  and  O_3
REMARK    3  A    between atoms: O_3  and  C_4
REMARK    4  A    between atoms: C_4  and  N_5
REMARK    5  A    between atoms: C_11  and  C_12
REMARK    6  A    between atoms: C_12  and  C_13
REMARK    7  A    between atoms: C_12  and  C_14
REMARK    8  A    between atoms: C_15  and  C_16
REMARK    9  A    between atoms: C_16  and  C_17
REMARK                            x       y       z     vdW  Elec       q    Type
REMARK                         _______ _______ _______ _____ _____    ______ ____
ROOT
ATOM      1  N   UNL     1       5.384  -5.997  24.619  0.00  0.00    -0.273 N 
ATOM      2  C   UNL     1       6.563  -5.229  24.754  0.00  0.00    +0.039 A 
ATOM      3  C   UNL     1       7.226  -5.188  25.944  0.00  0.00    +0.039 A 
ATOM      4  C   UNL     1       6.565  -5.826  27.123  0.00  0.00    +0.258 A 
ATOM      5  O   UNL     1       6.982  -5.701  28.273  0.00  0.00    -0.267 OA
ATOM      6  N   UNL     1       5.441  -6.544  26.885  0.00  0.00    -0.275 N 
ATOM      7  H   UNL     1       5.000  -6.978  27.677  0.00  0.00    +0.173 HD
ATOM      8  C   UNL     1       4.811  -6.668  25.689  0.00  0.00    +0.331 A 
ATOM      9  O   UNL     1       3.773  -7.327  25.636  0.00  0.00    -0.246 OA
ENDROOT
BRANCH   3  10
ATOM     10  C   UNL     1       8.594  -4.576  26.277  0.00  0.00    +0.020 C 
ATOM     11  C   UNL     1       8.620  -3.058  26.456  0.00  0.00    +0.012 C 
ATOM     12  C   UNL     1       9.703  -5.068  25.338  0.00  0.00    +0.012 C 
ENDBRANCH   3  10
BRANCH   1  13
ATOM     13  C   UNL     1       4.683  -6.149  23.346  0.00  0.00    +0.289 C 
BRANCH  13  14
ATOM     14  O   UNL     1       3.782  -5.051  23.134  0.00  0.00    -0.359 OA
BRANCH  14  16
ATOM     15  C   UNL     1       1.592  -4.813  24.164  0.00  0.00    +0.034 C 
ATOM     16  C   UNL     1       2.432  -5.528  23.120  0.00  0.00    +0.159 C 
ENDBRANCH  14  16
ENDBRANCH  13  14
ENDBRANCH   1  13
BRANCH   2  17
ATOM     17  C   UNL     1       7.065  -4.488  23.514  0.00  0.00    +0.089 C 
BRANCH  17  18
ATOM     18  C   UNL     1       6.928  -2.971  23.515  0.00  0.00    -0.042 A 
ATOM     19  C   UNL     1       7.924  -2.228  22.853  0.00  0.00    +0.004 A 
ATOM     20  C   UNL     1       7.950  -0.835  22.923  0.00  0.00    +0.000 A 
ATOM     21  C   UNL     1       6.968  -0.158  23.639  0.00  0.00    +0.000 A 
ATOM     22  C   UNL     1       5.946  -0.874  24.260  0.00  0.00    +0.000 A 
ATOM     23  C   UNL     1       5.920  -2.271  24.194  0.00  0.00    +0.004 A 
ENDBRANCH  17  18
ENDBRANCH   2  17
TORSDOF 6
ENDMDL
MODEL 7
REMARK VINA RESULT:      -5.6      3.964      5.286
REMARK  Name = 
REMARK  9 active torsions:
REMARK  status: ('A' for Active; 'I' for Inactive)
REMARK    1  A    between atoms: C_1  and  C_2
REMARK    2  A    between atoms: C_2  and  O_3
REMARK    3  A    between atoms: O_3  and  C_4
REMARK    4  A    between atoms: C_4  and  N_5
REMARK    5  A    between atoms: C_11  and  C_12
REMARK    6  A    between atoms: C_12  and  C_13
REMARK    7  A    between atoms: C_12  and  C_14
REMARK    8  A    between atoms: C_15  and  C_16
REMARK    9  A    between atoms: C_16  and  C_17
REMARK                            x       y       z     vdW  Elec       q    Type
REMARK                         _______ _______ _______ _____ _____    ______ ____
ROOT
ATOM      1  N   UNL     1       5.951  -5.207  26.514  0.00  0.00    -0.273 N 
ATOM      2  C   UNL     1       5.949  -4.849  25.146  0.00  0.00    +0.039 A 
ATOM      3  C   UNL     1       7.076  -4.999  24.395  0.00  0.00    +0.039 A 
ATOM      4  C   UNL     1       8.335  -5.373  25.107  0.00  0.00    +0.258 A 
ATOM      5  O   UNL     1       9.438  -5.366  24.565  0.00  0.00    -0.267 OA
ATOM      6  N   UNL     1       8.226  -5.703  26.417  0.00  0.00    -0.275 N 
ATOM      7  H   UNL     1       9.073  -5.961  26.894  0.00  0.00    +0.173 HD
ATOM      8  C   UNL     1       7.095  -5.643  27.165  0.00  0.00    +0.331 A 
ATOM      9  O   UNL     1       7.161  -5.941  28.357  0.00  0.00    -0.246 OA
ENDROOT
BRANCH   3  10
ATOM     10  C   UNL     1       7.264  -4.844  22.879  0.00  0.00    +0.020 C 
ATOM     11  C   UNL     1       6.813  -3.511  22.282  0.00  0.00    +0.012 C 
ATOM     12  C   UNL     1       6.718  -6.044  22.094  0.00  0.00    +0.012 C 
ENDBRANCH   3  10
BRANCH   1  13
ATOM     13  C   UNL     1       4.750  -5.152  27.345  0.00  0.00    +0.289 C 
BRANCH  13  14
ATOM     14  O   UNL     1       4.169  -6.458  27.478  0.00  0.00    -0.359 OA
BRANCH  14  16
ATOM     15  C   UNL     1       1.835  -5.826  27.222  0.00  0.00    +0.034 C 
ATOM     16  C   UNL     1       2.909  -6.361  28.151  0.00  0.00    +0.159 C 
ENDBRANCH  14  16
ENDBRANCH  13  14
ENDBRANCH   1  13
BRANCH   2  17
ATOM     17  C   UNL     1       4.638  -4.327  24.558  0.00  0.00    +0.089 C 
BRANCH  17  18
ATOM     18  C   UNL     1       3.649  -5.367  24.049  0.00  0.00    -0.042 A 
ATOM     19  C   UNL     1       2.462  -4.899  23.453  0.00  0.00    +0.004 A 
ATOM     20  C   UNL     1       1.444  -5.779  23.086  0.00  0.00    +0.000 A 
ATOM     21  C   UNL     1       1.603  -7.146  23.289  0.00  0.00    +0.000 A 
ATOM     22  C   UNL     1       2.791  -7.632  23.832  0.00  0.00    +0.000 A 
ATOM     23  C   UNL     1       3.811  -6.751  24.204  0.00  0.00    +0.004 A 
ENDBRANCH  17  18
ENDBRANCH   2  17
TORSDOF 6
ENDMDL
MODEL 8
REMARK VINA RESULT:      -5.5      2.247      2.788
REMARK  Name = 
REMARK  9 active torsions:
REMARK  status: ('A' for Active; 'I' for Inactive)
REMARK    1  A    between atoms: C_1  and  C_2
REMARK    2  A    between atoms: C_2  and  O_3
REMARK    3  A    between atoms: O_3  and  C_4
REMARK    4  A    between atoms: C_4  and  N_5
REMARK    5  A    between atoms: C_11  and  C_12
REMARK    6  A    between atoms: C_12  and  C_13
REMARK    7  A    between atoms: C_12  and  C_14
REMARK    8  A    between atoms: C_15  and  C_16
REMARK    9  A    between atoms: C_16  and  C_17
REMARK                            x       y       z     vdW  Elec       q    Type
REMARK                         _______ _______ _______ _____ _____    ______ ____
ROOT
ATOM      1  N   UNL     1       6.218  -0.180  24.741  0.00  0.00    -0.273 N 
ATOM      2  C   UNL     1       7.380  -0.601  24.053  0.00  0.00    +0.039 A 
ATOM      3  C   UNL     1       8.014   0.245  23.193  0.00  0.00    +0.039 A 
ATOM      4  C   UNL     1       7.339   1.539  22.874  0.00  0.00    +0.258 A 
ATOM      5  O   UNL     1       7.727   2.296  21.988  0.00  0.00    -0.267 OA
ATOM      6  N   UNL     1       6.234   1.850  23.595  0.00  0.00    -0.275 N 
ATOM      7  H   UNL     1       5.783   2.724  23.385  0.00  0.00    +0.173 HD
ATOM      8  C   UNL     1       5.633   1.057  24.518  0.00  0.00    +0.331 A 
ATOM      9  O   UNL     1       4.609   1.463  25.066  0.00  0.00    -0.246 OA
ENDROOT
BRANCH   3  10
ATOM     10  C   UNL     1       9.363   0.077  22.479  0.00  0.00    +0.020 C 
ATOM     11  C   UNL     1       9.430  -1.036  21.432  0.00  0.00    +0.012 C 
ATOM     12  C   UNL     1      10.544   0.024  23.457  0.00  0.00    +0.012 C 
ENDBRANCH   3  10
BRANCH   1  13
ATOM     13  C   UNL     1       5.549  -1.011  25.739  0.00  0.00    +0.289 C 
BRANCH  13  14
ATOM     14  O   UNL     1       4.538  -1.823  25.123  0.00  0.00    -0.359 OA
BRANCH  14  16
ATOM     15  C   UNL     1       3.996  -4.177  24.837  0.00  0.00    +0.034 C 
ATOM     16  C   UNL     1       4.462  -3.089  25.788  0.00  0.00    +0.159 C 
ENDBRANCH  14  16
ENDBRANCH  13  14
ENDBRANCH   1  13
BRANCH   2  17
ATOM     17  C   UNL     1       7.896  -2.011  24.342  0.00  0.00    +0.089 C 
BRANCH  17  18
ATOM     18  C   UNL     1       7.364  -3.133  23.461  0.00  0.00    -0.042 A 
ATOM     19  C   UNL     1       7.872  -4.428  23.681  0.00  0.00    +0.004 A 
ATOM     20  C   UNL     1       7.542  -5.485  22.831  0.00  0.00    +0.000 A 
ATOM     21  C   UNL     1       6.684  -5.271  21.758  0.00  0.00    +0.000 A 
ATOM     22  C   UNL     1       6.134  -4.007  21.553  0.00  0.00    +0.000 A 
ATOM     23  C   UNL     1       6.465  -2.946  22.401  0.00  0.00    +0.004 A 
ENDBRANCH  17  18
ENDBRANCH   2  17
TORSDOF 6
ENDMDL
MODEL 9
REMARK VINA RESULT:      -5.4      2.803      5.068
REMARK  Name = 
REMARK  9 active torsions:
REMARK  status: ('A' for Active; 'I' for Inactive)
REMARK    1  A    between atoms: C_1  and  C_2
REMARK    2  A    between atoms: C_2  and  O_3
REMARK    3  A    between atoms: O_3  and  C_4
REMARK    4  A    between atoms: C_4  and  N_5
REMARK    5  A    between atoms: C_11  and  C_12
REMARK    6  A    between atoms: C_12  and  C_13
REMARK    7  A    between atoms: C_12  and  C_14
REMARK    8  A    between atoms: C_15  and  C_16
REMARK    9  A    between atoms: C_16  and  C_17
REMARK                            x       y       z     vdW  Elec       q    Type
REMARK                         _______ _______ _______ _____ _____    ______ ____
ROOT
ATOM      1  N   UNL     1       6.790  -3.695  24.520  0.00  0.00    -0.273 N 
ATOM      2  C   UNL     1       7.350  -2.465  24.936  0.00  0.00    +0.039 A 
ATOM      3  C   UNL     1       6.576  -1.532  25.557  0.00  0.00    +0.039 A 
ATOM      4  C   UNL     1       5.103  -1.781  25.609  0.00  0.00    +0.258 A 
ATOM      5  O   UNL     1       4.294  -0.935  25.985  0.00  0.00    -0.267 OA
ATOM      6  N   UNL     1       4.669  -2.994  25.190  0.00  0.00    -0.275 N 
ATOM      7  H   UNL     1       3.679  -3.164  25.231  0.00  0.00    +0.173 HD
ATOM      8  C   UNL     1       5.437  -3.973  24.646  0.00  0.00    +0.331 A 
ATOM      9  O   UNL     1       4.891  -5.012  24.276  0.00  0.00    -0.246 OA
ENDROOT
BRANCH   3  10
ATOM     10  C   UNL     1       6.990  -0.221  26.241  0.00  0.00    +0.020 C 
ATOM     11  C   UNL     1       7.115   0.999  25.328  0.00  0.00    +0.012 C 
ATOM     12  C   UNL     1       8.215  -0.393  27.149  0.00  0.00    +0.012 C 
ENDBRANCH   3  10
BRANCH   1  13
ATOM     13  C   UNL     1       7.590  -4.767  23.931  0.00  0.00    +0.289 C 
BRANCH  13  14
ATOM     14  O   UNL     1       7.589  -4.666  22.499  0.00  0.00    -0.359 OA
BRANCH  14  16
ATOM     15  C   UNL     1       6.068  -5.804  20.979  0.00  0.00    +0.034 C 
ATOM     16  C   UNL     1       7.249  -5.934  21.925  0.00  0.00    +0.159 C 
ENDBRANCH  14  16
ENDBRANCH  13  14
ENDBRANCH   1  13
BRANCH   2  17
ATOM     17  C   UNL     1       8.844  -2.255  24.690  0.00  0.00    +0.089 C 
BRANCH  17  18
ATOM     18  C   UNL     1       9.231  -1.230  23.632  0.00  0.00    -0.042 A 
ATOM     19  C   UNL     1      10.136  -0.218  24.006  0.00  0.00    +0.004 A 
ATOM     20  C   UNL     1      10.436   0.836  23.142  0.00  0.00    +0.000 A 
ATOM     21  C   UNL     1       9.851   0.887  21.881  0.00  0.00    +0.000 A 
ATOM     22  C   UNL     1       8.990  -0.131  21.475  0.00  0.00    +0.000 A 
ATOM     23  C   UNL     1       8.686  -1.187  22.340  0.00  0.00    +0.004 A 
ENDBRANCH  17  18
ENDBRANCH   2  17
TORSDOF 6
ENDMDL
