MODEL 1
REMARK VINA RESULT:      -6.2      0.000      0.000
REMARK  Name = 
REMARK  33 active torsions:
REMARK  status: ('A' for Active; 'I' for Inactive)
REMARK    1  A    between atoms: C_1  and  C_2
REMARK    2  A    between atoms: C_2  and  C_3
REMARK    3  A    between atoms: C_3  and  C_4
REMARK    4  A    between atoms: C_4  and  C_5
REMARK    5  A    between atoms: C_5  and  C_6
REMARK    6  A    between atoms: C_6  and  S_8
REMARK    7  A    between atoms: S_8  and  C_9
REMARK    8  A    between atoms: C_9  and  C_10
REMARK    9  A    between atoms: C_10  and  N_11
REMARK   10  A    between atoms: C_12  and  C_14
REMARK   11  A    between atoms: C_14  and  C_15
REMARK   12  A    between atoms: C_15  and  N_16
REMARK   13  A    between atoms: C_17  and  C_19
REMARK   14  A    between atoms: C_19  and  O_21
REMARK   15  A    between atoms: C_19  and  C_22
REMARK   16  A    between atoms: C_22  and  C_23
REMARK   17  A    between atoms: C_22  and  C_24
REMARK   18  A    between atoms: C_22  and  C_25
REMARK   19  A    between atoms: C_25  and  O_26
REMARK   20  A    between atoms: O_26  and  P_27
REMARK   21  A    between atoms: P_27  and  O_28
REMARK   22  A    between atoms: P_27  and  O_30
REMARK   23  A    between atoms: O_30  and  P_31
REMARK   24  A    between atoms: P_31  and  O_32
REMARK   25  A    between atoms: P_31  and  O_34
REMARK   26  A    between atoms: O_34  and  C_35
REMARK   27  A    between atoms: C_35  and  C_36
REMARK   28  A    between atoms: C_39  and  N_51
REMARK   29  A    between atoms: C_41  and  O_43
REMARK   30  A    between atoms: C_44  and  O_46
REMARK   31  A    between atoms: O_46  and  P_47
REMARK   32  A    between atoms: P_47  and  O_48
REMARK   33  A    between atoms: P_47  and  O_49
REMARK                            x       y       z     vdW  Elec       q    Type
REMARK                         _______ _______ _______ _____ _____    ______ ____
ROOT
ATOM      1  O   UNL     1       7.689  -2.579  21.693  0.00  0.00    -0.186 OA
ENDROOT
BRANCH   1   2
ATOM      2  P   UNL     1       6.488  -3.571  22.446  0.00  0.00    +0.483 P 
ATOM      3  O   UNL     1       5.831  -3.834  21.090  0.00  0.00    -0.227 OA
BRANCH   2   4
ATOM      4  O   UNL     1       5.705  -2.230  22.969  0.00  0.00    -0.302 OA
ATOM      5  H   UNL     1       5.163  -1.911  22.211  0.00  0.00    +0.222 HD
ENDBRANCH   2   4
BRANCH   2   6
ATOM      6  O   UNL     1       5.286  -4.562  23.198  0.00  0.00    -0.284 OA
BRANCH   6   7
ATOM      7  C   UNL     1       5.798  -5.423  24.195  0.00  0.00    +0.206 C 
BRANCH   7   8
ATOM      8  C   UNL     1       5.557  -4.783  25.555  0.00  0.00    +0.179 C 
ATOM      9  C   UNL     1       6.363  -5.433  26.674  0.00  0.00    +0.194 C 
ATOM     10  C   UNL     1       7.591  -4.547  26.857  0.00  0.00    +0.196 C 
ATOM     11  C   UNL     1       7.345  -3.352  25.923  0.00  0.00    +0.253 C 
ATOM     12  O   UNL     1       5.955  -3.399  25.535  0.00  0.00    -0.346 OA
BRANCH  11  13
ATOM     13  N   UNL     1       7.632  -2.077  26.553  0.00  0.00    -0.286 N 
ATOM     14  C   UNL     1       6.691  -1.225  27.063  0.00  0.00    +0.167 A 
ATOM     15  N   UNL     1       5.356  -1.397  27.106  0.00  0.00    -0.216 NA
ATOM     16  C   UNL     1       4.761  -0.319  27.670  0.00  0.00    +0.225 A 
ATOM     17  N   UNL     1       5.335   0.816  28.128  0.00  0.00    -0.219 NA
ATOM     18  C   UNL     1       6.678   0.942  28.030  0.00  0.00    +0.147 A 
ATOM     19  N   UNL     1       7.272   2.120  28.465  0.00  0.00    -0.341 N 
ATOM     20  H   UNL     1       8.261   2.022  28.665  0.00  0.00    +0.144 HD
ATOM     21  H   UNL     1       6.700   2.623  29.129  0.00  0.00    +0.144 HD
ATOM     22  C   UNL     1       7.413  -0.128  27.499  0.00  0.00    +0.147 A 
ATOM     23  N   UNL     1       8.767  -0.324  27.313  0.00  0.00    -0.231 NA
ATOM     24  C   UNL     1       8.860  -1.515  26.760  0.00  0.00    +0.203 A 
ENDBRANCH  11  13
BRANCH  10  25
ATOM     25  O   UNL     1       8.784  -5.253  26.506  0.00  0.00    -0.385 OA
ATOM     26  H   UNL     1       8.999  -5.832  27.267  0.00  0.00    +0.210 HD
ENDBRANCH  10  25
BRANCH   9  27
ATOM     27  O   UNL     1       5.516  -5.340  27.813  0.00  0.00    -0.278 OA
BRANCH  27  28
ATOM     28  P   UNL     1       5.823  -6.206  29.115  0.00  0.00    +0.473 P 
ATOM     29  O   UNL     1       5.734  -5.499  30.416  0.00  0.00    -0.228 OA
BRANCH  28  30
ATOM     30  O   UNL     1       7.247  -6.829  28.764  0.00  0.00    -0.303 OA
ATOM     31  H   UNL     1       7.938  -6.143  28.724  0.00  0.00    +0.222 HD
ENDBRANCH  28  30
BRANCH  28  32
ATOM     32  O   UNL     1       4.815  -7.412  28.865  0.00  0.00    -0.303 OA
ATOM     33  H   UNL     1       4.236  -7.537  29.638  0.00  0.00    +0.222 HD
ENDBRANCH  28  32
ENDBRANCH  27  28
ENDBRANCH   9  27
ENDBRANCH   7   8
ENDBRANCH   6   7
ENDBRANCH   2   6
ENDBRANCH   1   2
BRANCH   1  34
ATOM     34  P   UNL     1       8.930  -1.857  22.353  0.00  0.00    +0.483 P 
ATOM     35  O   UNL     1       9.917  -1.264  21.413  0.00  0.00    -0.227 OA
BRANCH  34  36
ATOM     36  O   UNL     1       9.616  -2.807  23.439  0.00  0.00    -0.302 OA
ATOM     37  H   UNL     1       9.848  -3.628  22.955  0.00  0.00    +0.222 HD
ENDBRANCH  34  36
BRANCH  34  38
ATOM     38  O   UNL     1       8.194  -0.827  23.338  0.00  0.00    -0.286 OA
BRANCH  38  39
ATOM     39  C   UNL     1       8.914   0.341  23.694  0.00  0.00    +0.181 C 
BRANCH  39  40
ATOM     40  C   UNL     1       8.132   1.626  23.375  0.00  0.00    +0.024 C 
ATOM     41  C   UNL     1       6.831   1.173  22.672  0.00  0.00    +0.016 C 
ATOM     42  C   UNL     1       7.781   2.282  24.718  0.00  0.00    +0.016 C 
BRANCH  40  43
ATOM     43  C   UNL     1       8.997   2.551  22.457  0.00  0.00    +0.208 C 
BRANCH  43  46
ATOM     44  N   UNL     1       9.610   4.762  23.326  0.00  0.00    -0.313 N 
ATOM     45  H   UNL     1       8.814   5.072  22.781  0.00  0.00    +0.149 HD
ATOM     46  C   UNL     1      10.001   3.443  23.211  0.00  0.00    +0.242 C 
ATOM     47  O   UNL     1      11.051   3.031  23.691  0.00  0.00    -0.273 OA
BRANCH  44  48
ATOM     48  C   UNL     1      10.486   5.770  23.875  0.00  0.00    +0.113 C 
BRANCH  48  49
ATOM     49  C   UNL     1       9.796   6.783  24.791  0.00  0.00    +0.114 C 
BRANCH  49  52
ATOM     50  N   UNL     1       7.384   6.755  25.072  0.00  0.00    -0.314 N 
ATOM     51  H   UNL     1       7.399   7.514  24.403  0.00  0.00    +0.149 HD
ATOM     52  C   UNL     1       8.577   6.186  25.453  0.00  0.00    +0.215 C 
ATOM     53  O   UNL     1       8.666   5.270  26.260  0.00  0.00    -0.276 OA
BRANCH  50  54
ATOM     54  C   UNL     1       6.100   6.325  25.607  0.00  0.00    +0.115 C 
BRANCH  54  55
ATOM     55  C   UNL     1       4.893   6.943  24.895  0.00  0.00    +0.096 C 
BRANCH  55  56
ATOM     56  S   UNL     1       5.062   6.883  23.085  0.00  0.00    -0.087 S 
BRANCH  56  57
ATOM     57  C   UNL     1       5.629   5.220  22.889  0.00  0.00    +0.189 C 
ATOM     58  O   UNL     1       6.768   4.966  22.511  0.00  0.00    -0.285 OA
BRANCH  57  59
ATOM     59  C   UNL     1       4.541   4.192  23.154  0.00  0.00    +0.086 C 
BRANCH  59  60
ATOM     60  C   UNL     1       3.183   4.656  22.645  0.00  0.00    +0.008 C 
BRANCH  60  61
ATOM     61  C   UNL     1       2.259   3.506  22.251  0.00  0.00    +0.000 C 
BRANCH  61  63
ATOM     62  C   UNL     1       1.203   2.269  20.318  0.00  0.00    +0.004 C 
ATOM     63  C   UNL     1       2.008   3.489  20.739  0.00  0.00    -0.003 C 
ENDBRANCH  61  63
ENDBRANCH  60  61
ENDBRANCH  59  60
ENDBRANCH  57  59
ENDBRANCH  56  57
ENDBRANCH  55  56
ENDBRANCH  54  55
ENDBRANCH  50  54
ENDBRANCH  49  52
ENDBRANCH  48  49
ENDBRANCH  44  48
ENDBRANCH  43  46
BRANCH  43  64
ATOM     64  O   UNL     1       9.739   1.792  21.494  0.00  0.00    -0.382 OA
ATOM     65  H   UNL     1       9.564   2.170  20.616  0.00  0.00    +0.210 HD
ENDBRANCH  43  64
ENDBRANCH  40  43
ENDBRANCH  39  40
ENDBRANCH  38  39
ENDBRANCH  34  38
ENDBRANCH   1  34
TORSDOF 30
ENDMDL
MODEL 2
REMARK VINA RESULT:      -6.2      3.097      5.286
REMARK  Name = 
REMARK  33 active torsions:
REMARK  status: ('A' for Active; 'I' for Inactive)
REMARK    1  A    between atoms: C_1  and  C_2
REMARK    2  A    between atoms: C_2  and  C_3
REMARK    3  A    between atoms: C_3  and  C_4
REMARK    4  A    between atoms: C_4  and  C_5
REMARK    5  A    between atoms: C_5  and  C_6
REMARK    6  A    between atoms: C_6  and  S_8
REMARK    7  A    between atoms: S_8  and  C_9
REMARK    8  A    between atoms: C_9  and  C_10
REMARK    9  A    between atoms: C_10  and  N_11
REMARK   10  A    between atoms: C_12  and  C_14
REMARK   11  A    between atoms: C_14  and  C_15
REMARK   12  A    between atoms: C_15  and  N_16
REMARK   13  A    between atoms: C_17  and  C_19
REMARK   14  A    between atoms: C_19  and  O_21
REMARK   15  A    between atoms: C_19  and  C_22
REMARK   16  A    between atoms: C_22  and  C_23
REMARK   17  A    between atoms: C_22  and  C_24
REMARK   18  A    between atoms: C_22  and  C_25
REMARK   19  A    between atoms: C_25  and  O_26
REMARK   20  A    between atoms: O_26  and  P_27
REMARK   21  A    between atoms: P_27  and  O_28
REMARK   22  A    between atoms: P_27  and  O_30
REMARK   23  A    between atoms: O_30  and  P_31
REMARK   24  A    between atoms: P_31  and  O_32
REMARK   25  A    between atoms: P_31  and  O_34
REMARK   26  A    between atoms: O_34  and  C_35
REMARK   27  A    between atoms: C_35  and  C_36
REMARK   28  A    between atoms: C_39  and  N_51
REMARK   29  A    between atoms: C_41  and  O_43
REMARK   30  A    between atoms: C_44  and  O_46
REMARK   31  A    between atoms: O_46  and  P_47
REMARK   32  A    between atoms: P_47  and  O_48
REMARK   33  A    between atoms: P_47  and  O_49
REMARK                            x       y       z     vdW  Elec       q    Type
REMARK                         _______ _______ _______ _____ _____    ______ ____
ROOT
ATOM      1  O   UNL     1      10.040  -3.219  23.871  0.00  0.00    -0.186 OA
ENDROOT
BRANCH   1   2
ATOM      2  P   UNL     1       9.396  -4.202  25.141  0.00  0.00    +0.483 P 
ATOM      3  O   UNL     1       9.027  -5.292  24.133  0.00  0.00    -0.227 OA
BRANCH   2   4
ATOM      4  O   UNL     1       8.045  -3.274  25.176  0.00  0.00    -0.302 OA
ATOM      5  H   UNL     1       8.222  -2.553  25.823  0.00  0.00    +0.222 HD
ENDBRANCH   2   4
BRANCH   2   6
ATOM      6  O   UNL     1       8.750  -5.185  26.409  0.00  0.00    -0.284 OA
BRANCH   6   7
ATOM      7  C   UNL     1       7.657  -4.597  27.087  0.00  0.00    +0.206 C 
BRANCH   7   8
ATOM      8  C   UNL     1       6.502  -5.588  27.090  0.00  0.00    +0.179 C 
ATOM      9  C   UNL     1       5.292  -5.094  27.874  0.00  0.00    +0.194 C 
ATOM     10  C   UNL     1       4.342  -4.513  26.832  0.00  0.00    +0.196 C 
ATOM     11  C   UNL     1       5.005  -4.839  25.484  0.00  0.00    +0.253 C 
ATOM     12  O   UNL     1       6.034  -5.816  25.746  0.00  0.00    -0.346 OA
BRANCH  11  13
ATOM     13  N   UNL     1       4.069  -5.368  24.509  0.00  0.00    -0.286 N 
ATOM     14  C   UNL     1       3.406  -6.560  24.626  0.00  0.00    +0.167 A 
ATOM     15  N   UNL     1       3.463  -7.443  25.640  0.00  0.00    -0.216 NA
ATOM     16  C   UNL     1       2.678  -8.513  25.376  0.00  0.00    +0.225 A 
ATOM     17  N   UNL     1       1.930  -8.759  24.277  0.00  0.00    -0.219 NA
ATOM     18  C   UNL     1       1.936  -7.847  23.279  0.00  0.00    +0.147 A 
ATOM     19  N   UNL     1       1.200  -8.108  22.131  0.00  0.00    -0.341 N 
ATOM     20  H   UNL     1       0.988  -7.276  21.591  0.00  0.00    +0.144 HD
ATOM     21  H   UNL     1       0.458  -8.775  22.287  0.00  0.00    +0.144 HD
ATOM     22  C   UNL     1       2.682  -6.671  23.451  0.00  0.00    +0.147 A 
ATOM     23  N   UNL     1       2.852  -5.554  22.659  0.00  0.00    -0.231 NA
ATOM     24  C   UNL     1       3.676  -4.785  23.338  0.00  0.00    +0.203 A 
ENDBRANCH  11  13
BRANCH  10  25
ATOM     25  O   UNL     1       4.186  -3.104  27.015  0.00  0.00    -0.385 OA
ATOM     26  H   UNL     1       3.304  -2.872  26.659  0.00  0.00    +0.210 HD
ENDBRANCH  10  25
BRANCH   9  27
ATOM     27  O   UNL     1       4.737  -6.276  28.439  0.00  0.00    -0.278 OA
BRANCH  27  28
ATOM     28  P   UNL     1       3.480  -6.186  29.415  0.00  0.00    +0.473 P 
ATOM     29  O   UNL     1       3.194  -4.856  30.005  0.00  0.00    -0.228 OA
BRANCH  28  30
ATOM     30  O   UNL     1       3.792  -7.351  30.457  0.00  0.00    -0.303 OA
ATOM     31  H   UNL     1       3.346  -7.197  31.309  0.00  0.00    +0.222 HD
ENDBRANCH  28  30
BRANCH  28  32
ATOM     32  O   UNL     1       2.372  -6.821  28.465  0.00  0.00    -0.303 OA
ATOM     33  H   UNL     1       2.574  -6.631  27.531  0.00  0.00    +0.222 HD
ENDBRANCH  28  32
ENDBRANCH  27  28
ENDBRANCH   9  27
ENDBRANCH   7   8
ENDBRANCH   6   7
ENDBRANCH   2   6
ENDBRANCH   1   2
BRANCH   1  34
ATOM     34  P   UNL     1       9.301  -2.144  22.981  0.00  0.00    +0.483 P 
ATOM     35  O   UNL     1       7.995  -2.560  22.403  0.00  0.00    -0.227 OA
BRANCH  34  36
ATOM     36  O   UNL     1      10.294  -1.553  21.879  0.00  0.00    -0.302 OA
ATOM     37  H   UNL     1      11.174  -1.929  22.095  0.00  0.00    +0.222 HD
ENDBRANCH  34  36
BRANCH  34  38
ATOM     38  O   UNL     1       9.256  -0.895  23.986  0.00  0.00    -0.286 OA
BRANCH  38  39
ATOM     39  C   UNL     1      10.184   0.150  23.747  0.00  0.00    +0.181 C 
BRANCH  39  40
ATOM     40  C   UNL     1       9.495   1.515  23.591  0.00  0.00    +0.024 C 
ATOM     41  C   UNL     1       8.825   1.815  24.952  0.00  0.00    +0.016 C 
ATOM     42  C   UNL     1      10.601   2.548  23.330  0.00  0.00    +0.016 C 
BRANCH  40  43
ATOM     43  C   UNL     1       8.448   1.443  22.431  0.00  0.00    +0.208 C 
BRANCH  43  46
ATOM     44  N   UNL     1       7.966   3.816  22.040  0.00  0.00    -0.313 N 
ATOM     45  H   UNL     1       8.974   3.896  21.978  0.00  0.00    +0.149 HD
ATOM     46  C   UNL     1       7.431   2.600  22.413  0.00  0.00    +0.242 C 
ATOM     47  O   UNL     1       6.243   2.467  22.684  0.00  0.00    -0.273 OA
BRANCH  44  48
ATOM     48  C   UNL     1       7.197   5.038  22.103  0.00  0.00    +0.113 C 
BRANCH  48  49
ATOM     49  C   UNL     1       7.370   5.834  23.398  0.00  0.00    +0.114 C 
BRANCH  49  52
ATOM     50  N   UNL     1       5.844   4.675  24.891  0.00  0.00    -0.314 N 
ATOM     51  H   UNL     1       6.497   3.907  24.797  0.00  0.00    +0.149 HD
ATOM     52  C   UNL     1       6.098   5.845  24.213  0.00  0.00    +0.215 C 
ATOM     53  O   UNL     1       5.367   6.826  24.253  0.00  0.00    -0.276 OA
BRANCH  50  54
ATOM     54  C   UNL     1       4.662   4.487  25.719  0.00  0.00    +0.115 C 
BRANCH  54  55
ATOM     55  C   UNL     1       4.956   4.462  27.222  0.00  0.00    +0.096 C 
BRANCH  55  56
ATOM     56  S   UNL     1       6.740   4.524  27.571  0.00  0.00    -0.087 S 
BRANCH  56  57
ATOM     57  C   UNL     1       6.917   3.036  28.510  0.00  0.00    +0.189 C 
ATOM     58  O   UNL     1       7.599   2.990  29.528  0.00  0.00    -0.285 OA
BRANCH  57  59
ATOM     59  C   UNL     1       6.215   1.850  27.868  0.00  0.00    +0.086 C 
BRANCH  59  60
ATOM     60  C   UNL     1       6.979   0.550  28.088  0.00  0.00    +0.008 C 
BRANCH  60  61
ATOM     61  C   UNL     1       6.764  -0.474  26.974  0.00  0.00    +0.000 C 
BRANCH  61  63
ATOM     62  C   UNL     1       5.891  -0.529  24.605  0.00  0.00    +0.004 C 
ATOM     63  C   UNL     1       5.649  -0.030  26.021  0.00  0.00    -0.003 C 
ENDBRANCH  61  63
ENDBRANCH  60  61
ENDBRANCH  59  60
ENDBRANCH  57  59
ENDBRANCH  56  57
ENDBRANCH  55  56
ENDBRANCH  54  55
ENDBRANCH  50  54
ENDBRANCH  49  52
ENDBRANCH  48  49
ENDBRANCH  44  48
ENDBRANCH  43  46
BRANCH  43  64
ATOM     64  O   UNL     1       9.084   1.413  21.148  0.00  0.00    -0.382 OA
ATOM     65  H   UNL     1       8.520   0.901  20.545  0.00  0.00    +0.210 HD
ENDBRANCH  43  64
ENDBRANCH  40  43
ENDBRANCH  39  40
ENDBRANCH  38  39
ENDBRANCH  34  38
ENDBRANCH   1  34
TORSDOF 30
ENDMDL
MODEL 3
REMARK VINA RESULT:      -6.1      2.800      5.223
REMARK  Name = 
REMARK  33 active torsions:
REMARK  status: ('A' for Active; 'I' for Inactive)
REMARK    1  A    between atoms: C_1  and  C_2
REMARK    2  A    between atoms: C_2  and  C_3
REMARK    3  A    between atoms: C_3  and  C_4
REMARK    4  A    between atoms: C_4  and  C_5
REMARK    5  A    between atoms: C_5  and  C_6
REMARK    6  A    between atoms: C_6  and  S_8
REMARK    7  A    between atoms: S_8  and  C_9
REMARK    8  A    between atoms: C_9  and  C_10
REMARK    9  A    between atoms: C_10  and  N_11
REMARK   10  A    between atoms: C_12  and  C_14
REMARK   11  A    between atoms: C_14  and  C_15
REMARK   12  A    between atoms: C_15  and  N_16
REMARK   13  A    between atoms: C_17  and  C_19
REMARK   14  A    between atoms: C_19  and  O_21
REMARK   15  A    between atoms: C_19  and  C_22
REMARK   16  A    between atoms: C_22  and  C_23
REMARK   17  A    between atoms: C_22  and  C_24
REMARK   18  A    between atoms: C_22  and  C_25
REMARK   19  A    between atoms: C_25  and  O_26
REMARK   20  A    between atoms: O_26  and  P_27
REMARK   21  A    between atoms: P_27  and  O_28
REMARK   22  A    between atoms: P_27  and  O_30
REMARK   23  A    between atoms: O_30  and  P_31
REMARK   24  A    between atoms: P_31  and  O_32
REMARK   25  A    between atoms: P_31  and  O_34
REMARK   26  A    between atoms: O_34  and  C_35
REMARK   27  A    between atoms: C_35  and  C_36
REMARK   28  A    between atoms: C_39  and  N_51
REMARK   29  A    between atoms: C_41  and  O_43
REMARK   30  A    between atoms: C_44  and  O_46
REMARK   31  A    between atoms: O_46  and  P_47
REMARK   32  A    between atoms: P_47  and  O_48
REMARK   33  A    between atoms: P_47  and  O_49
REMARK                            x       y       z     vdW  Elec       q    Type
REMARK                         _______ _______ _______ _____ _____    ______ ____
ROOT
ATOM      1  O   UNL     1       8.673  -1.058  22.996  0.00  0.00    -0.186 OA
ENDROOT
BRANCH   1   2
ATOM      2  P   UNL     1       8.980  -2.602  23.716  0.00  0.00    +0.483 P 
ATOM      3  O   UNL     1       9.056  -1.960  25.101  0.00  0.00    -0.227 OA
BRANCH   2   4
ATOM      4  O   UNL     1      10.534  -2.534  23.202  0.00  0.00    -0.302 OA
ATOM      5  H   UNL     1      11.061  -2.180  23.956  0.00  0.00    +0.222 HD
ENDBRANCH   2   4
BRANCH   2   6
ATOM      6  O   UNL     1       9.288  -4.145  24.435  0.00  0.00    -0.284 OA
BRANCH   6   7
ATOM      7  C   UNL     1       8.907  -4.227  25.794  0.00  0.00    +0.206 C 
BRANCH   7   8
ATOM      8  C   UNL     1       7.840  -5.303  25.931  0.00  0.00    +0.179 C 
ATOM      9  C   UNL     1       6.890  -5.058  27.099  0.00  0.00    +0.194 C 
ATOM     10  C   UNL     1       5.659  -4.396  26.488  0.00  0.00    +0.196 C 
ATOM     11  C   UNL     1       5.916  -4.430  24.973  0.00  0.00    +0.253 C 
ATOM     12  O   UNL     1       7.013  -5.342  24.752  0.00  0.00    -0.346 OA
BRANCH  11  13
ATOM     13  N   UNL     1       4.758  -4.868  24.216  0.00  0.00    -0.286 N 
ATOM     14  C   UNL     1       3.473  -4.452  24.437  0.00  0.00    +0.167 A 
ATOM     15  N   UNL     1       3.036  -3.565  25.352  0.00  0.00    -0.216 NA
ATOM     16  C   UNL     1       1.692  -3.434  25.274  0.00  0.00    +0.225 A 
ATOM     17  N   UNL     1       0.829  -4.071  24.451  0.00  0.00    -0.219 NA
ATOM     18  C   UNL     1       1.326  -4.972  23.573  0.00  0.00    +0.147 A 
ATOM     19  N   UNL     1       0.443  -5.657  22.748  0.00  0.00    -0.341 N 
ATOM     20  H   UNL     1       0.885  -6.050  21.924  0.00  0.00    +0.144 HD
ATOM     21  H   UNL     1      -0.437  -5.175  22.632  0.00  0.00    +0.144 HD
ATOM     22  C   UNL     1       2.714  -5.169  23.529  0.00  0.00    +0.147 A 
ATOM     23  N   UNL     1       3.516  -5.962  22.734  0.00  0.00    -0.231 NA
ATOM     24  C   UNL     1       4.739  -5.739  23.164  0.00  0.00    +0.203 A 
ENDBRANCH  11  13
BRANCH  10  25
ATOM     25  O   UNL     1       5.511  -3.057  26.968  0.00  0.00    -0.385 OA
ATOM     26  H   UNL     1       4.641  -3.016  27.417  0.00  0.00    +0.210 HD
ENDBRANCH  10  25
BRANCH   9  27
ATOM     27  O   UNL     1       6.566  -6.362  27.564  0.00  0.00    -0.278 OA
BRANCH  27  28
ATOM     28  P   UNL     1       6.011  -6.572  29.043  0.00  0.00    +0.473 P 
ATOM     29  O   UNL     1       5.865  -5.352  29.875  0.00  0.00    -0.228 OA
BRANCH  28  30
ATOM     30  O   UNL     1       7.006  -7.680  29.611  0.00  0.00    -0.303 OA
ATOM     31  H   UNL     1       7.036  -8.464  29.033  0.00  0.00    +0.222 HD
ENDBRANCH  28  30
BRANCH  28  32
ATOM     32  O   UNL     1       4.690  -7.394  28.707  0.00  0.00    -0.303 OA
ATOM     33  H   UNL     1       3.963  -7.126  29.297  0.00  0.00    +0.222 HD
ENDBRANCH  28  32
ENDBRANCH  27  28
ENDBRANCH   9  27
ENDBRANCH   7   8
ENDBRANCH   6   7
ENDBRANCH   2   6
ENDBRANCH   1   2
BRANCH   1  34
ATOM     34  P   UNL     1       9.538   0.261  23.080  0.00  0.00    +0.483 P 
ATOM     35  O   UNL     1      10.133   0.735  21.803  0.00  0.00    -0.227 OA
BRANCH  34  36
ATOM     36  O   UNL     1      10.619   0.146  24.251  0.00  0.00    -0.302 OA
ATOM     37  H   UNL     1      10.295   0.739  24.962  0.00  0.00    +0.222 HD
ENDBRANCH  34  36
BRANCH  34  38
ATOM     38  O   UNL     1       8.501   1.261  23.783  0.00  0.00    -0.286 OA
BRANCH  38  39
ATOM     39  C   UNL     1       9.043   2.218  24.678  0.00  0.00    +0.181 C 
BRANCH  39  40
ATOM     40  C   UNL     1       8.886   3.656  24.157  0.00  0.00    +0.024 C 
ATOM     41  C   UNL     1       8.427   4.502  25.367  0.00  0.00    +0.016 C 
ATOM     42  C   UNL     1      10.277   4.124  23.707  0.00  0.00    +0.016 C 
BRANCH  40  43
ATOM     43  C   UNL     1       7.834   3.680  22.999  0.00  0.00    +0.208 C 
BRANCH  43  46
ATOM     44  N   UNL     1       5.832   5.097  22.941  0.00  0.00    -0.313 N 
ATOM     45  H   UNL     1       5.343   4.219  23.066  0.00  0.00    +0.149 HD
ATOM     46  C   UNL     1       7.198   5.058  22.741  0.00  0.00    +0.242 C 
ATOM     47  O   UNL     1       7.834   6.051  22.406  0.00  0.00    -0.273 OA
BRANCH  44  48
ATOM     48  C   UNL     1       5.047   6.264  22.611  0.00  0.00    +0.113 C 
BRANCH  48  49
ATOM     49  C   UNL     1       3.534   6.060  22.703  0.00  0.00    +0.114 C 
BRANCH  49  52
ATOM     50  N   UNL     1       2.798   4.420  24.336  0.00  0.00    -0.314 N 
ATOM     51  H   UNL     1       2.774   5.210  24.968  0.00  0.00    +0.149 HD
ATOM     52  C   UNL     1       3.190   4.627  23.034  0.00  0.00    +0.215 C 
ATOM     53  O   UNL     1       3.260   3.737  22.195  0.00  0.00    -0.276 OA
BRANCH  50  54
ATOM     54  C   UNL     1       2.438   3.107  24.850  0.00  0.00    +0.115 C 
BRANCH  54  55
ATOM     55  C   UNL     1       3.394   2.578  25.924  0.00  0.00    +0.096 C 
BRANCH  55  56
ATOM     56  S   UNL     1       4.999   2.083  25.227  0.00  0.00    -0.087 S 
BRANCH  56  57
ATOM     57  C   UNL     1       5.194   0.508  26.005  0.00  0.00    +0.189 C 
ATOM     58  O   UNL     1       4.262  -0.284  26.106  0.00  0.00    -0.285 OA
BRANCH  57  59
ATOM     59  C   UNL     1       6.583   0.307  26.589  0.00  0.00    +0.086 C 
BRANCH  59  60
ATOM     60  C   UNL     1       6.923   1.367  27.629  0.00  0.00    +0.008 C 
BRANCH  60  61
ATOM     61  C   UNL     1       6.347   1.065  29.011  0.00  0.00    +0.000 C 
BRANCH  61  63
ATOM     62  C   UNL     1       4.780   3.027  29.273  0.00  0.00    +0.004 C 
ATOM     63  C   UNL     1       6.047   2.355  29.780  0.00  0.00    -0.003 C 
ENDBRANCH  61  63
ENDBRANCH  60  61
ENDBRANCH  59  60
ENDBRANCH  57  59
ENDBRANCH  56  57
ENDBRANCH  55  56
ENDBRANCH  54  55
ENDBRANCH  50  54
ENDBRANCH  49  52
ENDBRANCH  48  49
ENDBRANCH  44  48
ENDBRANCH  43  46
BRANCH  43  64
ATOM     64  O   UNL     1       8.402   3.233  21.762  0.00  0.00    -0.382 OA
ATOM     65  H   UNL     1       8.652   4.018  21.247  0.00  0.00    +0.210 HD
ENDBRANCH  43  64
ENDBRANCH  40  43
ENDBRANCH  39  40
ENDBRANCH  38  39
ENDBRANCH  34  38
ENDBRANCH   1  34
TORSDOF 30
ENDMDL
MODEL 4
REMARK VINA RESULT:      -6.1      2.307      3.103
REMARK  Name = 
REMARK  33 active torsions:
REMARK  status: ('A' for Active; 'I' for Inactive)
REMARK    1  A    between atoms: C_1  and  C_2
REMARK    2  A    between atoms: C_2  and  C_3
REMARK    3  A    between atoms: C_3  and  C_4
REMARK    4  A    between atoms: C_4  and  C_5
REMARK    5  A    between atoms: C_5  and  C_6
REMARK    6  A    between atoms: C_6  and  S_8
REMARK    7  A    between atoms: S_8  and  C_9
REMARK    8  A    between atoms: C_9  and  C_10
REMARK    9  A    between atoms: C_10  and  N_11
REMARK   10  A    between atoms: C_12  and  C_14
REMARK   11  A    between atoms: C_14  and  C_15
REMARK   12  A    between atoms: C_15  and  N_16
REMARK   13  A    between atoms: C_17  and  C_19
REMARK   14  A    between atoms: C_19  and  O_21
REMARK   15  A    between atoms: C_19  and  C_22
REMARK   16  A    between atoms: C_22  and  C_23
REMARK   17  A    between atoms: C_22  and  C_24
REMARK   18  A    between atoms: C_22  and  C_25
REMARK   19  A    between atoms: C_25  and  O_26
REMARK   20  A    between atoms: O_26  and  P_27
REMARK   21  A    between atoms: P_27  and  O_28
REMARK   22  A    between atoms: P_27  and  O_30
REMARK   23  A    between atoms: O_30  and  P_31
REMARK   24  A    between atoms: P_31  and  O_32
REMARK   25  A    between atoms: P_31  and  O_34
REMARK   26  A    between atoms: O_34  and  C_35
REMARK   27  A    between atoms: C_35  and  C_36
REMARK   28  A    between atoms: C_39  and  N_51
REMARK   29  A    between atoms: C_41  and  O_43
REMARK   30  A    between atoms: C_44  and  O_46
REMARK   31  A    between atoms: O_46  and  P_47
REMARK   32  A    between atoms: P_47  and  O_48
REMARK   33  A    between atoms: P_47  and  O_49
REMARK                            x       y       z     vdW  Elec       q    Type
REMARK                         _______ _______ _______ _____ _____    ______ ____
ROOT
ATOM      1  O   UNL     1       7.626  -3.626  22.460  0.00  0.00    -0.186 OA
ENDROOT
BRANCH   1   2
ATOM      2  P   UNL     1       6.011  -4.247  22.501  0.00  0.00    +0.483 P 
ATOM      3  O   UNL     1       5.850  -3.974  21.006  0.00  0.00    -0.227 OA
BRANCH   2   4
ATOM      4  O   UNL     1       5.489  -2.850  23.180  0.00  0.00    -0.302 OA
ATOM      5  H   UNL     1       6.209  -2.191  23.047  0.00  0.00    +0.222 HD
ENDBRANCH   2   4
BRANCH   2   6
ATOM      6  O   UNL     1       4.397  -4.867  22.543  0.00  0.00    -0.284 OA
BRANCH   6   7
ATOM      7  C   UNL     1       4.261  -6.056  23.294  0.00  0.00    +0.206 C 
BRANCH   7   8
ATOM      8  C   UNL     1       3.298  -5.793  24.443  0.00  0.00    +0.179 C 
ATOM      9  C   UNL     1       3.443  -6.791  25.587  0.00  0.00    +0.194 C 
ATOM     10  C   UNL     1       4.326  -6.098  26.620  0.00  0.00    +0.196 C 
ATOM     11  C   UNL     1       4.520  -4.677  26.069  0.00  0.00    +0.253 C 
ATOM     12  O   UNL     1       3.547  -4.496  25.018  0.00  0.00    -0.346 OA
BRANCH  11  13
ATOM     13  N   UNL     1       4.342  -3.651  27.080  0.00  0.00    -0.286 N 
ATOM     14  C   UNL     1       4.635  -2.325  26.911  0.00  0.00    +0.167 A 
ATOM     15  N   UNL     1       5.107  -1.716  25.807  0.00  0.00    -0.216 NA
ATOM     16  C   UNL     1       5.289  -0.395  26.041  0.00  0.00    +0.225 A 
ATOM     17  N   UNL     1       5.080   0.295  27.185  0.00  0.00    -0.219 NA
ATOM     18  C   UNL     1       4.632  -0.379  28.268  0.00  0.00    +0.147 A 
ATOM     19  N   UNL     1       4.448   0.315  29.457  0.00  0.00    -0.341 N 
ATOM     20  H   UNL     1       3.824  -0.154  30.104  0.00  0.00    +0.144 HD
ATOM     21  H   UNL     1       4.328   1.308  29.315  0.00  0.00    +0.144 HD
ATOM     22  C   UNL     1       4.366  -1.750  28.141  0.00  0.00    +0.147 A 
ATOM     23  N   UNL     1       3.869  -2.687  29.024  0.00  0.00    -0.231 NA
ATOM     24  C   UNL     1       3.851  -3.813  28.344  0.00  0.00    +0.203 A 
ENDBRANCH  11  13
BRANCH  10  25
ATOM     25  O   UNL     1       5.573  -6.782  26.763  0.00  0.00    -0.385 OA
ATOM     26  H   UNL     1       6.269  -6.158  26.470  0.00  0.00    +0.210 HD
ENDBRANCH  10  25
BRANCH   9  27
ATOM     27  O   UNL     1       2.122  -6.939  26.091  0.00  0.00    -0.278 OA
BRANCH  27  28
ATOM     28  P   UNL     1       1.308  -8.283  25.829  0.00  0.00    +0.473 P 
ATOM     29  O   UNL     1       0.579  -8.853  26.988  0.00  0.00    -0.228 OA
BRANCH  28  30
ATOM     30  O   UNL     1       2.425  -9.221  25.187  0.00  0.00    -0.303 OA
ATOM     31  H   UNL     1       3.282  -9.117  25.640  0.00  0.00    +0.222 HD
ENDBRANCH  28  30
BRANCH  28  32
ATOM     32  O   UNL     1       0.444  -7.820  24.574  0.00  0.00    -0.303 OA
ATOM     33  H   UNL     1       0.911  -8.026  23.745  0.00  0.00    +0.222 HD
ENDBRANCH  28  32
ENDBRANCH  27  28
ENDBRANCH   9  27
ENDBRANCH   7   8
ENDBRANCH   6   7
ENDBRANCH   2   6
ENDBRANCH   1   2
BRANCH   1  34
ATOM     34  P   UNL     1       8.409  -2.835  23.581  0.00  0.00    +0.483 P 
ATOM     35  O   UNL     1       9.863  -3.124  23.691  0.00  0.00    -0.227 OA
BRANCH  34  36
ATOM     36  O   UNL     1       7.655  -2.960  24.983  0.00  0.00    -0.302 OA
ATOM     37  H   UNL     1       6.838  -3.469  24.794  0.00  0.00    +0.222 HD
ENDBRANCH  34  36
BRANCH  34  38
ATOM     38  O   UNL     1       8.022  -1.323  23.213  0.00  0.00    -0.286 OA
BRANCH  38  39
ATOM     39  C   UNL     1       8.630  -0.302  23.986  0.00  0.00    +0.181 C 
BRANCH  39  40
ATOM     40  C   UNL     1       9.454   0.667  23.124  0.00  0.00    +0.024 C 
ATOM     41  C   UNL     1      10.736   0.976  23.932  0.00  0.00    +0.016 C 
ATOM     42  C   UNL     1       9.831  -0.084  21.839  0.00  0.00    +0.016 C 
BRANCH  40  43
ATOM     43  C   UNL     1       8.618   1.960  22.845  0.00  0.00    +0.208 C 
BRANCH  43  46
ATOM     44  N   UNL     1       9.569   4.177  23.290  0.00  0.00    -0.313 N 
ATOM     45  H   UNL     1       9.993   4.055  22.378  0.00  0.00    +0.149 HD
ATOM     46  C   UNL     1       8.875   3.115  23.832  0.00  0.00    +0.242 C 
ATOM     47  O   UNL     1       8.488   3.116  24.995  0.00  0.00    -0.273 OA
BRANCH  44  48
ATOM     48  C   UNL     1      10.024   5.283  24.101  0.00  0.00    +0.113 C 
BRANCH  48  49
ATOM     49  C   UNL     1       9.481   6.649  23.676  0.00  0.00    +0.114 C 
BRANCH  49  52
ATOM     50  N   UNL     1       7.104   6.747  24.164  0.00  0.00    -0.314 N 
ATOM     51  H   UNL     1       7.410   6.932  25.111  0.00  0.00    +0.149 HD
ATOM     52  C   UNL     1       8.054   6.549  23.190  0.00  0.00    +0.215 C 
ATOM     53  O   UNL     1       7.788   6.311  22.018  0.00  0.00    -0.276 OA
BRANCH  50  54
ATOM     54  C   UNL     1       5.675   6.678  23.895  0.00  0.00    +0.115 C 
BRANCH  54  55
ATOM     55  C   UNL     1       5.033   5.346  24.294  0.00  0.00    +0.096 C 
BRANCH  55  56
ATOM     56  S   UNL     1       4.914   4.196  22.890  0.00  0.00    -0.087 S 
BRANCH  56  57
ATOM     57  C   UNL     1       3.612   3.149  23.465  0.00  0.00    +0.189 C 
ATOM     58  O   UNL     1       3.765   2.387  24.414  0.00  0.00    -0.285 OA
BRANCH  57  59
ATOM     59  C   UNL     1       2.358   3.246  22.611  0.00  0.00    +0.086 C 
BRANCH  59  60
ATOM     60  C   UNL     1       2.380   4.470  21.704  0.00  0.00    +0.008 C 
BRANCH  60  61
ATOM     61  C   UNL     1       1.031   4.764  21.051  0.00  0.00    +0.000 C 
BRANCH  61  63
ATOM     62  C   UNL     1       1.951   3.821  18.896  0.00  0.00    +0.004 C 
ATOM     63  C   UNL     1       0.776   3.831  19.862  0.00  0.00    -0.003 C 
ENDBRANCH  61  63
ENDBRANCH  60  61
ENDBRANCH  59  60
ENDBRANCH  57  59
ENDBRANCH  56  57
ENDBRANCH  55  56
ENDBRANCH  54  55
ENDBRANCH  50  54
ENDBRANCH  49  52
ENDBRANCH  48  49
ENDBRANCH  44  48
ENDBRANCH  43  46
BRANCH  43  64
ATOM     64  O   UNL     1       8.853   2.466  21.526  0.00  0.00    -0.382 OA
ATOM     65  H   UNL     1       8.408   3.326  21.451  0.00  0.00    +0.210 HD
ENDBRANCH  43  64
ENDBRANCH  40  43
ENDBRANCH  39  40
ENDBRANCH  38  39
ENDBRANCH  34  38
ENDBRANCH   1  34
TORSDOF 30
ENDMDL
MODEL 5
REMARK VINA RESULT:      -6.0      2.326      4.307
REMARK  Name = 
REMARK  33 active torsions:
REMARK  status: ('A' for Active; 'I' for Inactive)
REMARK    1  A    between atoms: C_1  and  C_2
REMARK    2  A    between atoms: C_2  and  C_3
REMARK    3  A    between atoms: C_3  and  C_4
REMARK    4  A    between atoms: C_4  and  C_5
REMARK    5  A    between atoms: C_5  and  C_6
REMARK    6  A    between atoms: C_6  and  S_8
REMARK    7  A    between atoms: S_8  and  C_9
REMARK    8  A    between atoms: C_9  and  C_10
REMARK    9  A    between atoms: C_10  and  N_11
REMARK   10  A    between atoms: C_12  and  C_14
REMARK   11  A    between atoms: C_14  and  C_15
REMARK   12  A    between atoms: C_15  and  N_16
REMARK   13  A    between atoms: C_17  and  C_19
REMARK   14  A    between atoms: C_19  and  O_21
REMARK   15  A    between atoms: C_19  and  C_22
REMARK   16  A    between atoms: C_22  and  C_23
REMARK   17  A    between atoms: C_22  and  C_24
REMARK   18  A    between atoms: C_22  and  C_25
REMARK   19  A    between atoms: C_25  and  O_26
REMARK   20  A    between atoms: O_26  and  P_27
REMARK   21  A    between atoms: P_27  and  O_28
REMARK   22  A    between atoms: P_27  and  O_30
REMARK   23  A    between atoms: O_30  and  P_31
REMARK   24  A    between atoms: P_31  and  O_32
REMARK   25  A    between atoms: P_31  and  O_34
REMARK   26  A    between atoms: O_34  and  C_35
REMARK   27  A    between atoms: C_35  and  C_36
REMARK   28  A    between atoms: C_39  and  N_51
REMARK   29  A    between atoms: C_41  and  O_43
REMARK   30  A    between atoms: C_44  and  O_46
REMARK   31  A    between atoms: O_46  and  P_47
REMARK   32  A    between atoms: P_47  and  O_48
REMARK   33  A    between atoms: P_47  and  O_49
REMARK                            x       y       z     vdW  Elec       q    Type
REMARK                         _______ _______ _______ _____ _____    ______ ____
ROOT
ATOM      1  O   UNL     1       7.375  -3.792  22.361  0.00  0.00    -0.186 OA
ENDROOT
BRANCH   1   2
ATOM      2  P   UNL     1       6.046  -4.855  22.673  0.00  0.00    +0.483 P 
ATOM      3  O   UNL     1       6.173  -5.454  21.272  0.00  0.00    -0.227 OA
BRANCH   2   4
ATOM      4  O   UNL     1       4.999  -3.617  22.441  0.00  0.00    -0.302 OA
ATOM      5  H   UNL     1       4.131  -3.915  22.801  0.00  0.00    +0.222 HD
ENDBRANCH   2   4
BRANCH   2   6
ATOM      6  O   UNL     1       4.716  -5.917  22.984  0.00  0.00    -0.284 OA
BRANCH   6   7
ATOM      7  C   UNL     1       4.861  -6.682  24.165  0.00  0.00    +0.206 C 
BRANCH   7   8
ATOM      8  C   UNL     1       3.720  -6.332  25.109  0.00  0.00    +0.179 C 
ATOM      9  C   UNL     1       4.094  -6.478  26.580  0.00  0.00    +0.194 C 
ATOM     10  C   UNL     1       4.458  -5.072  27.048  0.00  0.00    +0.196 C 
ATOM     11  C   UNL     1       4.131  -4.171  25.847  0.00  0.00    +0.253 C 
ATOM     12  O   UNL     1       3.331  -4.955  24.936  0.00  0.00    -0.346 OA
BRANCH  11  13
ATOM     13  N   UNL     1       3.406  -2.972  26.223  0.00  0.00    -0.286 N 
ATOM     14  C   UNL     1       3.964  -1.874  26.820  0.00  0.00    +0.167 A 
ATOM     15  N   UNL     1       5.255  -1.676  27.147  0.00  0.00    -0.216 NA
ATOM     16  C   UNL     1       5.409  -0.470  27.742  0.00  0.00    +0.225 A 
ATOM     17  N   UNL     1       4.466   0.455  28.030  0.00  0.00    -0.219 NA
ATOM     18  C   UNL     1       3.181   0.185  27.703  0.00  0.00    +0.147 A 
ATOM     19  N   UNL     1       2.201   1.113  28.027  0.00  0.00    -0.341 N 
ATOM     20  H   UNL     1       1.352   1.009  27.482  0.00  0.00    +0.144 HD
ATOM     21  H   UNL     1       2.572   2.044  28.155  0.00  0.00    +0.144 HD
ATOM     22  C   UNL     1       2.898  -1.020  27.042  0.00  0.00    +0.147 A 
ATOM     23  N   UNL     1       1.726  -1.554  26.546  0.00  0.00    -0.231 NA
ATOM     24  C   UNL     1       2.076  -2.719  26.043  0.00  0.00    +0.203 A 
ENDBRANCH  11  13
BRANCH  10  25
ATOM     25  O   UNL     1       5.841  -4.997  27.403  0.00  0.00    -0.385 OA
ATOM     26  H   UNL     1       5.886  -4.498  28.244  0.00  0.00    +0.210 HD
ENDBRANCH  10  25
BRANCH   9  27
ATOM     27  O   UNL     1       2.891  -6.907  27.205  0.00  0.00    -0.278 OA
BRANCH  27  28
ATOM     28  P   UNL     1       2.820  -7.065  28.788  0.00  0.00    +0.473 P 
ATOM     29  O   UNL     1       2.346  -5.884  29.551  0.00  0.00    -0.228 OA
BRANCH  28  30
ATOM     30  O   UNL     1       4.294  -7.563  29.133  0.00  0.00    -0.303 OA
ATOM     31  H   UNL     1       4.665  -8.107  28.414  0.00  0.00    +0.222 HD
ENDBRANCH  28  30
BRANCH  28  32
ATOM     32  O   UNL     1       1.947  -8.393  28.876  0.00  0.00    -0.303 OA
ATOM     33  H   UNL     1       1.111  -8.284  28.387  0.00  0.00    +0.222 HD
ENDBRANCH  28  32
ENDBRANCH  27  28
ENDBRANCH   9  27
ENDBRANCH   7   8
ENDBRANCH   6   7
ENDBRANCH   2   6
ENDBRANCH   1   2
BRANCH   1  34
ATOM     34  P   UNL     1       7.905  -2.589  23.237  0.00  0.00    +0.483 P 
ATOM     35  O   UNL     1       9.220  -2.794  23.901  0.00  0.00    -0.227 OA
BRANCH  34  36
ATOM     36  O   UNL     1       6.776  -2.101  24.256  0.00  0.00    -0.302 OA
ATOM     37  H   UNL     1       6.954  -2.584  25.091  0.00  0.00    +0.222 HD
ENDBRANCH  34  36
BRANCH  34  38
ATOM     38  O   UNL     1       7.836  -1.387  22.178  0.00  0.00    -0.286 OA
BRANCH  38  39
ATOM     39  C   UNL     1       7.623  -0.087  22.701  0.00  0.00    +0.181 C 
BRANCH  39  40
ATOM     40  C   UNL     1       8.857   0.814  22.539  0.00  0.00    +0.024 C 
ATOM     41  C   UNL     1       9.821   0.057  21.595  0.00  0.00    +0.016 C 
ATOM     42  C   UNL     1       8.384   2.104  21.853  0.00  0.00    +0.016 C 
BRANCH  40  43
ATOM     43  C   UNL     1       9.502   1.075  23.940  0.00  0.00    +0.208 C 
BRANCH  43  46
ATOM     44  N   UNL     1       8.017   2.595  25.166  0.00  0.00    -0.313 N 
ATOM     45  H   UNL     1       8.478   3.310  24.615  0.00  0.00    +0.149 HD
ATOM     46  C   UNL     1       8.490   1.301  25.079  0.00  0.00    +0.242 C 
ATOM     47  O   UNL     1       8.110   0.418  25.838  0.00  0.00    -0.273 OA
BRANCH  44  48
ATOM     48  C   UNL     1       7.172   3.026  26.256  0.00  0.00    +0.113 C 
BRANCH  48  49
ATOM     49  C   UNL     1       5.674   3.009  25.945  0.00  0.00    +0.114 C 
BRANCH  49  52
ATOM     50  N   UNL     1       5.030   4.786  24.420  0.00  0.00    -0.314 N 
ATOM     51  H   UNL     1       4.961   5.344  25.261  0.00  0.00    +0.149 HD
ATOM     52  C   UNL     1       5.399   3.466  24.531  0.00  0.00    +0.215 C 
ATOM     53  O   UNL     1       5.504   2.706  23.577  0.00  0.00    -0.276 OA
BRANCH  50  54
ATOM     54  C   UNL     1       4.713   5.409  23.143  0.00  0.00    +0.115 C 
BRANCH  54  55
ATOM     55  C   UNL     1       5.675   6.532  22.746  0.00  0.00    +0.096 C 
BRANCH  55  56
ATOM     56  S   UNL     1       7.278   5.890  22.174  0.00  0.00    -0.087 S 
BRANCH  56  57
ATOM     57  C   UNL     1       8.233   6.106  23.646  0.00  0.00    +0.189 C 
ATOM     58  O   UNL     1       7.705   6.261  24.743  0.00  0.00    -0.285 OA
BRANCH  57  59
ATOM     59  C   UNL     1       9.727   6.162  23.375  0.00  0.00    +0.086 C 
BRANCH  59  60
ATOM     60  C   UNL     1      10.481   5.059  24.107  0.00  0.00    +0.008 C 
BRANCH  60  61
ATOM     61  C   UNL     1      11.581   4.415  23.264  0.00  0.00    +0.000 C 
BRANCH  61  63
ATOM     62  C   UNL     1      13.345   5.650  21.945  0.00  0.00    +0.004 C 
ATOM     63  C   UNL     1      12.877   5.230  23.330  0.00  0.00    -0.003 C 
ENDBRANCH  61  63
ENDBRANCH  60  61
ENDBRANCH  59  60
ENDBRANCH  57  59
ENDBRANCH  56  57
ENDBRANCH  55  56
ENDBRANCH  54  55
ENDBRANCH  50  54
ENDBRANCH  49  52
ENDBRANCH  48  49
ENDBRANCH  44  48
ENDBRANCH  43  46
BRANCH  43  64
ATOM     64  O   UNL     1      10.356  -0.005  24.336  0.00  0.00    -0.382 OA
ATOM     65  H   UNL     1      10.934   0.316  25.049  0.00  0.00    +0.210 HD
ENDBRANCH  43  64
ENDBRANCH  40  43
ENDBRANCH  39  40
ENDBRANCH  38  39
ENDBRANCH  34  38
ENDBRANCH   1  34
TORSDOF 30
ENDMDL
MODEL 6
REMARK VINA RESULT:      -6.0      3.331      5.627
REMARK  Name = 
REMARK  33 active torsions:
REMARK  status: ('A' for Active; 'I' for Inactive)
REMARK    1  A    between atoms: C_1  and  C_2
REMARK    2  A    between atoms: C_2  and  C_3
REMARK    3  A    between atoms: C_3  and  C_4
REMARK    4  A    between atoms: C_4  and  C_5
REMARK    5  A    between atoms: C_5  and  C_6
REMARK    6  A    between atoms: C_6  and  S_8
REMARK    7  A    between atoms: S_8  and  C_9
REMARK    8  A    between atoms: C_9  and  C_10
REMARK    9  A    between atoms: C_10  and  N_11
REMARK   10  A    between atoms: C_12  and  C_14
REMARK   11  A    between atoms: C_14  and  C_15
REMARK   12  A    between atoms: C_15  and  N_16
REMARK   13  A    between atoms: C_17  and  C_19
REMARK   14  A    between atoms: C_19  and  O_21
REMARK   15  A    between atoms: C_19  and  C_22
REMARK   16  A    between atoms: C_22  and  C_23
REMARK   17  A    between atoms: C_22  and  C_24
REMARK   18  A    between atoms: C_22  and  C_25
REMARK   19  A    between atoms: C_25  and  O_26
REMARK   20  A    between atoms: O_26  and  P_27
REMARK   21  A    between atoms: P_27  and  O_28
REMARK   22  A    between atoms: P_27  and  O_30
REMARK   23  A    between atoms: O_30  and  P_31
REMARK   24  A    between atoms: P_31  and  O_32
REMARK   25  A    between atoms: P_31  and  O_34
REMARK   26  A    between atoms: O_34  and  C_35
REMARK   27  A    between atoms: C_35  and  C_36
REMARK   28  A    between atoms: C_39  and  N_51
REMARK   29  A    between atoms: C_41  and  O_43
REMARK   30  A    between atoms: C_44  and  O_46
REMARK   31  A    between atoms: O_46  and  P_47
REMARK   32  A    between atoms: P_47  and  O_48
REMARK   33  A    between atoms: P_47  and  O_49
REMARK                            x       y       z     vdW  Elec       q    Type
REMARK                         _______ _______ _______ _____ _____    ______ ____
ROOT
ATOM      1  O   UNL     1      10.012  -3.209  23.787  0.00  0.00    -0.186 OA
ENDROOT
BRANCH   1   2
ATOM      2  P   UNL     1       9.287  -4.144  25.050  0.00  0.00    +0.483 P 
ATOM      3  O   UNL     1       8.697  -5.109  24.021  0.00  0.00    -0.227 OA
BRANCH   2   4
ATOM      4  O   UNL     1       8.106  -3.019  25.207  0.00  0.00    -0.302 OA
ATOM      5  H   UNL     1       7.652  -2.970  24.334  0.00  0.00    +0.222 HD
ENDBRANCH   2   4
BRANCH   2   6
ATOM      6  O   UNL     1       8.562  -5.078  26.312  0.00  0.00    -0.284 OA
BRANCH   6   7
ATOM      7  C   UNL     1       7.613  -4.363  27.078  0.00  0.00    +0.206 C 
BRANCH   7   8
ATOM      8  C   UNL     1       6.356  -5.211  27.203  0.00  0.00    +0.179 C 
ATOM      9  C   UNL     1       5.163  -4.437  27.754  0.00  0.00    +0.194 C 
ATOM     10  C   UNL     1       4.350  -4.021  26.533  0.00  0.00    +0.196 C 
ATOM     11  C   UNL     1       5.052  -4.709  25.351  0.00  0.00    +0.253 C 
ATOM     12  O   UNL     1       5.947  -5.694  25.908  0.00  0.00    -0.346 OA
BRANCH  11  13
ATOM     13  N   UNL     1       4.123  -5.354  24.442  0.00  0.00    -0.286 N 
ATOM     14  C   UNL     1       3.467  -6.528  24.695  0.00  0.00    +0.167 A 
ATOM     15  N   UNL     1       3.526  -7.287  25.805  0.00  0.00    -0.216 NA
ATOM     16  C   UNL     1       2.748  -8.386  25.666  0.00  0.00    +0.225 A 
ATOM     17  N   UNL     1       2.006  -8.763  24.600  0.00  0.00    -0.219 NA
ATOM     18  C   UNL     1       2.010  -7.974  23.503  0.00  0.00    +0.147 A 
ATOM     19  N   UNL     1       1.280  -8.372  22.391  0.00  0.00    -0.341 N 
ATOM     20  H   UNL     1       1.064  -7.610  21.757  0.00  0.00    +0.144 HD
ATOM     21  H   UNL     1       0.541  -9.021  22.621  0.00  0.00    +0.144 HD
ATOM     22  C   UNL     1       2.748  -6.781  23.539  0.00  0.00    +0.147 A 
ATOM     23  N   UNL     1       2.914  -5.762  22.623  0.00  0.00    -0.231 NA
ATOM     24  C   UNL     1       3.731  -4.914  23.210  0.00  0.00    +0.203 A 
ENDBRANCH  11  13
BRANCH  10  25
ATOM     25  O   UNL     1       4.343  -2.599  26.387  0.00  0.00    -0.385 OA
ATOM     26  H   UNL     1       4.188  -2.228  27.280  0.00  0.00    +0.210 HD
ENDBRANCH  10  25
BRANCH   9  27
ATOM     27  O   UNL     1       4.446  -5.399  28.517  0.00  0.00    -0.278 OA
BRANCH  27  28
ATOM     28  P   UNL     1       5.229  -6.463  29.408  0.00  0.00    +0.473 P 
ATOM     29  O   UNL     1       6.403  -5.959  30.163  0.00  0.00    -0.228 OA
BRANCH  28  30
ATOM     30  O   UNL     1       5.532  -7.615  28.349  0.00  0.00    -0.303 OA
ATOM     31  H   UNL     1       5.282  -7.346  27.446  0.00  0.00    +0.222 HD
ENDBRANCH  28  30
BRANCH  28  32
ATOM     32  O   UNL     1       4.009  -7.041  30.250  0.00  0.00    -0.303 OA
ATOM     33  H   UNL     1       4.066  -6.749  31.178  0.00  0.00    +0.222 HD
ENDBRANCH  28  32
ENDBRANCH  27  28
ENDBRANCH   9  27
ENDBRANCH   7   8
ENDBRANCH   6   7
ENDBRANCH   2   6
ENDBRANCH   1   2
BRANCH   1  34
ATOM     34  P   UNL     1       9.373  -2.052  22.923  0.00  0.00    +0.483 P 
ATOM     35  O   UNL     1       8.032  -2.331  22.345  0.00  0.00    -0.227 OA
BRANCH  34  36
ATOM     36  O   UNL     1      10.413  -1.534  21.827  0.00  0.00    -0.302 OA
ATOM     37  H   UNL     1      10.177  -0.595  21.669  0.00  0.00    +0.222 HD
ENDBRANCH  34  36
BRANCH  34  38
ATOM     38  O   UNL     1       9.450  -0.825  23.953  0.00  0.00    -0.286 OA
BRANCH  38  39
ATOM     39  C   UNL     1      10.263   0.274  23.577  0.00  0.00    +0.181 C 
BRANCH  39  40
ATOM     40  C   UNL     1       9.455   1.573  23.433  0.00  0.00    +0.024 C 
ATOM     41  C   UNL     1       8.831   1.846  24.821  0.00  0.00    +0.016 C 
ATOM     42  C   UNL     1      10.455   2.689  23.097  0.00  0.00    +0.016 C 
BRANCH  40  43
ATOM     43  C   UNL     1       8.361   1.389  22.330  0.00  0.00    +0.208 C 
BRANCH  43  46
ATOM     44  N   UNL     1       6.036   2.091  22.675  0.00  0.00    -0.313 N 
ATOM     45  H   UNL     1       5.869   1.097  22.780  0.00  0.00    +0.149 HD
ATOM     46  C   UNL     1       7.296   2.502  22.291  0.00  0.00    +0.242 C 
ATOM     47  O   UNL     1       7.534   3.660  21.971  0.00  0.00    -0.273 OA
BRANCH  44  48
ATOM     48  C   UNL     1       4.886   2.959  22.566  0.00  0.00    +0.113 C 
BRANCH  48  49
ATOM     49  C   UNL     1       4.445   3.601  23.883  0.00  0.00    +0.114 C 
BRANCH  49  52
ATOM     50  N   UNL     1       2.702   3.368  25.558  0.00  0.00    -0.314 N 
ATOM     51  H   UNL     1       3.416   3.689  26.199  0.00  0.00    +0.149 HD
ATOM     52  C   UNL     1       3.022   3.229  24.228  0.00  0.00    +0.215 C 
ATOM     53  O   UNL     1       2.233   2.840  23.376  0.00  0.00    -0.276 OA
BRANCH  50  54
ATOM     54  C   UNL     1       1.384   3.048  26.088  0.00  0.00    +0.115 C 
BRANCH  54  55
ATOM     55  C   UNL     1       1.280   1.641  26.684  0.00  0.00    +0.096 C 
BRANCH  55  56
ATOM     56  S   UNL     1       2.388   1.418  28.109  0.00  0.00    -0.087 S 
BRANCH  56  57
ATOM     57  C   UNL     1       3.892   1.030  27.266  0.00  0.00    +0.189 C 
ATOM     58  O   UNL     1       3.899   0.417  26.203  0.00  0.00    -0.285 OA
BRANCH  57  59
ATOM     59  C   UNL     1       5.128   1.456  28.041  0.00  0.00    +0.086 C 
BRANCH  59  60
ATOM     60  C   UNL     1       6.090   2.263  27.180  0.00  0.00    +0.008 C 
BRANCH  60  61
ATOM     61  C   UNL     1       5.990   3.770  27.410  0.00  0.00    +0.000 C 
BRANCH  61  63
ATOM     62  C   UNL     1       7.182   5.091  25.619  0.00  0.00    +0.004 C 
ATOM     63  C   UNL     1       7.286   4.480  27.008  0.00  0.00    -0.003 C 
ENDBRANCH  61  63
ENDBRANCH  60  61
ENDBRANCH  59  60
ENDBRANCH  57  59
ENDBRANCH  56  57
ENDBRANCH  55  56
ENDBRANCH  54  55
ENDBRANCH  50  54
ENDBRANCH  49  52
ENDBRANCH  48  49
ENDBRANCH  44  48
ENDBRANCH  43  46
BRANCH  43  64
ATOM     64  O   UNL     1       8.940   1.306  21.022  0.00  0.00    -0.382 OA
ATOM     65  H   UNL     1       9.552   0.551  21.013  0.00  0.00    +0.210 HD
ENDBRANCH  43  64
ENDBRANCH  40  43
ENDBRANCH  39  40
ENDBRANCH  38  39
ENDBRANCH  34  38
ENDBRANCH   1  34
TORSDOF 30
ENDMDL
MODEL 7
REMARK VINA RESULT:      -6.0      3.804      7.140
REMARK  Name = 
REMARK  33 active torsions:
REMARK  status: ('A' for Active; 'I' for Inactive)
REMARK    1  A    between atoms: C_1  and  C_2
REMARK    2  A    between atoms: C_2  and  C_3
REMARK    3  A    between atoms: C_3  and  C_4
REMARK    4  A    between atoms: C_4  and  C_5
REMARK    5  A    between atoms: C_5  and  C_6
REMARK    6  A    between atoms: C_6  and  S_8
REMARK    7  A    between atoms: S_8  and  C_9
REMARK    8  A    between atoms: C_9  and  C_10
REMARK    9  A    between atoms: C_10  and  N_11
REMARK   10  A    between atoms: C_12  and  C_14
REMARK   11  A    between atoms: C_14  and  C_15
REMARK   12  A    between atoms: C_15  and  N_16
REMARK   13  A    between atoms: C_17  and  C_19
REMARK   14  A    between atoms: C_19  and  O_21
REMARK   15  A    between atoms: C_19  and  C_22
REMARK   16  A    between atoms: C_22  and  C_23
REMARK   17  A    between atoms: C_22  and  C_24
REMARK   18  A    between atoms: C_22  and  C_25
REMARK   19  A    between atoms: C_25  and  O_26
REMARK   20  A    between atoms: O_26  and  P_27
REMARK   21  A    between atoms: P_27  and  O_28
REMARK   22  A    between atoms: P_27  and  O_30
REMARK   23  A    between atoms: O_30  and  P_31
REMARK   24  A    between atoms: P_31  and  O_32
REMARK   25  A    between atoms: P_31  and  O_34
REMARK   26  A    between atoms: O_34  and  C_35
REMARK   27  A    between atoms: C_35  and  C_36
REMARK   28  A    between atoms: C_39  and  N_51
REMARK   29  A    between atoms: C_41  and  O_43
REMARK   30  A    between atoms: C_44  and  O_46
REMARK   31  A    between atoms: O_46  and  P_47
REMARK   32  A    between atoms: P_47  and  O_48
REMARK   33  A    between atoms: P_47  and  O_49
REMARK                            x       y       z     vdW  Elec       q    Type
REMARK                         _______ _______ _______ _____ _____    ______ ____
ROOT
ATOM      1  O   UNL     1       7.559   4.402  27.087  0.00  0.00    -0.186 OA
ENDROOT
BRANCH   1   2
ATOM      2  P   UNL     1       6.706   3.271  28.082  0.00  0.00    +0.483 P 
ATOM      3  O   UNL     1       7.568   3.653  29.285  0.00  0.00    -0.227 OA
BRANCH   2   4
ATOM      4  O   UNL     1       7.552   2.039  27.411  0.00  0.00    -0.302 OA
ATOM      5  H   UNL     1       6.907   1.518  26.878  0.00  0.00    +0.222 HD
ENDBRANCH   2   4
BRANCH   2   6
ATOM      6  O   UNL     1       5.854   2.141  29.076  0.00  0.00    -0.284 OA
BRANCH   6   7
ATOM      7  C   UNL     1       6.112   0.789  28.753  0.00  0.00    +0.206 C 
BRANCH   7   8
ATOM      8  C   UNL     1       4.789   0.108  28.435  0.00  0.00    +0.179 C 
ATOM      9  C   UNL     1       4.079   0.712  27.228  0.00  0.00    +0.194 C 
ATOM     10  C   UNL     1       4.436  -0.194  26.053  0.00  0.00    +0.196 C 
ATOM     11  C   UNL     1       5.218  -1.355  26.687  0.00  0.00    +0.253 C 
ATOM     12  O   UNL     1       5.004  -1.280  28.112  0.00  0.00    -0.346 OA
BRANCH  11  13
ATOM     13  N   UNL     1       4.793  -2.654  26.199  0.00  0.00    -0.286 N 
ATOM     14  C   UNL     1       5.354  -3.849  26.559  0.00  0.00    +0.167 A 
ATOM     15  N   UNL     1       6.362  -4.062  27.426  0.00  0.00    -0.216 NA
ATOM     16  C   UNL     1       6.648  -5.383  27.499  0.00  0.00    +0.225 A 
ATOM     17  N   UNL     1       6.078  -6.407  26.824  0.00  0.00    -0.219 NA
ATOM     18  C   UNL     1       5.089  -6.126  25.945  0.00  0.00    +0.147 A 
ATOM     19  N   UNL     1       4.523  -7.167  25.221  0.00  0.00    -0.341 N 
ATOM     20  H   UNL     1       3.607  -6.946  24.847  0.00  0.00    +0.144 HD
ATOM     21  H   UNL     1       4.652  -8.065  25.664  0.00  0.00    +0.144 HD
ATOM     22  C   UNL     1       4.674  -4.793  25.809  0.00  0.00    +0.147 A 
ATOM     23  N   UNL     1       3.685  -4.200  25.051  0.00  0.00    -0.231 NA
ATOM     24  C   UNL     1       3.775  -2.916  25.327  0.00  0.00    +0.203 A 
ENDBRANCH  11  13
BRANCH  10  25
ATOM     25  O   UNL     1       5.224   0.509  25.090  0.00  0.00    -0.385 OA
ATOM     26  H   UNL     1       5.820   1.100  25.596  0.00  0.00    +0.210 HD
ENDBRANCH  10  25
BRANCH   9  27
ATOM     27  O   UNL     1       2.697   0.591  27.539  0.00  0.00    -0.278 OA
BRANCH  27  28
ATOM     28  P   UNL     1       1.797   1.893  27.716  0.00  0.00    +0.473 P 
ATOM     29  O   UNL     1       1.155   2.426  26.489  0.00  0.00    -0.228 OA
BRANCH  28  30
ATOM     30  O   UNL     1       2.800   2.885  28.457  0.00  0.00    -0.303 OA
ATOM     31  H   UNL     1       3.178   2.479  29.259  0.00  0.00    +0.222 HD
ENDBRANCH  28  30
BRANCH  28  32
ATOM     32  O   UNL     1       0.841   1.388  28.884  0.00  0.00    -0.303 OA
ATOM     33  H   UNL     1       0.288   0.647  28.575  0.00  0.00    +0.222 HD
ENDBRANCH  28  32
ENDBRANCH  27  28
ENDBRANCH   9  27
ENDBRANCH   7   8
ENDBRANCH   6   7
ENDBRANCH   2   6
ENDBRANCH   1   2
BRANCH   1  34
ATOM     34  P   UNL     1       7.356   5.964  26.969  0.00  0.00    +0.483 P 
ATOM     35  O   UNL     1       8.442   6.714  26.285  0.00  0.00    -0.227 OA
BRANCH  34  36
ATOM     36  O   UNL     1       6.985   6.588  28.392  0.00  0.00    -0.302 OA
ATOM     37  H   UNL     1       6.517   5.873  28.874  0.00  0.00    +0.222 HD
ENDBRANCH  34  36
BRANCH  34  38
ATOM     38  O   UNL     1       5.912   6.031  26.274  0.00  0.00    -0.286 OA
BRANCH  38  39
ATOM     39  C   UNL     1       5.889   6.169  24.863  0.00  0.00    +0.181 C 
BRANCH  39  40
ATOM     40  C   UNL     1       5.225   4.968  24.172  0.00  0.00    +0.024 C 
ATOM     41  C   UNL     1       4.321   4.306  25.238  0.00  0.00    +0.016 C 
ATOM     42  C   UNL     1       4.351   5.528  23.041  0.00  0.00    +0.016 C 
BRANCH  40  43
ATOM     43  C   UNL     1       6.328   3.986  23.655  0.00  0.00    +0.208 C 
BRANCH  43  46
ATOM     44  N   UNL     1       8.725   4.368  24.009  0.00  0.00    -0.313 N 
ATOM     45  H   UNL     1       8.559   3.885  24.884  0.00  0.00    +0.149 HD
ATOM     46  C   UNL     1       7.637   4.668  23.215  0.00  0.00    +0.242 C 
ATOM     47  O   UNL     1       7.728   5.401  22.237  0.00  0.00    -0.273 OA
BRANCH  44  48
ATOM     48  C   UNL     1      10.000   5.024  23.834  0.00  0.00    +0.113 C 
BRANCH  48  49
ATOM     49  C   UNL     1      11.122   4.114  23.332  0.00  0.00    +0.114 C 
BRANCH  49  52
ATOM     50  N   UNL     1      10.137   2.333  22.007  0.00  0.00    -0.314 N 
ATOM     51  H   UNL     1      10.086   3.038  21.283  0.00  0.00    +0.149 HD
ATOM     52  C   UNL     1      10.663   2.678  23.230  0.00  0.00    +0.215 C 
ATOM     53  O   UNL     1      10.761   1.902  24.172  0.00  0.00    -0.276 OA
BRANCH  50  54
ATOM     54  C   UNL     1       9.630   0.999  21.717  0.00  0.00    +0.115 C 
BRANCH  54  55
ATOM     55  C   UNL     1       8.137   0.827  22.013  0.00  0.00    +0.096 C 
BRANCH  55  56
ATOM     56  S   UNL     1       7.771  -0.787  22.768  0.00  0.00    -0.087 S 
BRANCH  56  57
ATOM     57  C   UNL     1       8.428  -0.518  24.387  0.00  0.00    +0.189 C 
ATOM     58  O   UNL     1       8.022   0.386  25.109  0.00  0.00    -0.285 OA
BRANCH  57  59
ATOM     59  C   UNL     1       9.576  -1.458  24.720  0.00  0.00    +0.086 C 
BRANCH  59  60
ATOM     60  C   UNL     1       9.433  -2.802  24.017  0.00  0.00    +0.008 C 
BRANCH  60  61
ATOM     61  C   UNL     1       9.148  -3.958  24.975  0.00  0.00    +0.000 C 
BRANCH  61  63
ATOM     62  C   UNL     1       7.412  -4.524  23.230  0.00  0.00    +0.004 C 
ATOM     63  C   UNL     1       8.369  -5.077  24.276  0.00  0.00    -0.003 C 
ENDBRANCH  61  63
ENDBRANCH  60  61
ENDBRANCH  59  60
ENDBRANCH  57  59
ENDBRANCH  56  57
ENDBRANCH  55  56
ENDBRANCH  54  55
ENDBRANCH  50  54
ENDBRANCH  49  52
ENDBRANCH  48  49
ENDBRANCH  44  48
ENDBRANCH  43  46
BRANCH  43  64
ATOM     64  O   UNL     1       6.667   3.007  24.644  0.00  0.00    -0.382 OA
ATOM     65  H   UNL     1       6.193   3.231  25.462  0.00  0.00    +0.210 HD
ENDBRANCH  43  64
ENDBRANCH  40  43
ENDBRANCH  39  40
ENDBRANCH  38  39
ENDBRANCH  34  38
ENDBRANCH   1  34
TORSDOF 30
ENDMDL
MODEL 8
REMARK VINA RESULT:      -5.9      2.954      5.319
REMARK  Name = 
REMARK  33 active torsions:
REMARK  status: ('A' for Active; 'I' for Inactive)
REMARK    1  A    between atoms: C_1  and  C_2
REMARK    2  A    between atoms: C_2  and  C_3
REMARK    3  A    between atoms: C_3  and  C_4
REMARK    4  A    between atoms: C_4  and  C_5
REMARK    5  A    between atoms: C_5  and  C_6
REMARK    6  A    between atoms: C_6  and  S_8
REMARK    7  A    between atoms: S_8  and  C_9
REMARK    8  A    between atoms: C_9  and  C_10
REMARK    9  A    between atoms: C_10  and  N_11
REMARK   10  A    between atoms: C_12  and  C_14
REMARK   11  A    between atoms: C_14  and  C_15
REMARK   12  A    between atoms: C_15  and  N_16
REMARK   13  A    between atoms: C_17  and  C_19
REMARK   14  A    between atoms: C_19  and  O_21
REMARK   15  A    between atoms: C_19  and  C_22
REMARK   16  A    between atoms: C_22  and  C_23
REMARK   17  A    between atoms: C_22  and  C_24
REMARK   18  A    between atoms: C_22  and  C_25
REMARK   19  A    between atoms: C_25  and  O_26
REMARK   20  A    between atoms: O_26  and  P_27
REMARK   21  A    between atoms: P_27  and  O_28
REMARK   22  A    between atoms: P_27  and  O_30
REMARK   23  A    between atoms: O_30  and  P_31
REMARK   24  A    between atoms: P_31  and  O_32
REMARK   25  A    between atoms: P_31  and  O_34
REMARK   26  A    between atoms: O_34  and  C_35
REMARK   27  A    between atoms: C_35  and  C_36
REMARK   28  A    between atoms: C_39  and  N_51
REMARK   29  A    between atoms: C_41  and  O_43
REMARK   30  A    between atoms: C_44  and  O_46
REMARK   31  A    between atoms: O_46  and  P_47
REMARK   32  A    between atoms: P_47  and  O_48
REMARK   33  A    between atoms: P_47  and  O_49
REMARK                            x       y       z     vdW  Elec       q    Type
REMARK                         _______ _______ _______ _____ _____    ______ ____
ROOT
ATOM      1  O   UNL     1       8.696  -1.335  23.127  0.00  0.00    -0.186 OA
ENDROOT
BRANCH   1   2
ATOM      2  P   UNL     1       9.116  -2.841  23.868  0.00  0.00    +0.483 P 
ATOM      3  O   UNL     1       9.175  -2.169  25.240  0.00  0.00    -0.227 OA
BRANCH   2   4
ATOM      4  O   UNL     1      10.654  -2.681  23.324  0.00  0.00    -0.302 OA
ATOM      5  H   UNL     1      10.813  -3.440  22.716  0.00  0.00    +0.222 HD
ENDBRANCH   2   4
BRANCH   2   6
ATOM      6  O   UNL     1       9.538  -4.346  24.609  0.00  0.00    -0.284 OA
BRANCH   6   7
ATOM      7  C   UNL     1       9.203  -4.421  25.980  0.00  0.00    +0.206 C 
BRANCH   7   8
ATOM      8  C   UNL     1       8.069  -5.421  26.146  0.00  0.00    +0.179 C 
ATOM      9  C   UNL     1       7.137  -5.084  27.305  0.00  0.00    +0.194 C 
ATOM     10  C   UNL     1       5.951  -4.361  26.675  0.00  0.00    +0.196 C 
ATOM     11  C   UNL     1       6.204  -4.454  25.162  0.00  0.00    +0.253 C 
ATOM     12  O   UNL     1       7.240  -5.440  24.967  0.00  0.00    -0.346 OA
BRANCH  11  13
ATOM     13  N   UNL     1       5.021  -4.837  24.415  0.00  0.00    -0.286 N 
ATOM     14  C   UNL     1       4.294  -5.977  24.629  0.00  0.00    +0.167 A 
ATOM     15  N   UNL     1       4.503  -6.930  25.557  0.00  0.00    -0.216 NA
ATOM     16  C   UNL     1       3.580  -7.913  25.438  0.00  0.00    +0.225 A 
ATOM     17  N   UNL     1       2.577  -8.022  24.538  0.00  0.00    -0.219 NA
ATOM     18  C   UNL     1       2.436  -7.046  23.612  0.00  0.00    +0.147 A 
ATOM     19  N   UNL     1       1.430  -7.168  22.662  0.00  0.00    -0.341 N 
ATOM     20  H   UNL     1       1.177  -6.287  22.229  0.00  0.00    +0.144 HD
ATOM     21  H   UNL     1       0.685  -7.783  22.959  0.00  0.00    +0.144 HD
ATOM     22  C   UNL     1       3.309  -5.949  23.657  0.00  0.00    +0.147 A 
ATOM     23  N   UNL     1       3.394  -4.797  22.902  0.00  0.00    -0.231 NA
ATOM     24  C   UNL     1       4.423  -4.145  23.400  0.00  0.00    +0.203 A 
ENDBRANCH  11  13
BRANCH  10  25
ATOM     25  O   UNL     1       5.890  -3.003  27.117  0.00  0.00    -0.385 OA
ATOM     26  H   UNL     1       5.051  -2.634  26.769  0.00  0.00    +0.210 HD
ENDBRANCH  10  25
BRANCH   9  27
ATOM     27  O   UNL     1       6.730  -6.351  27.806  0.00  0.00    -0.278 OA
BRANCH  27  28
ATOM     28  P   UNL     1       5.929  -6.452  29.180  0.00  0.00    +0.473 P 
ATOM     29  O   UNL     1       5.619  -5.171  29.861  0.00  0.00    -0.228 OA
BRANCH  28  30
ATOM     30  O   UNL     1       6.830  -7.474  30.008  0.00  0.00    -0.303 OA
ATOM     31  H   UNL     1       6.426  -8.361  30.041  0.00  0.00    +0.222 HD
ENDBRANCH  28  30
BRANCH  28  32
ATOM     32  O   UNL     1       4.702  -7.343  28.697  0.00  0.00    -0.303 OA
ATOM     33  H   UNL     1       4.522  -7.190  27.752  0.00  0.00    +0.222 HD
ENDBRANCH  28  32
ENDBRANCH  27  28
ENDBRANCH   9  27
ENDBRANCH   7   8
ENDBRANCH   6   7
ENDBRANCH   2   6
ENDBRANCH   1   2
BRANCH   1  34
ATOM     34  P   UNL     1       9.490   0.030  23.143  0.00  0.00    +0.483 P 
ATOM     35  O   UNL     1      10.056   0.473  21.842  0.00  0.00    -0.227 OA
BRANCH  34  36
ATOM     36  O   UNL     1      10.578   0.029  24.313  0.00  0.00    -0.302 OA
ATOM     37  H   UNL     1      11.123   0.830  24.160  0.00  0.00    +0.222 HD
ENDBRANCH  34  36
BRANCH  34  38
ATOM     38  O   UNL     1       8.402   1.007  23.802  0.00  0.00    -0.286 OA
BRANCH  38  39
ATOM     39  C   UNL     1       8.892   2.011  24.676  0.00  0.00    +0.181 C 
BRANCH  39  40
ATOM     40  C   UNL     1       8.799   3.415  24.059  0.00  0.00    +0.024 C 
ATOM     41  C   UNL     1       8.319   4.351  25.192  0.00  0.00    +0.016 C 
ATOM     42  C   UNL     1      10.220   3.814  23.636  0.00  0.00    +0.016 C 
BRANCH  40  43
ATOM     43  C   UNL     1       7.794   3.394  22.859  0.00  0.00    +0.208 C 
BRANCH  43  46
ATOM     44  N   UNL     1       5.737   4.726  22.977  0.00  0.00    -0.313 N 
ATOM     45  H   UNL     1       5.308   3.839  23.210  0.00  0.00    +0.149 HD
ATOM     46  C   UNL     1       7.068   4.729  22.608  0.00  0.00    +0.242 C 
ATOM     47  O   UNL     1       7.612   5.722  22.142  0.00  0.00    -0.273 OA
BRANCH  44  48
ATOM     48  C   UNL     1       4.865   5.840  22.685  0.00  0.00    +0.113 C 
BRANCH  48  49
ATOM     49  C   UNL     1       3.514   5.796  23.403  0.00  0.00    +0.114 C 
BRANCH  49  52
ATOM     50  N   UNL     1       3.515   4.688  25.564  0.00  0.00    -0.314 N 
ATOM     51  H   UNL     1       3.724   5.611  25.923  0.00  0.00    +0.149 HD
ATOM     52  C   UNL     1       3.359   4.526  24.207  0.00  0.00    +0.215 C 
ATOM     53  O   UNL     1       3.113   3.452  23.674  0.00  0.00    -0.276 OA
BRANCH  50  54
ATOM     54  C   UNL     1       3.414   3.582  26.505  0.00  0.00    +0.115 C 
BRANCH  54  55
ATOM     55  C   UNL     1       4.768   3.015  26.942  0.00  0.00    +0.096 C 
BRANCH  55  56
ATOM     56  S   UNL     1       5.309   1.641  25.881  0.00  0.00    -0.087 S 
BRANCH  56  57
ATOM     57  C   UNL     1       5.679   0.432  27.116  0.00  0.00    +0.189 C 
ATOM     58  O   UNL     1       6.756  -0.156  27.145  0.00  0.00    -0.285 OA
BRANCH  57  59
ATOM     59  C   UNL     1       4.507   0.162  28.045  0.00  0.00    +0.086 C 
BRANCH  59  60
ATOM     60  C   UNL     1       3.343  -0.496  27.317  0.00  0.00    +0.008 C 
BRANCH  60  61
ATOM     61  C   UNL     1       2.416  -1.282  28.244  0.00  0.00    +0.000 C 
BRANCH  61  63
ATOM     62  C   UNL     1       2.507  -2.839  26.257  0.00  0.00    +0.004 C 
ATOM     63  C   UNL     1       2.225  -2.719  27.748  0.00  0.00    -0.003 C 
ENDBRANCH  61  63
ENDBRANCH  60  61
ENDBRANCH  59  60
ENDBRANCH  57  59
ENDBRANCH  56  57
ENDBRANCH  55  56
ENDBRANCH  54  55
ENDBRANCH  50  54
ENDBRANCH  49  52
ENDBRANCH  48  49
ENDBRANCH  44  48
ENDBRANCH  43  46
BRANCH  43  64
ATOM     64  O   UNL     1       8.441   3.022  21.636  0.00  0.00    -0.382 OA
ATOM     65  H   UNL     1       8.901   2.179  21.785  0.00  0.00    +0.210 HD
ENDBRANCH  43  64
ENDBRANCH  40  43
ENDBRANCH  39  40
ENDBRANCH  38  39
ENDBRANCH  34  38
ENDBRANCH   1  34
TORSDOF 30
ENDMDL
MODEL 9
REMARK VINA RESULT:      -5.8      2.391      3.483
REMARK  Name = 
REMARK  33 active torsions:
REMARK  status: ('A' for Active; 'I' for Inactive)
REMARK    1  A    between atoms: C_1  and  C_2
REMARK    2  A    between atoms: C_2  and  C_3
REMARK    3  A    between atoms: C_3  and  C_4
REMARK    4  A    between atoms: C_4  and  C_5
REMARK    5  A    between atoms: C_5  and  C_6
REMARK    6  A    between atoms: C_6  and  S_8
REMARK    7  A    between atoms: S_8  and  C_9
REMARK    8  A    between atoms: C_9  and  C_10
REMARK    9  A    between atoms: C_10  and  N_11
REMARK   10  A    between atoms: C_12  and  C_14
REMARK   11  A    between atoms: C_14  and  C_15
REMARK   12  A    between atoms: C_15  and  N_16
REMARK   13  A    between atoms: C_17  and  C_19
REMARK   14  A    between atoms: C_19  and  O_21
REMARK   15  A    between atoms: C_19  and  C_22
REMARK   16  A    between atoms: C_22  and  C_23
REMARK   17  A    between atoms: C_22  and  C_24
REMARK   18  A    between atoms: C_22  and  C_25
REMARK   19  A    between atoms: C_25  and  O_26
REMARK   20  A    between atoms: O_26  and  P_27
REMARK   21  A    between atoms: P_27  and  O_28
REMARK   22  A    between atoms: P_27  and  O_30
REMARK   23  A    between atoms: O_30  and  P_31
REMARK   24  A    between atoms: P_31  and  O_32
REMARK   25  A    between atoms: P_31  and  O_34
REMARK   26  A    between atoms: O_34  and  C_35
REMARK   27  A    between atoms: C_35  and  C_36
REMARK   28  A    between atoms: C_39  and  N_51
REMARK   29  A    between atoms: C_41  and  O_43
REMARK   30  A    between atoms: C_44  and  O_46
REMARK   31  A    between atoms: O_46  and  P_47
REMARK   32  A    between atoms: P_47  and  O_48
REMARK   33  A    between atoms: P_47  and  O_49
REMARK                            x       y       z     vdW  Elec       q    Type
REMARK                         _______ _______ _______ _____ _____    ______ ____
ROOT
ATOM      1  O   UNL     1       8.293  -3.118  22.916  0.00  0.00    -0.186 OA
ENDROOT
BRANCH   1   2
ATOM      2  P   UNL     1       6.807  -4.003  22.973  0.00  0.00    +0.483 P 
ATOM      3  O   UNL     1       6.487  -3.592  21.535  0.00  0.00    -0.227 OA
BRANCH   2   4
ATOM      4  O   UNL     1       6.122  -2.800  23.851  0.00  0.00    -0.302 OA
ATOM      5  H   UNL     1       5.243  -3.135  24.142  0.00  0.00    +0.222 HD
ENDBRANCH   2   4
BRANCH   2   6
ATOM      6  O   UNL     1       5.321  -4.886  23.030  0.00  0.00    -0.284 OA
BRANCH   6   7
ATOM      7  C   UNL     1       5.310  -5.924  23.990  0.00  0.00    +0.206 C 
BRANCH   7   8
ATOM      8  C   UNL     1       4.179  -5.661  24.973  0.00  0.00    +0.179 C 
ATOM      9  C   UNL     1       4.212  -6.584  26.186  0.00  0.00    +0.194 C 
ATOM     10  C   UNL     1       4.897  -5.783  27.288  0.00  0.00    +0.196 C 
ATOM     11  C   UNL     1       5.090  -4.383  26.681  0.00  0.00    +0.253 C 
ATOM     12  O   UNL     1       4.270  -4.321  25.495  0.00  0.00    -0.346 OA
BRANCH  11  13
ATOM     13  N   UNL     1       4.713  -3.318  27.592  0.00  0.00    -0.286 N 
ATOM     14  C   UNL     1       5.124  -2.017  27.489  0.00  0.00    +0.167 A 
ATOM     15  N   UNL     1       5.913  -1.470  26.545  0.00  0.00    -0.216 NA
ATOM     16  C   UNL     1       6.109  -0.156  26.799  0.00  0.00    +0.225 A 
ATOM     17  N   UNL     1       5.644   0.581  27.834  0.00  0.00    -0.219 NA
ATOM     18  C   UNL     1       4.879  -0.032  28.766  0.00  0.00    +0.147 A 
ATOM     19  N   UNL     1       4.427   0.708  29.850  0.00  0.00    -0.341 N 
ATOM     20  H   UNL     1       3.623   0.297  30.311  0.00  0.00    +0.144 HD
ATOM     21  H   UNL     1       4.413   1.701  29.666  0.00  0.00    +0.144 HD
ATOM     22  C   UNL     1       4.571  -1.389  28.591  0.00  0.00    +0.147 A 
ATOM     23  N   UNL     1       3.796  -2.268  29.321  0.00  0.00    -0.231 NA
ATOM     24  C   UNL     1       3.890  -3.412  28.678  0.00  0.00    +0.203 A 
ENDBRANCH  11  13
BRANCH  10  25
ATOM     25  O   UNL     1       6.146  -6.378  27.648  0.00  0.00    -0.385 OA
ATOM     26  H   UNL     1       6.801  -6.074  26.985  0.00  0.00    +0.210 HD
ENDBRANCH  10  25
BRANCH   9  27
ATOM     27  O   UNL     1       2.841  -6.787  26.506  0.00  0.00    -0.278 OA
BRANCH  27  28
ATOM     28  P   UNL     1       1.933  -7.725  25.593  0.00  0.00    +0.473 P 
ATOM     29  O   UNL     1       1.005  -7.041  24.659  0.00  0.00    -0.228 OA
BRANCH  28  30
ATOM     30  O   UNL     1       1.249  -8.673  26.677  0.00  0.00    -0.303 OA
ATOM     31  H   UNL     1       1.551  -9.595  26.587  0.00  0.00    +0.222 HD
ENDBRANCH  28  30
BRANCH  28  32
ATOM     32  O   UNL     1       3.068  -8.643  24.958  0.00  0.00    -0.303 OA
ATOM     33  H   UNL     1       3.734  -8.874  25.631  0.00  0.00    +0.222 HD
ENDBRANCH  28  32
ENDBRANCH  27  28
ENDBRANCH   9  27
ENDBRANCH   7   8
ENDBRANCH   6   7
ENDBRANCH   2   6
ENDBRANCH   1   2
BRANCH   1  34
ATOM     34  P   UNL     1       9.312  -2.822  24.085  0.00  0.00    +0.483 P 
ATOM     35  O   UNL     1      10.194  -3.951  24.485  0.00  0.00    -0.227 OA
BRANCH  34  36
ATOM     36  O   UNL     1       8.557  -2.168  25.332  0.00  0.00    -0.302 OA
ATOM     37  H   UNL     1       7.967  -2.872  25.676  0.00  0.00    +0.222 HD
ENDBRANCH  34  36
BRANCH  34  38
ATOM     38  O   UNL     1      10.055  -1.519  23.519  0.00  0.00    -0.286 OA
BRANCH  38  39
ATOM     39  C   UNL     1       9.442  -0.858  22.425  0.00  0.00    +0.181 C 
BRANCH  39  40
ATOM     40  C   UNL     1       8.974   0.560  22.790  0.00  0.00    +0.024 C 
ATOM     41  C   UNL     1       9.052   1.386  21.485  0.00  0.00    +0.016 C 
ATOM     42  C   UNL     1       7.508   0.448  23.234  0.00  0.00    +0.016 C 
BRANCH  40  43
ATOM     43  C   UNL     1       9.902   1.146  23.905  0.00  0.00    +0.208 C 
BRANCH  43  46
ATOM     44  N   UNL     1       9.070   3.407  24.367  0.00  0.00    -0.313 N 
ATOM     45  H   UNL     1       8.210   2.923  24.598  0.00  0.00    +0.149 HD
ATOM     46  C   UNL     1      10.107   2.670  23.832  0.00  0.00    +0.242 C 
ATOM     47  O   UNL     1      11.107   3.201  23.361  0.00  0.00    -0.273 OA
BRANCH  44  48
ATOM     48  C   UNL     1       9.023   4.847  24.258  0.00  0.00    +0.113 C 
BRANCH  48  49
ATOM     49  C   UNL     1       8.355   5.369  22.984  0.00  0.00    +0.114 C 
BRANCH  49  52
ATOM     50  N   UNL     1       6.051   5.857  22.393  0.00  0.00    -0.314 N 
ATOM     51  H   UNL     1       6.231   5.249  21.605  0.00  0.00    +0.149 HD
ATOM     52  C   UNL     1       7.064   6.089  23.294  0.00  0.00    +0.215 C 
ATOM     53  O   UNL     1       6.950   6.814  24.275  0.00  0.00    -0.276 OA
BRANCH  50  54
ATOM     54  C   UNL     1       4.736   6.469  22.513  0.00  0.00    +0.115 C 
BRANCH  54  55
ATOM     55  C   UNL     1       3.588   5.459  22.610  0.00  0.00    +0.096 C 
BRANCH  55  56
ATOM     56  S   UNL     1       4.154   3.752  22.338  0.00  0.00    -0.087 S 
BRANCH  56  57
ATOM     57  C   UNL     1       3.507   2.983  23.792  0.00  0.00    +0.189 C 
ATOM     58  O   UNL     1       2.307   2.986  24.045  0.00  0.00    -0.285 OA
BRANCH  57  59
ATOM     59  C   UNL     1       4.594   2.420  24.693  0.00  0.00    +0.086 C 
BRANCH  59  60
ATOM     60  C   UNL     1       5.532   3.507  25.201  0.00  0.00    +0.008 C 
BRANCH  60  61
ATOM     61  C   UNL     1       4.845   4.521  26.115  0.00  0.00    +0.000 C 
BRANCH  61  63
ATOM     62  C   UNL     1       4.908   4.131  28.609  0.00  0.00    +0.004 C 
ATOM     63  C   UNL     1       4.179   3.828  27.309  0.00  0.00    -0.003 C 
ENDBRANCH  61  63
ENDBRANCH  60  61
ENDBRANCH  59  60
ENDBRANCH  57  59
ENDBRANCH  56  57
ENDBRANCH  55  56
ENDBRANCH  54  55
ENDBRANCH  50  54
ENDBRANCH  49  52
ENDBRANCH  48  49
ENDBRANCH  44  48
ENDBRANCH  43  46
BRANCH  43  64
ATOM     64  O   UNL     1       9.406   0.844  25.215  0.00  0.00    -0.382 OA
ATOM     65  H   UNL     1      10.113   0.393  25.706  0.00  0.00    +0.210 HD
ENDBRANCH  43  64
ENDBRANCH  40  43
ENDBRANCH  39  40
ENDBRANCH  38  39
ENDBRANCH  34  38
ENDBRANCH   1  34
TORSDOF 30
ENDMDL
