MODEL 1
REMARK VINA RESULT:      -6.4      0.000      0.000
REMARK  Name = 
REMARK  13 active torsions:
REMARK  status: ('A' for Active; 'I' for Inactive)
REMARK    1  A    between atoms: C_2  and  C_3
REMARK    2  A    between atoms: C_2  and  C_7
REMARK    3  A    between atoms: C_2  and  C_12
REMARK    4  A    between atoms: C_3  and  C_4
REMARK    5  A    between atoms: C_4  and  C_5
REMARK    6  A    between atoms: C_4  and  C_6
REMARK    7  A    between atoms: C_7  and  C_8
REMARK    8  A    between atoms: N_10  and  O_11
REMARK    9  A    between atoms: N_14  and  C_15
REMARK   10  A    between atoms: C_15  and  C_17
REMARK   11  A    between atoms: C_15  and  C_24
REMARK   12  A    between atoms: C_17  and  C_18
REMARK   13  A    between atoms: N_26  and  C_27
REMARK                            x       y       z     vdW  Elec       q    Type
REMARK                         _______ _______ _______ _____ _____    ______ ____
ROOT
ATOM      1  C   UNL     1       8.625  -2.632  24.353  0.00  0.00    +0.217 C 
ATOM      2  N   UNL     1       7.362  -2.137  24.500  0.00  0.00    -0.303 N 
ATOM      3  H   UNL     1       6.550  -2.748  24.488  0.00  0.00    +0.149 HD
ATOM      4  O   UNL     1       9.611  -1.901  24.337  0.00  0.00    -0.275 OA
ENDROOT
BRANCH   1   5
ATOM      5  C   UNL     1       8.741  -4.146  24.210  0.00  0.00    +0.084 C 
BRANCH   5   6
ATOM      6  C   UNL     1       9.300  -4.714  25.526  0.00  0.00    +0.110 C 
BRANCH   6   7
ATOM      7  C   UNL     1       8.306  -4.721  26.661  0.00  0.00    +0.236 C 
ATOM      8  N   UNL     1       8.061  -5.978  27.161  0.00  0.00    -0.197 N 
ATOM      9  H   UNL     1       8.247  -6.827  26.637  0.00  0.00    +0.182 HD
ATOM     10  O   UNL     1       7.737  -3.721  27.090  0.00  0.00    -0.274 OA
BRANCH   8  11
ATOM     11  O   UNL     1       7.057  -6.059  28.155  0.00  0.00    -0.295 OA
ATOM     12  H   UNL     1       7.574  -5.961  28.985  0.00  0.00    +0.241 HD
ENDBRANCH   8  11
ENDBRANCH   6   7
ENDBRANCH   5   6
BRANCH   5  13
ATOM     13  C   UNL     1       7.413  -4.803  23.771  0.00  0.00    +0.016 C 
BRANCH  13  14
ATOM     14  C   UNL     1       7.149  -4.927  22.254  0.00  0.00    -0.016 C 
ATOM     15  C   UNL     1       6.057  -3.931  21.844  0.00  0.00    +0.007 C 
ATOM     16  C   UNL     1       6.716  -6.329  21.820  0.00  0.00    +0.007 C 
ENDBRANCH  13  14
ENDBRANCH   5  13
ENDBRANCH   1   5
BRANCH   2  17
ATOM     17  C   UNL     1       7.088  -0.713  24.729  0.00  0.00    +0.163 C 
BRANCH  17  18
ATOM     18  C   UNL     1       5.828  -0.618  25.622  0.00  0.00    +0.233 C 
ATOM     19  N   UNL     1       5.826  -1.442  26.731  0.00  0.00    -0.317 N 
ATOM     20  H   UNL     1       6.601  -2.071  26.890  0.00  0.00    +0.148 HD
ATOM     21  C   UNL     1       4.787  -1.389  27.731  0.00  0.00    +0.128 C 
ATOM     22  O   UNL     1       4.887   0.127  25.341  0.00  0.00    -0.274 OA
ENDBRANCH  17  18
BRANCH  17  23
ATOM     23  C   UNL     1       6.953   0.109  23.425  0.00  0.00    +0.067 C 
BRANCH  23  24
ATOM     24  C   UNL     1       8.108   1.060  23.214  0.00  0.00    -0.045 A 
ATOM     25  C   UNL     1       8.463   1.971  24.219  0.00  0.00    +0.004 A 
ATOM     26  C   UNL     1       9.630   2.724  24.105  0.00  0.00    +0.000 A 
ATOM     27  C   UNL     1      10.435   2.591  22.976  0.00  0.00    +0.000 A 
ATOM     28  C   UNL     1      10.061   1.729  21.948  0.00  0.00    +0.000 A 
ATOM     29  C   UNL     1       8.899   0.969  22.063  0.00  0.00    +0.004 A 
ENDBRANCH  23  24
ENDBRANCH  17  23
ENDBRANCH   2  17
TORSDOF 10
ENDMDL
MODEL 2
REMARK VINA RESULT:      -6.3      2.053      2.749
REMARK  Name = 
REMARK  13 active torsions:
REMARK  status: ('A' for Active; 'I' for Inactive)
REMARK    1  A    between atoms: C_2  and  C_3
REMARK    2  A    between atoms: C_2  and  C_7
REMARK    3  A    between atoms: C_2  and  C_12
REMARK    4  A    between atoms: C_3  and  C_4
REMARK    5  A    between atoms: C_4  and  C_5
REMARK    6  A    between atoms: C_4  and  C_6
REMARK    7  A    between atoms: C_7  and  C_8
REMARK    8  A    between atoms: N_10  and  O_11
REMARK    9  A    between atoms: N_14  and  C_15
REMARK   10  A    between atoms: C_15  and  C_17
REMARK   11  A    between atoms: C_15  and  C_24
REMARK   12  A    between atoms: C_17  and  C_18
REMARK   13  A    between atoms: N_26  and  C_27
REMARK                            x       y       z     vdW  Elec       q    Type
REMARK                         _______ _______ _______ _____ _____    ______ ____
ROOT
ATOM      1  C   UNL     1       8.246  -3.899  26.097  0.00  0.00    +0.217 C 
ATOM      2  N   UNL     1       7.901  -2.611  25.806  0.00  0.00    -0.303 N 
ATOM      3  H   UNL     1       7.253  -2.394  25.054  0.00  0.00    +0.149 HD
ATOM      4  O   UNL     1       9.049  -4.171  26.983  0.00  0.00    -0.275 OA
ENDROOT
BRANCH   1   5
ATOM      5  C   UNL     1       7.575  -4.980  25.256  0.00  0.00    +0.084 C 
BRANCH   5   6
ATOM      6  C   UNL     1       6.060  -4.925  25.516  0.00  0.00    +0.110 C 
BRANCH   6   7
ATOM      7  C   UNL     1       5.509  -6.161  26.183  0.00  0.00    +0.236 C 
ATOM      8  N   UNL     1       5.934  -6.313  27.483  0.00  0.00    -0.197 N 
ATOM      9  H   UNL     1       6.765  -5.860  27.848  0.00  0.00    +0.182 HD
ATOM     10  O   UNL     1       4.778  -6.980  25.631  0.00  0.00    -0.274 OA
BRANCH   8  11
ATOM     11  O   UNL     1       5.536  -7.510  28.124  0.00  0.00    -0.295 OA
ATOM     12  H   UNL     1       6.064  -7.491  28.952  0.00  0.00    +0.241 HD
ENDBRANCH   8  11
ENDBRANCH   6   7
ENDBRANCH   5   6
BRANCH   5  13
ATOM     13  C   UNL     1       7.947  -4.881  23.758  0.00  0.00    +0.016 C 
BRANCH  13  14
ATOM     14  C   UNL     1       6.794  -4.674  22.752  0.00  0.00    -0.016 C 
ATOM     15  C   UNL     1       6.959  -5.651  21.581  0.00  0.00    +0.007 C 
ATOM     16  C   UNL     1       6.717  -3.253  22.192  0.00  0.00    +0.007 C 
ENDBRANCH  13  14
ENDBRANCH   5  13
ENDBRANCH   1   5
BRANCH   2  17
ATOM     17  C   UNL     1       8.396  -1.462  26.575  0.00  0.00    +0.163 C 
BRANCH  17  18
ATOM     18  C   UNL     1       7.170  -0.611  26.984  0.00  0.00    +0.233 C 
ATOM     19  N   UNL     1       7.455   0.679  27.388  0.00  0.00    -0.317 N 
ATOM     20  H   UNL     1       8.415   0.992  27.431  0.00  0.00    +0.148 HD
ATOM     21  C   UNL     1       6.421   1.641  27.684  0.00  0.00    +0.128 C 
ATOM     22  O   UNL     1       6.027  -1.070  26.968  0.00  0.00    -0.274 OA
ENDBRANCH  17  18
BRANCH  17  23
ATOM     23  C   UNL     1       9.470  -0.635  25.830  0.00  0.00    +0.067 C 
BRANCH  23  24
ATOM     24  C   UNL     1       9.311  -0.693  24.328  0.00  0.00    -0.045 A 
ATOM     25  C   UNL     1       8.476   0.224  23.672  0.00  0.00    +0.004 A 
ATOM     26  C   UNL     1       8.461   0.292  22.281  0.00  0.00    +0.000 A 
ATOM     27  C   UNL     1       9.260  -0.573  21.535  0.00  0.00    +0.000 A 
ATOM     28  C   UNL     1      10.049  -1.524  22.177  0.00  0.00    +0.000 A 
ATOM     29  C   UNL     1      10.072  -1.588  23.569  0.00  0.00    +0.004 A 
ENDBRANCH  23  24
ENDBRANCH  17  23
ENDBRANCH   2  17
TORSDOF 10
ENDMDL
MODEL 3
REMARK VINA RESULT:      -6.1      2.368      4.872
REMARK  Name = 
REMARK  13 active torsions:
REMARK  status: ('A' for Active; 'I' for Inactive)
REMARK    1  A    between atoms: C_2  and  C_3
REMARK    2  A    between atoms: C_2  and  C_7
REMARK    3  A    between atoms: C_2  and  C_12
REMARK    4  A    between atoms: C_3  and  C_4
REMARK    5  A    between atoms: C_4  and  C_5
REMARK    6  A    between atoms: C_4  and  C_6
REMARK    7  A    between atoms: C_7  and  C_8
REMARK    8  A    between atoms: N_10  and  O_11
REMARK    9  A    between atoms: N_14  and  C_15
REMARK   10  A    between atoms: C_15  and  C_17
REMARK   11  A    between atoms: C_15  and  C_24
REMARK   12  A    between atoms: C_17  and  C_18
REMARK   13  A    between atoms: N_26  and  C_27
REMARK                            x       y       z     vdW  Elec       q    Type
REMARK                         _______ _______ _______ _____ _____    ______ ____
ROOT
ATOM      1  C   UNL     1       6.956  -1.043  23.900  0.00  0.00    +0.217 C 
ATOM      2  N   UNL     1       8.178  -1.451  24.349  0.00  0.00    -0.303 N 
ATOM      3  H   UNL     1       8.582  -1.072  25.202  0.00  0.00    +0.149 HD
ATOM      4  O   UNL     1       6.472  -1.470  22.857  0.00  0.00    -0.275 OA
ENDROOT
BRANCH   1   5
ATOM      5  C   UNL     1       6.227  -0.024  24.769  0.00  0.00    +0.084 C 
BRANCH   5   6
ATOM      6  C   UNL     1       6.038  -0.632  26.171  0.00  0.00    +0.110 C 
BRANCH   6   7
ATOM      7  C   UNL     1       7.151  -0.302  27.135  0.00  0.00    +0.236 C 
ATOM      8  N   UNL     1       6.798   0.644  28.069  0.00  0.00    -0.197 N 
ATOM      9  H   UNL     1       6.025   1.288  27.938  0.00  0.00    +0.182 HD
ATOM     10  O   UNL     1       8.275  -0.793  27.089  0.00  0.00    -0.274 OA
BRANCH   8  11
ATOM     11  O   UNL     1       7.834   1.070  28.933  0.00  0.00    -0.295 OA
ATOM     12  H   UNL     1       7.602   0.623  29.776  0.00  0.00    +0.241 HD
ENDBRANCH   8  11
ENDBRANCH   6   7
ENDBRANCH   5   6
BRANCH   5  13
ATOM     13  C   UNL     1       6.929   1.353  24.785  0.00  0.00    +0.016 C 
BRANCH  13  14
ATOM     14  C   UNL     1       6.222   2.520  24.060  0.00  0.00    -0.016 C 
ATOM     15  C   UNL     1       4.760   2.590  24.516  0.00  0.00    +0.007 C 
ATOM     16  C   UNL     1       6.252   2.404  22.535  0.00  0.00    +0.007 C 
ENDBRANCH  13  14
ENDBRANCH   5  13
ENDBRANCH   1   5
BRANCH   2  17
ATOM     17  C   UNL     1       8.971  -2.484  23.670  0.00  0.00    +0.163 C 
BRANCH  17  18
ATOM     18  C   UNL     1       9.214  -3.627  24.684  0.00  0.00    +0.233 C 
ATOM     19  N   UNL     1       8.344  -3.661  25.757  0.00  0.00    -0.317 N 
ATOM     20  H   UNL     1       7.634  -2.947  25.850  0.00  0.00    +0.148 HD
ATOM     21  C   UNL     1       8.354  -4.730  26.726  0.00  0.00    +0.128 C 
ATOM     22  O   UNL     1      10.137  -4.432  24.546  0.00  0.00    -0.274 OA
ENDBRANCH  17  18
BRANCH  17  23
ATOM     23  C   UNL     1      10.285  -1.950  23.053  0.00  0.00    +0.067 C 
BRANCH  23  24
ATOM     24  C   UNL     1      10.317  -0.442  22.967  0.00  0.00    -0.045 A 
ATOM     25  C   UNL     1       9.814   0.210  21.831  0.00  0.00    +0.004 A 
ATOM     26  C   UNL     1       9.677   1.596  21.818  0.00  0.00    +0.000 A 
ATOM     27  C   UNL     1      10.067   2.342  22.928  0.00  0.00    +0.000 A 
ATOM     28  C   UNL     1      10.620   1.708  24.038  0.00  0.00    +0.000 A 
ATOM     29  C   UNL     1      10.750   0.321  24.057  0.00  0.00    +0.004 A 
ENDBRANCH  23  24
ENDBRANCH  17  23
ENDBRANCH   2  17
TORSDOF 10
ENDMDL
MODEL 4
REMARK VINA RESULT:      -6.1      2.051      2.574
REMARK  Name = 
REMARK  13 active torsions:
REMARK  status: ('A' for Active; 'I' for Inactive)
REMARK    1  A    between atoms: C_2  and  C_3
REMARK    2  A    between atoms: C_2  and  C_7
REMARK    3  A    between atoms: C_2  and  C_12
REMARK    4  A    between atoms: C_3  and  C_4
REMARK    5  A    between atoms: C_4  and  C_5
REMARK    6  A    between atoms: C_4  and  C_6
REMARK    7  A    between atoms: C_7  and  C_8
REMARK    8  A    between atoms: N_10  and  O_11
REMARK    9  A    between atoms: N_14  and  C_15
REMARK   10  A    between atoms: C_15  and  C_17
REMARK   11  A    between atoms: C_15  and  C_24
REMARK   12  A    between atoms: C_17  and  C_18
REMARK   13  A    between atoms: N_26  and  C_27
REMARK                            x       y       z     vdW  Elec       q    Type
REMARK                         _______ _______ _______ _____ _____    ______ ____
ROOT
ATOM      1  C   UNL     1       8.350  -4.331  24.605  0.00  0.00    +0.217 C 
ATOM      2  N   UNL     1       8.236  -2.981  24.443  0.00  0.00    -0.303 N 
ATOM      3  H   UNL     1       7.330  -2.520  24.463  0.00  0.00    +0.149 HD
ATOM      4  O   UNL     1       9.435  -4.901  24.554  0.00  0.00    -0.275 OA
ENDROOT
BRANCH   1   5
ATOM      5  C   UNL     1       7.050  -5.089  24.853  0.00  0.00    +0.084 C 
BRANCH   5   6
ATOM      6  C   UNL     1       6.499  -4.669  26.226  0.00  0.00    +0.110 C 
BRANCH   6   7
ATOM      7  C   UNL     1       6.533  -5.767  27.261  0.00  0.00    +0.236 C 
ATOM      8  N   UNL     1       5.450  -6.612  27.191  0.00  0.00    -0.197 N 
ATOM      9  H   UNL     1       4.576  -6.355  26.743  0.00  0.00    +0.182 HD
ATOM     10  O   UNL     1       7.411  -5.894  28.109  0.00  0.00    -0.274 OA
BRANCH   8  11
ATOM     11  O   UNL     1       5.373  -7.597  28.204  0.00  0.00    -0.295 OA
ATOM     12  H   UNL     1       5.933  -7.212  28.914  0.00  0.00    +0.241 HD
ENDBRANCH   8  11
ENDBRANCH   6   7
ENDBRANCH   5   6
BRANCH   5  13
ATOM     13  C   UNL     1       6.034  -4.914  23.701  0.00  0.00    +0.016 C 
BRANCH  13  14
ATOM     14  C   UNL     1       6.599  -4.686  22.282  0.00  0.00    -0.016 C 
ATOM     15  C   UNL     1       5.970  -3.422  21.682  0.00  0.00    +0.007 C 
ATOM     16  C   UNL     1       6.350  -5.854  21.327  0.00  0.00    +0.007 C 
ENDBRANCH  13  14
ENDBRANCH   5  13
ENDBRANCH   1   5
BRANCH   2  17
ATOM     17  C   UNL     1       9.399  -2.099  24.276  0.00  0.00    +0.163 C 
BRANCH  17  18
ATOM     18  C   UNL     1       9.270  -0.957  25.312  0.00  0.00    +0.233 C 
ATOM     19  N   UNL     1       8.099  -0.952  26.045  0.00  0.00    -0.317 N 
ATOM     20  H   UNL     1       7.388  -1.646  25.860  0.00  0.00    +0.148 HD
ATOM     21  C   UNL     1       7.872  -0.032  27.133  0.00  0.00    +0.128 C 
ATOM     22  O   UNL     1      10.148  -0.102  25.448  0.00  0.00    -0.274 OA
ENDBRANCH  17  18
BRANCH  17  23
ATOM     23  C   UNL     1       9.575  -1.573  22.833  0.00  0.00    +0.067 C 
BRANCH  23  24
ATOM     24  C   UNL     1       8.922  -0.227  22.620  0.00  0.00    -0.045 A 
ATOM     25  C   UNL     1       9.682   0.862  22.170  0.00  0.00    +0.004 A 
ATOM     26  C   UNL     1       9.059   2.052  21.803  0.00  0.00    +0.000 A 
ATOM     27  C   UNL     1       7.674   2.172  21.908  0.00  0.00    +0.000 A 
ATOM     28  C   UNL     1       6.917   1.115  22.407  0.00  0.00    +0.000 A 
ATOM     29  C   UNL     1       7.538  -0.080  22.766  0.00  0.00    +0.004 A 
ENDBRANCH  23  24
ENDBRANCH  17  23
ENDBRANCH   2  17
TORSDOF 10
ENDMDL
MODEL 5
REMARK VINA RESULT:      -6.0      2.077      4.381
REMARK  Name = 
REMARK  13 active torsions:
REMARK  status: ('A' for Active; 'I' for Inactive)
REMARK    1  A    between atoms: C_2  and  C_3
REMARK    2  A    between atoms: C_2  and  C_7
REMARK    3  A    between atoms: C_2  and  C_12
REMARK    4  A    between atoms: C_3  and  C_4
REMARK    5  A    between atoms: C_4  and  C_5
REMARK    6  A    between atoms: C_4  and  C_6
REMARK    7  A    between atoms: C_7  and  C_8
REMARK    8  A    between atoms: N_10  and  O_11
REMARK    9  A    between atoms: N_14  and  C_15
REMARK   10  A    between atoms: C_15  and  C_17
REMARK   11  A    between atoms: C_15  and  C_24
REMARK   12  A    between atoms: C_17  and  C_18
REMARK   13  A    between atoms: N_26  and  C_27
REMARK                            x       y       z     vdW  Elec       q    Type
REMARK                         _______ _______ _______ _____ _____    ______ ____
ROOT
ATOM      1  C   UNL     1       6.521  -1.526  23.843  0.00  0.00    +0.217 C 
ATOM      2  N   UNL     1       7.835  -1.710  24.163  0.00  0.00    -0.303 N 
ATOM      3  H   UNL     1       8.244  -1.279  24.988  0.00  0.00    +0.149 HD
ATOM      4  O   UNL     1       6.024  -2.016  22.834  0.00  0.00    -0.275 OA
ENDROOT
BRANCH   1   5
ATOM      5  C   UNL     1       5.706  -0.676  24.812  0.00  0.00    +0.084 C 
BRANCH   5   6
ATOM      6  C   UNL     1       5.029  -1.614  25.827  0.00  0.00    +0.110 C 
BRANCH   6   7
ATOM      7  C   UNL     1       5.803  -2.881  26.099  0.00  0.00    +0.236 C 
ATOM      8  N   UNL     1       5.322  -3.969  25.409  0.00  0.00    -0.197 N 
ATOM      9  H   UNL     1       4.381  -4.013  25.033  0.00  0.00    +0.182 HD
ATOM     10  O   UNL     1       6.748  -2.962  26.878  0.00  0.00    -0.274 OA
BRANCH   8  11
ATOM     11  O   UNL     1       5.940  -5.207  25.705  0.00  0.00    -0.295 OA
ATOM     12  H   UNL     1       5.216  -5.704  26.145  0.00  0.00    +0.241 HD
ENDBRANCH   8  11
ENDBRANCH   6   7
ENDBRANCH   5   6
BRANCH   5  13
ATOM     13  C   UNL     1       6.548   0.441  25.472  0.00  0.00    +0.016 C 
BRANCH  13  14
ATOM     14  C   UNL     1       7.090   1.559  24.554  0.00  0.00    -0.016 C 
ATOM     15  C   UNL     1       7.563   2.737  25.414  0.00  0.00    +0.007 C 
ATOM     16  C   UNL     1       6.064   2.075  23.544  0.00  0.00    +0.007 C 
ENDBRANCH  13  14
ENDBRANCH   5  13
ENDBRANCH   1   5
BRANCH   2  17
ATOM     17  C   UNL     1       8.732  -2.566  23.377  0.00  0.00    +0.163 C 
BRANCH  17  18
ATOM     18  C   UNL     1       8.796  -3.943  24.078  0.00  0.00    +0.233 C 
ATOM     19  N   UNL     1       9.416  -3.950  25.313  0.00  0.00    -0.317 N 
ATOM     20  H   UNL     1       9.817  -3.097  25.678  0.00  0.00    +0.148 HD
ATOM     21  C   UNL     1       9.452  -5.123  26.153  0.00  0.00    +0.128 C 
ATOM     22  O   UNL     1       8.342  -4.961  23.552  0.00  0.00    -0.274 OA
ENDBRANCH  17  18
BRANCH  17  23
ATOM     23  C   UNL     1      10.134  -1.951  23.150  0.00  0.00    +0.067 C 
BRANCH  23  24
ATOM     24  C   UNL     1      10.105  -0.441  23.097  0.00  0.00    -0.045 A 
ATOM     25  C   UNL     1      10.653   0.311  24.146  0.00  0.00    +0.004 A 
ATOM     26  C   UNL     1      10.790   1.692  24.025  0.00  0.00    +0.000 A 
ATOM     27  C   UNL     1      10.358   2.333  22.865  0.00  0.00    +0.000 A 
ATOM     28  C   UNL     1       9.762   1.601  21.842  0.00  0.00    +0.000 A 
ATOM     29  C   UNL     1       9.631   0.219  21.958  0.00  0.00    +0.004 A 
ENDBRANCH  23  24
ENDBRANCH  17  23
ENDBRANCH   2  17
TORSDOF 10
ENDMDL
MODEL 6
REMARK VINA RESULT:      -6.0      2.525      3.696
REMARK  Name = 
REMARK  13 active torsions:
REMARK  status: ('A' for Active; 'I' for Inactive)
REMARK    1  A    between atoms: C_2  and  C_3
REMARK    2  A    between atoms: C_2  and  C_7
REMARK    3  A    between atoms: C_2  and  C_12
REMARK    4  A    between atoms: C_3  and  C_4
REMARK    5  A    between atoms: C_4  and  C_5
REMARK    6  A    between atoms: C_4  and  C_6
REMARK    7  A    between atoms: C_7  and  C_8
REMARK    8  A    between atoms: N_10  and  O_11
REMARK    9  A    between atoms: N_14  and  C_15
REMARK   10  A    between atoms: C_15  and  C_17
REMARK   11  A    between atoms: C_15  and  C_24
REMARK   12  A    between atoms: C_17  and  C_18
REMARK   13  A    between atoms: N_26  and  C_27
REMARK                            x       y       z     vdW  Elec       q    Type
REMARK                         _______ _______ _______ _____ _____    ______ ____
ROOT
ATOM      1  C   UNL     1       6.070  -4.147  23.734  0.00  0.00    +0.217 C 
ATOM      2  N   UNL     1       6.757  -3.270  24.523  0.00  0.00    -0.303 N 
ATOM      3  H   UNL     1       6.525  -3.149  25.505  0.00  0.00    +0.149 HD
ATOM      4  O   UNL     1       6.321  -4.279  22.540  0.00  0.00    -0.275 OA
ENDROOT
BRANCH   1   5
ATOM      5  C   UNL     1       4.973  -4.951  24.422  0.00  0.00    +0.084 C 
BRANCH   5   6
ATOM      6  C   UNL     1       5.069  -4.703  25.937  0.00  0.00    +0.110 C 
BRANCH   6   7
ATOM      7  C   UNL     1       5.721  -5.830  26.701  0.00  0.00    +0.236 C 
ATOM      8  N   UNL     1       4.828  -6.578  27.432  0.00  0.00    -0.197 N 
ATOM      9  H   UNL     1       3.913  -6.235  27.705  0.00  0.00    +0.182 HD
ATOM     10  O   UNL     1       6.928  -6.055  26.709  0.00  0.00    -0.274 OA
BRANCH   8  11
ATOM     11  O   UNL     1       5.395  -7.582  28.253  0.00  0.00    -0.295 OA
ATOM     12  H   UNL     1       4.690  -7.729  28.922  0.00  0.00    +0.241 HD
ENDBRANCH   8  11
ENDBRANCH   6   7
ENDBRANCH   5   6
BRANCH   5  13
ATOM     13  C   UNL     1       3.571  -4.661  23.838  0.00  0.00    +0.016 C 
BRANCH  13  14
ATOM     14  C   UNL     1       2.799  -5.847  23.219  0.00  0.00    -0.016 C 
ATOM     15  C   UNL     1       1.319  -5.472  23.078  0.00  0.00    +0.007 C 
ATOM     16  C   UNL     1       2.898  -7.137  24.035  0.00  0.00    +0.007 C 
ENDBRANCH  13  14
ENDBRANCH   5  13
ENDBRANCH   1   5
BRANCH   2  17
ATOM     17  C   UNL     1       7.893  -2.480  24.032  0.00  0.00    +0.163 C 
BRANCH  17  18
ATOM     18  C   UNL     1       9.184  -3.269  24.356  0.00  0.00    +0.233 C 
ATOM     19  N   UNL     1       9.054  -4.243  25.327  0.00  0.00    -0.317 N 
ATOM     20  H   UNL     1       8.165  -4.373  25.791  0.00  0.00    +0.148 HD
ATOM     21  C   UNL     1      10.126  -5.149  25.661  0.00  0.00    +0.128 C 
ATOM     22  O   UNL     1      10.254  -3.020  23.797  0.00  0.00    -0.274 OA
ENDBRANCH  17  18
BRANCH  17  23
ATOM     23  C   UNL     1       7.928  -1.035  24.582  0.00  0.00    +0.067 C 
BRANCH  23  24
ATOM     24  C   UNL     1       8.765  -0.108  23.732  0.00  0.00    -0.045 A 
ATOM     25  C   UNL     1       8.631  -0.119  22.336  0.00  0.00    +0.004 A 
ATOM     26  C   UNL     1       9.265   0.849  21.561  0.00  0.00    +0.000 A 
ATOM     27  C   UNL     1      10.057   1.819  22.172  0.00  0.00    +0.000 A 
ATOM     28  C   UNL     1      10.240   1.804  23.552  0.00  0.00    +0.000 A 
ATOM     29  C   UNL     1       9.601   0.841  24.331  0.00  0.00    +0.004 A 
ENDBRANCH  23  24
ENDBRANCH  17  23
ENDBRANCH   2  17
TORSDOF 10
ENDMDL
MODEL 7
REMARK VINA RESULT:      -5.9      2.820      4.170
REMARK  Name = 
REMARK  13 active torsions:
REMARK  status: ('A' for Active; 'I' for Inactive)
REMARK    1  A    between atoms: C_2  and  C_3
REMARK    2  A    between atoms: C_2  and  C_7
REMARK    3  A    between atoms: C_2  and  C_12
REMARK    4  A    between atoms: C_3  and  C_4
REMARK    5  A    between atoms: C_4  and  C_5
REMARK    6  A    between atoms: C_4  and  C_6
REMARK    7  A    between atoms: C_7  and  C_8
REMARK    8  A    between atoms: N_10  and  O_11
REMARK    9  A    between atoms: N_14  and  C_15
REMARK   10  A    between atoms: C_15  and  C_17
REMARK   11  A    between atoms: C_15  and  C_24
REMARK   12  A    between atoms: C_17  and  C_18
REMARK   13  A    between atoms: N_26  and  C_27
REMARK                            x       y       z     vdW  Elec       q    Type
REMARK                         _______ _______ _______ _____ _____    ______ ____
ROOT
ATOM      1  C   UNL     1       5.914  -1.179  25.011  0.00  0.00    +0.217 C 
ATOM      2  N   UNL     1       6.101  -0.216  24.062  0.00  0.00    -0.303 N 
ATOM      3  H   UNL     1       6.034  -0.432  23.070  0.00  0.00    +0.149 HD
ATOM      4  O   UNL     1       6.021  -0.938  26.209  0.00  0.00    -0.275 OA
ENDROOT
BRANCH   1   5
ATOM      5  C   UNL     1       5.565  -2.571  24.497  0.00  0.00    +0.084 C 
BRANCH   5   6
ATOM      6  C   UNL     1       5.753  -2.583  22.969  0.00  0.00    +0.110 C 
BRANCH   6   7
ATOM      7  C   UNL     1       5.363  -3.886  22.316  0.00  0.00    +0.236 C 
ATOM      8  N   UNL     1       6.299  -4.346  21.419  0.00  0.00    -0.197 N 
ATOM      9  H   UNL     1       6.995  -3.745  20.990  0.00  0.00    +0.182 HD
ATOM     10  O   UNL     1       4.307  -4.477  22.524  0.00  0.00    -0.274 OA
BRANCH   8  11
ATOM     11  O   UNL     1       5.939  -5.508  20.696  0.00  0.00    -0.295 OA
ATOM     12  H   UNL     1       6.702  -6.104  20.864  0.00  0.00    +0.241 HD
ENDBRANCH   8  11
ENDBRANCH   6   7
ENDBRANCH   5   6
BRANCH   5  13
ATOM     13  C   UNL     1       6.353  -3.686  25.223  0.00  0.00    +0.016 C 
BRANCH  13  14
ATOM     14  C   UNL     1       7.891  -3.671  25.091  0.00  0.00    -0.016 C 
ATOM     15  C   UNL     1       8.353  -4.952  24.385  0.00  0.00    +0.007 C 
ATOM     16  C   UNL     1       8.621  -3.564  26.430  0.00  0.00    +0.007 C 
ENDBRANCH  13  14
ENDBRANCH   5  13
ENDBRANCH   1   5
BRANCH   2  17
ATOM     17  C   UNL     1       6.363   1.189  24.395  0.00  0.00    +0.163 C 
BRANCH  17  18
ATOM     18  C   UNL     1       5.072   1.988  24.096  0.00  0.00    +0.233 C 
ATOM     19  N   UNL     1       5.067   2.678  22.899  0.00  0.00    -0.317 N 
ATOM     20  H   UNL     1       5.885   2.660  22.306  0.00  0.00    +0.148 HD
ATOM     21  C   UNL     1       3.899   3.371  22.412  0.00  0.00    +0.128 C 
ATOM     22  O   UNL     1       4.130   2.020  24.890  0.00  0.00    -0.274 OA
ENDBRANCH  17  18
BRANCH  17  23
ATOM     23  C   UNL     1       7.602   1.775  23.677  0.00  0.00    +0.067 C 
BRANCH  23  24
ATOM     24  C   UNL     1       8.613   0.716  23.303  0.00  0.00    -0.045 A 
ATOM     25  C   UNL     1       9.331   0.044  24.302  0.00  0.00    +0.004 A 
ATOM     26  C   UNL     1      10.130  -1.050  23.979  0.00  0.00    +0.000 A 
ATOM     27  C   UNL     1      10.238  -1.463  22.653  0.00  0.00    +0.000 A 
ATOM     28  C   UNL     1       9.573  -0.766  21.647  0.00  0.00    +0.000 A 
ATOM     29  C   UNL     1       8.766   0.323  21.969  0.00  0.00    +0.004 A 
ENDBRANCH  23  24
ENDBRANCH  17  23
ENDBRANCH   2  17
TORSDOF 10
ENDMDL
MODEL 8
REMARK VINA RESULT:      -5.8      2.702      3.642
REMARK  Name = 
REMARK  13 active torsions:
REMARK  status: ('A' for Active; 'I' for Inactive)
REMARK    1  A    between atoms: C_2  and  C_3
REMARK    2  A    between atoms: C_2  and  C_7
REMARK    3  A    between atoms: C_2  and  C_12
REMARK    4  A    between atoms: C_3  and  C_4
REMARK    5  A    between atoms: C_4  and  C_5
REMARK    6  A    between atoms: C_4  and  C_6
REMARK    7  A    between atoms: C_7  and  C_8
REMARK    8  A    between atoms: N_10  and  O_11
REMARK    9  A    between atoms: N_14  and  C_15
REMARK   10  A    between atoms: C_15  and  C_17
REMARK   11  A    between atoms: C_15  and  C_24
REMARK   12  A    between atoms: C_17  and  C_18
REMARK   13  A    between atoms: N_26  and  C_27
REMARK                            x       y       z     vdW  Elec       q    Type
REMARK                         _______ _______ _______ _____ _____    ______ ____
ROOT
ATOM      1  C   UNL     1       7.962  -3.426  25.947  0.00  0.00    +0.217 C 
ATOM      2  N   UNL     1       7.933  -2.102  25.618  0.00  0.00    -0.303 N 
ATOM      3  H   UNL     1       7.432  -1.773  24.797  0.00  0.00    +0.149 HD
ATOM      4  O   UNL     1       8.587  -3.840  26.918  0.00  0.00    -0.275 OA
ENDROOT
BRANCH   1   5
ATOM      5  C   UNL     1       7.173  -4.362  25.037  0.00  0.00    +0.084 C 
BRANCH   5   6
ATOM      6  C   UNL     1       8.018  -4.642  23.782  0.00  0.00    +0.110 C 
BRANCH   6   7
ATOM      7  C   UNL     1       7.201  -4.901  22.540  0.00  0.00    +0.236 C 
ATOM      8  N   UNL     1       6.562  -3.778  22.067  0.00  0.00    -0.197 N 
ATOM      9  H   UNL     1       6.376  -2.964  22.643  0.00  0.00    +0.182 HD
ATOM     10  O   UNL     1       7.079  -6.000  22.007  0.00  0.00    -0.274 OA
BRANCH   8  11
ATOM     11  O   UNL     1       5.696  -3.983  20.967  0.00  0.00    -0.295 OA
ATOM     12  H   UNL     1       5.063  -3.236  21.056  0.00  0.00    +0.241 HD
ENDBRANCH   8  11
ENDBRANCH   6   7
ENDBRANCH   5   6
BRANCH   5  13
ATOM     13  C   UNL     1       6.710  -5.645  25.766  0.00  0.00    +0.016 C 
BRANCH  13  14
ATOM     14  C   UNL     1       5.192  -5.931  25.805  0.00  0.00    -0.016 C 
ATOM     15  C   UNL     1       4.858  -6.727  27.072  0.00  0.00    +0.007 C 
ATOM     16  C   UNL     1       4.684  -6.712  24.591  0.00  0.00    +0.007 C 
ENDBRANCH  13  14
ENDBRANCH   5  13
ENDBRANCH   1   5
BRANCH   2  17
ATOM     17  C   UNL     1       8.574  -1.065  26.436  0.00  0.00    +0.163 C 
BRANCH  17  18
ATOM     18  C   UNL     1       7.452  -0.186  27.038  0.00  0.00    +0.233 C 
ATOM     19  N   UNL     1       7.826   0.596  28.113  0.00  0.00    -0.317 N 
ATOM     20  H   UNL     1       8.770   0.541  28.470  0.00  0.00    +0.148 HD
ATOM     21  C   UNL     1       6.937   1.562  28.713  0.00  0.00    +0.128 C 
ATOM     22  O   UNL     1       6.302  -0.208  26.595  0.00  0.00    -0.274 OA
ENDBRANCH  17  18
BRANCH  17  23
ATOM     23  C   UNL     1       9.629  -0.235  25.668  0.00  0.00    +0.067 C 
BRANCH  23  24
ATOM     24  C   UNL     1       9.449  -0.308  24.169  0.00  0.00    -0.045 A 
ATOM     25  C   UNL     1       8.731   0.690  23.496  0.00  0.00    +0.004 A 
ATOM     26  C   UNL     1       8.712   0.726  22.103  0.00  0.00    +0.000 A 
ATOM     27  C   UNL     1       9.388  -0.251  21.375  0.00  0.00    +0.000 A 
ATOM     28  C   UNL     1      10.056  -1.279  22.035  0.00  0.00    +0.000 A 
ATOM     29  C   UNL     1      10.084  -1.311  23.428  0.00  0.00    +0.004 A 
ENDBRANCH  23  24
ENDBRANCH  17  23
ENDBRANCH   2  17
TORSDOF 10
ENDMDL
MODEL 9
REMARK VINA RESULT:      -5.7      2.002      2.564
REMARK  Name = 
REMARK  13 active torsions:
REMARK  status: ('A' for Active; 'I' for Inactive)
REMARK    1  A    between atoms: C_2  and  C_3
REMARK    2  A    between atoms: C_2  and  C_7
REMARK    3  A    between atoms: C_2  and  C_12
REMARK    4  A    between atoms: C_3  and  C_4
REMARK    5  A    between atoms: C_4  and  C_5
REMARK    6  A    between atoms: C_4  and  C_6
REMARK    7  A    between atoms: C_7  and  C_8
REMARK    8  A    between atoms: N_10  and  O_11
REMARK    9  A    between atoms: N_14  and  C_15
REMARK   10  A    between atoms: C_15  and  C_17
REMARK   11  A    between atoms: C_15  and  C_24
REMARK   12  A    between atoms: C_17  and  C_18
REMARK   13  A    between atoms: N_26  and  C_27
REMARK                            x       y       z     vdW  Elec       q    Type
REMARK                         _______ _______ _______ _____ _____    ______ ____
ROOT
ATOM      1  C   UNL     1       8.153  -1.031  26.196  0.00  0.00    +0.217 C 
ATOM      2  N   UNL     1       7.415   0.012  25.717  0.00  0.00    -0.303 N 
ATOM      3  H   UNL     1       6.769  -0.109  24.941  0.00  0.00    +0.149 HD
ATOM      4  O   UNL     1       8.957  -0.891  27.112  0.00  0.00    -0.275 OA
ENDROOT
BRANCH   1   5
ATOM      5  C   UNL     1       7.920  -2.382  25.526  0.00  0.00    +0.084 C 
BRANCH   5   6
ATOM      6  C   UNL     1       7.504  -3.393  26.609  0.00  0.00    +0.110 C 
BRANCH   6   7
ATOM      7  C   UNL     1       8.168  -4.741  26.474  0.00  0.00    +0.236 C 
ATOM      8  N   UNL     1       9.381  -4.687  25.829  0.00  0.00    -0.197 N 
ATOM      9  H   UNL     1       9.650  -3.919  25.222  0.00  0.00    +0.182 HD
ATOM     10  O   UNL     1       7.678  -5.797  26.864  0.00  0.00    -0.274 OA
BRANCH   8  11
ATOM     11  O   UNL     1      10.000  -5.934  25.578  0.00  0.00    -0.295 OA
ATOM     12  H   UNL     1      10.840  -5.668  25.142  0.00  0.00    +0.241 HD
ENDBRANCH   8  11
ENDBRANCH   6   7
ENDBRANCH   5   6
BRANCH   5  13
ATOM     13  C   UNL     1       6.923  -2.295  24.349  0.00  0.00    +0.016 C 
BRANCH  13  14
ATOM     14  C   UNL     1       7.462  -2.606  22.935  0.00  0.00    -0.016 C 
ATOM     15  C   UNL     1       7.491  -4.124  22.724  0.00  0.00    +0.007 C 
ATOM     16  C   UNL     1       8.865  -2.053  22.679  0.00  0.00    +0.007 C 
ENDBRANCH  13  14
ENDBRANCH   5  13
ENDBRANCH   1   5
BRANCH   2  17
ATOM     17  C   UNL     1       7.464   1.356  26.305  0.00  0.00    +0.163 C 
BRANCH  17  18
ATOM     18  C   UNL     1       6.367   1.429  27.394  0.00  0.00    +0.233 C 
ATOM     19  N   UNL     1       6.759   1.026  28.656  0.00  0.00    -0.317 N 
ATOM     20  H   UNL     1       7.699   0.682  28.804  0.00  0.00    +0.148 HD
ATOM     21  C   UNL     1       5.899   1.146  29.808  0.00  0.00    +0.128 C 
ATOM     22  O   UNL     1       5.220   1.800  27.137  0.00  0.00    -0.274 OA
ENDBRANCH  17  18
BRANCH  17  23
ATOM     23  C   UNL     1       7.340   2.493  25.264  0.00  0.00    +0.067 C 
BRANCH  23  24
ATOM     24  C   UNL     1       8.212   2.268  24.050  0.00  0.00    -0.045 A 
ATOM     25  C   UNL     1       9.608   2.252  24.178  0.00  0.00    +0.004 A 
ATOM     26  C   UNL     1      10.409   1.871  23.105  0.00  0.00    +0.000 A 
ATOM     27  C   UNL     1       9.822   1.529  21.888  0.00  0.00    +0.000 A 
ATOM     28  C   UNL     1       8.440   1.597  21.735  0.00  0.00    +0.000 A 
ATOM     29  C   UNL     1       7.636   1.969  22.810  0.00  0.00    +0.004 A 
ENDBRANCH  23  24
ENDBRANCH  17  23
ENDBRANCH   2  17
TORSDOF 10
ENDMDL
