MODEL 1
REMARK VINA RESULT:      -4.2      0.000      0.000
REMARK  Name = 
REMARK  51 active torsions:
REMARK  status: ('A' for Active; 'I' for Inactive)
REMARK    1  A    between atoms: C_1  and  C_2
REMARK    2  A    between atoms: C_2  and  C_3
REMARK    3  A    between atoms: C_3  and  C_4
REMARK    4  A    between atoms: C_4  and  C_5
REMARK    5  A    between atoms: C_5  and  C_6
REMARK    6  A    between atoms: C_6  and  C_7
REMARK    7  A    between atoms: C_7  and  C_8
REMARK    8  A    between atoms: C_8  and  C_9
REMARK    9  A    between atoms: C_9  and  C_10
REMARK   10  A    between atoms: C_10  and  C_11
REMARK   11  A    between atoms: C_11  and  C_12
REMARK   12  A    between atoms: C_12  and  C_13
REMARK   13  A    between atoms: C_13  and  C_14
REMARK   14  A    between atoms: C_14  and  C_15
REMARK   15  A    between atoms: C_15  and  C_16
REMARK   16  A    between atoms: C_16  and  C_17
REMARK   17  A    between atoms: C_17  and  C_18
REMARK   18  A    between atoms: C_18  and  C_19
REMARK   19  A    between atoms: C_19  and  C_20
REMARK   20  A    between atoms: C_20  and  C_21
REMARK   21  A    between atoms: C_21  and  C_22
REMARK   22  A    between atoms: C_22  and  C_23
REMARK   23  A    between atoms: C_23  and  O_25
REMARK   24  A    between atoms: C_23  and  C_26
REMARK   25  A    between atoms: N_28  and  C_29
REMARK   26  A    between atoms: C_29  and  C_31
REMARK   27  A    between atoms: C_29  and  C_53
REMARK   28  A    between atoms: C_31  and  O_32
REMARK   29  A    between atoms: O_32  and  C_33
REMARK   30  A    between atoms: C_36  and  C_38
REMARK   31  A    between atoms: C_38  and  O_39
REMARK   32  A    between atoms: C_40  and  O_42
REMARK   33  A    between atoms: C_43  and  O_45
REMARK   34  A    between atoms: O_45  and  S_46
REMARK   35  A    between atoms: S_46  and  O_47
REMARK   36  A    between atoms: C_50  and  O_52
REMARK   37  A    between atoms: C_53  and  O_55
REMARK   38  A    between atoms: C_53  and  C_56
REMARK   39  A    between atoms: C_57  and  C_58
REMARK   40  A    between atoms: C_58  and  C_59
REMARK   41  A    between atoms: C_59  and  C_60
REMARK   42  A    between atoms: C_60  and  C_61
REMARK   43  A    between atoms: C_61  and  C_62
REMARK   44  A    between atoms: C_62  and  C_63
REMARK   45  A    between atoms: C_63  and  C_64
REMARK   46  A    between atoms: C_64  and  C_65
REMARK   47  A    between atoms: C_65  and  C_66
REMARK   48  A    between atoms: C_66  and  C_67
REMARK   49  A    between atoms: C_67  and  C_68
REMARK   50  A    between atoms: C_68  and  C_69
REMARK   51  A    between atoms: C_69  and  C_70
REMARK                            x       y       z     vdW  Elec       q    Type
REMARK                         _______ _______ _______ _____ _____    ______ ____
ROOT
ATOM      1  C   UNL     1       4.575  -1.806  27.754  0.00  0.00    +0.131 C 
ENDROOT
BRANCH   1   3
ATOM      2  C   UNL     1       4.520   0.281  29.133  0.00  0.00    +0.242 C 
ATOM      3  N   UNL     1       4.522  -0.348  27.910  0.00  0.00    -0.305 N 
ATOM      4  H   UNL     1       4.544   0.267  27.099  0.00  0.00    +0.149 HD
ATOM      5  O   UNL     1       4.534  -0.318  30.204  0.00  0.00    -0.273 OA
BRANCH   2   6
ATOM      6  C   UNL     1       4.441   1.815  29.014  0.00  0.00    +0.200 C 
BRANCH   6   7
ATOM      7  O   UNL     1       3.106   2.205  28.657  0.00  0.00    -0.383 OA
ATOM      8  H   UNL     1       2.663   2.576  29.442  0.00  0.00    +0.210 HD
ENDBRANCH   6   7
BRANCH   6   9
ATOM      9  C   UNL     1       5.480   2.299  28.002  0.00  0.00    +0.041 C 
BRANCH   9  10
ATOM     10  C   UNL     1       4.878   3.097  26.851  0.00  0.00    +0.003 C 
BRANCH  10  11
ATOM     11  C   UNL     1       5.757   4.296  26.514  0.00  0.00    +0.000 C 
BRANCH  11  12
ATOM     12  C   UNL     1       7.214   3.968  26.799  0.00  0.00    +0.000 C 
BRANCH  12  13
ATOM     13  C   UNL     1       8.119   4.554  25.730  0.00  0.00    +0.000 C 
BRANCH  13  14
ATOM     14  C   UNL     1       8.429   6.005  26.060  0.00  0.00    -0.000 C 
BRANCH  14  15
ATOM     15  C   UNL     1       9.755   6.416  25.446  0.00  0.00    -0.000 C 
BRANCH  15  16
ATOM     16  C   UNL     1       9.915   5.772  24.080  0.00  0.00    -0.000 C 
BRANCH  16  17
ATOM     17  C   UNL     1      11.385   5.531  23.789  0.00  0.00    -0.000 C 
BRANCH  17  18
ATOM     18  C   UNL     1      11.603   4.090  23.361  0.00  0.00    -0.000 C 
BRANCH  18  19
ATOM     19  C   UNL     1      10.278   3.348  23.342  0.00  0.00    -0.000 C 
BRANCH  19  20
ATOM     20  C   UNL     1      10.515   1.860  23.150  0.00  0.00    -0.000 C 
BRANCH  20  21
ATOM     21  C   UNL     1      10.755   1.193  24.493  0.00  0.00    -0.000 C 
BRANCH  21  22
ATOM     22  C   UNL     1      10.541  -0.308  24.380  0.00  0.00    -0.000 C 
BRANCH  22  23
ATOM     23  C   UNL     1      10.047  -0.665  22.987  0.00  0.00    -0.000 C 
BRANCH  23  24
ATOM     24  C   UNL     1       9.298  -1.988  23.015  0.00  0.00    -0.000 C 
BRANCH  24  25
ATOM     25  C   UNL     1       8.018  -1.892  22.197  0.00  0.00    -0.000 C 
BRANCH  25  26
ATOM     26  C   UNL     1       6.954  -2.826  22.759  0.00  0.00    -0.000 C 
BRANCH  26  27
ATOM     27  C   UNL     1       7.586  -3.887  23.653  0.00  0.00    -0.000 C 
BRANCH  27  28
ATOM     28  C   UNL     1       7.100  -5.279  23.262  0.00  0.00    -0.000 C 
BRANCH  28  30
ATOM     29  C   UNL     1       6.118  -5.937  21.048  0.00  0.00    +0.004 C 
ATOM     30  C   UNL     1       7.389  -5.567  21.792  0.00  0.00    -0.003 C 
ENDBRANCH  28  30
ENDBRANCH  27  28
ENDBRANCH  26  27
ENDBRANCH  25  26
ENDBRANCH  24  25
ENDBRANCH  23  24
ENDBRANCH  22  23
ENDBRANCH  21  22
ENDBRANCH  20  21
ENDBRANCH  19  20
ENDBRANCH  18  19
ENDBRANCH  17  18
ENDBRANCH  16  17
ENDBRANCH  15  16
ENDBRANCH  14  15
ENDBRANCH  13  14
ENDBRANCH  12  13
ENDBRANCH  11  12
ENDBRANCH  10  11
ENDBRANCH   9  10
ENDBRANCH   6   9
ENDBRANCH   2   6
ENDBRANCH   1   3
BRANCH   1  31
ATOM     31  C   UNL     1       3.151  -2.351  27.500  0.00  0.00    +0.188 C 
BRANCH  31  32
ATOM     32  O   UNL     1       2.700  -3.190  28.560  0.00  0.00    -0.347 OA
BRANCH  32  33
ATOM     33  C   UNL     1       2.915  -4.579  28.307  0.00  0.00    +0.282 C 
ATOM     34  C   UNL     1       2.621  -4.840  26.804  0.00  0.00    +0.204 C 
ATOM     35  C   UNL     1       3.075  -6.244  26.370  0.00  0.00    +0.216 C 
ATOM     36  C   UNL     1       4.469  -6.576  26.908  0.00  0.00    +0.179 C 
ATOM     37  C   UNL     1       4.519  -6.315  28.418  0.00  0.00    +0.178 C 
ATOM     38  O   UNL     1       4.238  -4.938  28.685  0.00  0.00    -0.341 OA
BRANCH  36  39
ATOM     39  O   UNL     1       5.422  -5.765  26.209  0.00  0.00    -0.386 OA
ATOM     40  H   UNL     1       4.955  -5.250  25.528  0.00  0.00    +0.210 HD
ENDBRANCH  36  39
BRANCH  34  41
ATOM     41  O   UNL     1       1.208  -4.751  26.516  0.00  0.00    -0.384 OA
ATOM     42  H   UNL     1       0.882  -3.892  26.835  0.00  0.00    +0.210 HD
ENDBRANCH  34  41
BRANCH  35  43
ATOM     43  O   UNL     1       3.052  -6.305  24.939  0.00  0.00    -0.207 OA
BRANCH  43  44
ATOM     44  S   UNL     1       2.132  -7.421  24.216  0.00  0.00    +0.208 S 
ATOM     45  O   UNL     1       2.650  -8.732  24.542  0.00  0.00    -0.118 OA
ATOM     46  O   UNL     1       1.912  -7.017  22.848  0.00  0.00    -0.118 OA
BRANCH  44  47
ATOM     47  O   UNL     1       0.716  -7.240  24.959  0.00  0.00    -0.231 OA
ATOM     48  H   UNL     1       0.637  -6.285  25.202  0.00  0.00    +0.247 HD
ENDBRANCH  44  47
ENDBRANCH  43  44
ENDBRANCH  35  43
BRANCH  37  49
ATOM     49  C   UNL     1       5.899  -6.634  28.997  0.00  0.00    +0.190 C 
BRANCH  49  50
ATOM     50  O   UNL     1       6.828  -5.631  28.596  0.00  0.00    -0.392 OA
ATOM     51  H   UNL     1       6.369  -5.113  27.907  0.00  0.00    +0.210 HD
ENDBRANCH  49  50
ENDBRANCH  37  49
ENDBRANCH  32  33
ENDBRANCH  31  32
ENDBRANCH   1  31
BRANCH   1  52
ATOM     52  C   UNL     1       5.580  -2.220  26.640  0.00  0.00    +0.159 C 
BRANCH  52  53
ATOM     53  C   UNL     1       6.475  -1.085  26.213  0.00  0.00    +0.002 C 
ATOM     54  C   UNL     1       6.206  -0.266  25.183  0.00  0.00    -0.028 C 
BRANCH  54  55
ATOM     55  C   UNL     1       7.146   0.803  24.711  0.00  0.00    +0.027 C 
BRANCH  55  56
ATOM     56  C   UNL     1       6.440   1.788  23.785  0.00  0.00    +0.004 C 
BRANCH  56  57
ATOM     57  C   UNL     1       6.919   1.610  22.347  0.00  0.00    +0.000 C 
BRANCH  57  58
ATOM     58  C   UNL     1       7.229   2.957  21.704  0.00  0.00    +0.000 C 
BRANCH  58  59
ATOM     59  C   UNL     1       6.616   4.097  22.511  0.00  0.00    +0.000 C 
BRANCH  59  60
ATOM     60  C   UNL     1       7.210   5.437  22.092  0.00  0.00    +0.000 C 
BRANCH  60  61
ATOM     61  C   UNL     1       6.209   6.566  22.310  0.00  0.00    -0.000 C 
BRANCH  61  62
ATOM     62  C   UNL     1       5.549   6.449  23.680  0.00  0.00    -0.000 C 
BRANCH  62  63
ATOM     63  C   UNL     1       4.099   6.918  23.627  0.00  0.00    -0.000 C 
BRANCH  63  64
ATOM     64  C   UNL     1       3.201   5.851  23.008  0.00  0.00    -0.000 C 
BRANCH  64  65
ATOM     65  C   UNL     1       3.102   4.629  23.917  0.00  0.00    -0.000 C 
BRANCH  65  66
ATOM     66  C   UNL     1       3.268   3.335  23.123  0.00  0.00    -0.003 C 
ATOM     67  C   UNL     1       2.207   3.215  22.042  0.00  0.00    +0.004 C 
ENDBRANCH  65  66
ENDBRANCH  64  65
ENDBRANCH  63  64
ENDBRANCH  62  63
ENDBRANCH  61  62
ENDBRANCH  60  61
ENDBRANCH  59  60
ENDBRANCH  58  59
ENDBRANCH  57  58
ENDBRANCH  56  57
ENDBRANCH  55  56
ENDBRANCH  54  55
ENDBRANCH  52  53
BRANCH  52  68
ATOM     68  O   UNL     1       6.447  -3.261  27.075  0.00  0.00    -0.386 OA
ATOM     69  H   UNL     1       5.950  -4.096  27.041  0.00  0.00    +0.210 HD
ENDBRANCH  52  68
ENDBRANCH   1  52
TORSDOF 49
ENDMDL
MODEL 2
REMARK VINA RESULT:      -4.2      2.311      5.909
REMARK  Name = 
REMARK  51 active torsions:
REMARK  status: ('A' for Active; 'I' for Inactive)
REMARK    1  A    between atoms: C_1  and  C_2
REMARK    2  A    between atoms: C_2  and  C_3
REMARK    3  A    between atoms: C_3  and  C_4
REMARK    4  A    between atoms: C_4  and  C_5
REMARK    5  A    between atoms: C_5  and  C_6
REMARK    6  A    between atoms: C_6  and  C_7
REMARK    7  A    between atoms: C_7  and  C_8
REMARK    8  A    between atoms: C_8  and  C_9
REMARK    9  A    between atoms: C_9  and  C_10
REMARK   10  A    between atoms: C_10  and  C_11
REMARK   11  A    between atoms: C_11  and  C_12
REMARK   12  A    between atoms: C_12  and  C_13
REMARK   13  A    between atoms: C_13  and  C_14
REMARK   14  A    between atoms: C_14  and  C_15
REMARK   15  A    between atoms: C_15  and  C_16
REMARK   16  A    between atoms: C_16  and  C_17
REMARK   17  A    between atoms: C_17  and  C_18
REMARK   18  A    between atoms: C_18  and  C_19
REMARK   19  A    between atoms: C_19  and  C_20
REMARK   20  A    between atoms: C_20  and  C_21
REMARK   21  A    between atoms: C_21  and  C_22
REMARK   22  A    between atoms: C_22  and  C_23
REMARK   23  A    between atoms: C_23  and  O_25
REMARK   24  A    between atoms: C_23  and  C_26
REMARK   25  A    between atoms: N_28  and  C_29
REMARK   26  A    between atoms: C_29  and  C_31
REMARK   27  A    between atoms: C_29  and  C_53
REMARK   28  A    between atoms: C_31  and  O_32
REMARK   29  A    between atoms: O_32  and  C_33
REMARK   30  A    between atoms: C_36  and  C_38
REMARK   31  A    between atoms: C_38  and  O_39
REMARK   32  A    between atoms: C_40  and  O_42
REMARK   33  A    between atoms: C_43  and  O_45
REMARK   34  A    between atoms: O_45  and  S_46
REMARK   35  A    between atoms: S_46  and  O_47
REMARK   36  A    between atoms: C_50  and  O_52
REMARK   37  A    between atoms: C_53  and  O_55
REMARK   38  A    between atoms: C_53  and  C_56
REMARK   39  A    between atoms: C_57  and  C_58
REMARK   40  A    between atoms: C_58  and  C_59
REMARK   41  A    between atoms: C_59  and  C_60
REMARK   42  A    between atoms: C_60  and  C_61
REMARK   43  A    between atoms: C_61  and  C_62
REMARK   44  A    between atoms: C_62  and  C_63
REMARK   45  A    between atoms: C_63  and  C_64
REMARK   46  A    between atoms: C_64  and  C_65
REMARK   47  A    between atoms: C_65  and  C_66
REMARK   48  A    between atoms: C_66  and  C_67
REMARK   49  A    between atoms: C_67  and  C_68
REMARK   50  A    between atoms: C_68  and  C_69
REMARK   51  A    between atoms: C_69  and  C_70
REMARK                            x       y       z     vdW  Elec       q    Type
REMARK                         _______ _______ _______ _____ _____    ______ ____
ROOT
ATOM      1  C   UNL     1       9.606  -1.018  23.578  0.00  0.00    +0.131 C 
ENDROOT
BRANCH   1   3
ATOM      2  C   UNL     1       7.293  -0.916  24.525  0.00  0.00    +0.242 C 
ATOM      3  N   UNL     1       8.653  -0.769  24.666  0.00  0.00    -0.305 N 
ATOM      4  H   UNL     1       8.976  -0.530  25.601  0.00  0.00    +0.149 HD
ATOM      5  O   UNL     1       6.751  -1.239  23.473  0.00  0.00    -0.273 OA
BRANCH   2   6
ATOM      6  C   UNL     1       6.520  -0.574  25.814  0.00  0.00    +0.200 C 
BRANCH   6   7
ATOM      7  O   UNL     1       6.256  -1.776  26.553  0.00  0.00    -0.383 OA
ATOM      8  H   UNL     1       7.104  -2.197  26.787  0.00  0.00    +0.210 HD
ENDBRANCH   6   7
BRANCH   6   9
ATOM      9  C   UNL     1       5.240   0.180  25.451  0.00  0.00    +0.041 C 
BRANCH   9  10
ATOM     10  C   UNL     1       5.175   1.582  26.045  0.00  0.00    +0.003 C 
BRANCH  10  11
ATOM     11  C   UNL     1       3.728   1.996  26.283  0.00  0.00    +0.000 C 
BRANCH  11  12
ATOM     12  C   UNL     1       3.663   3.058  27.370  0.00  0.00    +0.000 C 
BRANCH  12  13
ATOM     13  C   UNL     1       4.757   4.094  27.177  0.00  0.00    +0.000 C 
BRANCH  13  14
ATOM     14  C   UNL     1       5.452   4.358  28.503  0.00  0.00    -0.000 C 
BRANCH  14  15
ATOM     15  C   UNL     1       6.840   3.742  28.505  0.00  0.00    -0.000 C 
BRANCH  15  16
ATOM     16  C   UNL     1       6.995   2.819  29.700  0.00  0.00    -0.000 C 
BRANCH  16  17
ATOM     17  C   UNL     1       6.625   1.399  29.312  0.00  0.00    -0.000 C 
BRANCH  17  18
ATOM     18  C   UNL     1       5.399   0.948  30.088  0.00  0.00    -0.000 C 
BRANCH  18  19
ATOM     19  C   UNL     1       4.633  -0.092  29.291  0.00  0.00    -0.000 C 
BRANCH  19  20
ATOM     20  C   UNL     1       3.141   0.067  29.522  0.00  0.00    -0.000 C 
BRANCH  20  21
ATOM     21  C   UNL     1       2.405  -1.180  29.064  0.00  0.00    -0.000 C 
BRANCH  21  22
ATOM     22  C   UNL     1       1.887  -0.994  27.647  0.00  0.00    -0.000 C 
BRANCH  22  23
ATOM     23  C   UNL     1       2.573  -1.970  26.704  0.00  0.00    -0.000 C 
BRANCH  23  24
ATOM     24  C   UNL     1       3.027  -3.208  27.462  0.00  0.00    -0.000 C 
BRANCH  24  25
ATOM     25  C   UNL     1       1.959  -4.291  27.400  0.00  0.00    -0.000 C 
BRANCH  25  26
ATOM     26  C   UNL     1       2.405  -5.428  26.491  0.00  0.00    -0.000 C 
BRANCH  26  27
ATOM     27  C   UNL     1       1.377  -5.676  25.392  0.00  0.00    -0.000 C 
BRANCH  27  28
ATOM     28  C   UNL     1       1.694  -4.834  24.160  0.00  0.00    -0.000 C 
BRANCH  28  30
ATOM     29  C   UNL     1       1.616  -7.049  22.984  0.00  0.00    +0.004 C 
ATOM     30  C   UNL     1       1.304  -5.567  22.881  0.00  0.00    -0.003 C 
ENDBRANCH  28  30
ENDBRANCH  27  28
ENDBRANCH  26  27
ENDBRANCH  25  26
ENDBRANCH  24  25
ENDBRANCH  23  24
ENDBRANCH  22  23
ENDBRANCH  21  22
ENDBRANCH  20  21
ENDBRANCH  19  20
ENDBRANCH  18  19
ENDBRANCH  17  18
ENDBRANCH  16  17
ENDBRANCH  15  16
ENDBRANCH  14  15
ENDBRANCH  13  14
ENDBRANCH  12  13
ENDBRANCH  11  12
ENDBRANCH  10  11
ENDBRANCH   9  10
ENDBRANCH   6   9
ENDBRANCH   2   6
ENDBRANCH   1   3
BRANCH   1  31
ATOM     31  C   UNL     1       9.676  -2.535  23.289  0.00  0.00    +0.188 C 
BRANCH  31  32
ATOM     32  O   UNL     1       9.730  -3.307  24.486  0.00  0.00    -0.347 OA
BRANCH  32  33
ATOM     33  C   UNL     1       8.782  -4.375  24.508  0.00  0.00    +0.282 C 
ATOM     34  C   UNL     1       8.038  -4.323  25.871  0.00  0.00    +0.204 C 
ATOM     35  C   UNL     1       6.820  -5.261  25.891  0.00  0.00    +0.216 C 
ATOM     36  C   UNL     1       5.997  -5.142  24.606  0.00  0.00    +0.179 C 
ATOM     37  C   UNL     1       6.911  -5.293  23.386  0.00  0.00    +0.178 C 
ATOM     38  O   UNL     1       7.908  -4.266  23.393  0.00  0.00    -0.341 OA
BRANCH  36  39
ATOM     39  O   UNL     1       5.344  -3.865  24.610  0.00  0.00    -0.386 OA
ATOM     40  H   UNL     1       5.345  -3.516  25.519  0.00  0.00    +0.210 HD
ENDBRANCH  36  39
BRANCH  34  41
ATOM     41  O   UNL     1       8.895  -4.729  26.960  0.00  0.00    -0.384 OA
ATOM     42  H   UNL     1       9.526  -5.390  26.627  0.00  0.00    +0.210 HD
ENDBRANCH  34  41
BRANCH  35  43
ATOM     43  O   UNL     1       6.023  -4.944  27.039  0.00  0.00    -0.207 OA
BRANCH  43  44
ATOM     44  S   UNL     1       5.847  -6.054  28.202  0.00  0.00    +0.208 S 
ATOM     45  O   UNL     1       4.892  -5.563  29.172  0.00  0.00    -0.118 OA
ATOM     46  O   UNL     1       7.157  -6.512  28.600  0.00  0.00    -0.118 OA
BRANCH  44  47
ATOM     47  O   UNL     1       5.176  -7.284  27.411  0.00  0.00    -0.231 OA
ATOM     48  H   UNL     1       4.921  -6.949  26.517  0.00  0.00    +0.247 HD
ENDBRANCH  44  47
ENDBRANCH  43  44
ENDBRANCH  35  43
BRANCH  37  49
ATOM     49  C   UNL     1       6.127  -5.179  22.078  0.00  0.00    +0.190 C 
BRANCH  49  50
ATOM     50  O   UNL     1       4.858  -5.812  22.225  0.00  0.00    -0.392 OA
ATOM     51  H   UNL     1       4.764  -5.982  23.183  0.00  0.00    +0.210 HD
ENDBRANCH  49  50
ENDBRANCH  37  49
ENDBRANCH  32  33
ENDBRANCH  31  32
ENDBRANCH   1  31
BRANCH   1  52
ATOM     52  C   UNL     1       9.249  -0.185  22.313  0.00  0.00    +0.159 C 
BRANCH  52  53
ATOM     53  C   UNL     1       9.935   1.157  22.287  0.00  0.00    +0.002 C 
ATOM     54  C   UNL     1      10.243   1.861  23.389  0.00  0.00    -0.028 C 
BRANCH  54  55
ATOM     55  C   UNL     1      10.844   3.235  23.348  0.00  0.00    +0.027 C 
BRANCH  55  56
ATOM     56  C   UNL     1       9.858   4.282  23.855  0.00  0.00    +0.004 C 
BRANCH  56  57
ATOM     57  C   UNL     1       8.861   3.655  24.826  0.00  0.00    +0.000 C 
BRANCH  57  58
ATOM     58  C   UNL     1       7.709   4.610  25.119  0.00  0.00    +0.000 C 
BRANCH  58  59
ATOM     59  C   UNL     1       7.818   5.868  24.265  0.00  0.00    +0.000 C 
BRANCH  59  60
ATOM     60  C   UNL     1       7.012   7.009  24.877  0.00  0.00    +0.000 C 
BRANCH  60  61
ATOM     61  C   UNL     1       5.520   6.810  24.635  0.00  0.00    -0.000 C 
BRANCH  61  62
ATOM     62  C   UNL     1       5.229   6.651  23.146  0.00  0.00    -0.000 C 
BRANCH  62  63
ATOM     63  C   UNL     1       4.076   5.679  22.919  0.00  0.00    -0.000 C 
BRANCH  63  64
ATOM     64  C   UNL     1       4.372   4.322  23.552  0.00  0.00    -0.000 C 
BRANCH  64  65
ATOM     65  C   UNL     1       4.587   3.257  22.480  0.00  0.00    -0.000 C 
BRANCH  65  66
ATOM     66  C   UNL     1       5.937   2.565  22.652  0.00  0.00    -0.003 C 
ATOM     67  C   UNL     1       6.992   3.190  21.755  0.00  0.00    +0.004 C 
ENDBRANCH  65  66
ENDBRANCH  64  65
ENDBRANCH  63  64
ENDBRANCH  62  63
ENDBRANCH  61  62
ENDBRANCH  60  61
ENDBRANCH  59  60
ENDBRANCH  58  59
ENDBRANCH  57  58
ENDBRANCH  56  57
ENDBRANCH  55  56
ENDBRANCH  54  55
ENDBRANCH  52  53
BRANCH  52  68
ATOM     68  O   UNL     1       9.643  -0.851  21.118  0.00  0.00    -0.386 OA
ATOM     69  H   UNL     1      10.106  -1.667  21.371  0.00  0.00    +0.210 HD
ENDBRANCH  52  68
ENDBRANCH   1  52
TORSDOF 49
ENDMDL
MODEL 3
REMARK VINA RESULT:      -4.1      2.684      8.085
REMARK  Name = 
REMARK  51 active torsions:
REMARK  status: ('A' for Active; 'I' for Inactive)
REMARK    1  A    between atoms: C_1  and  C_2
REMARK    2  A    between atoms: C_2  and  C_3
REMARK    3  A    between atoms: C_3  and  C_4
REMARK    4  A    between atoms: C_4  and  C_5
REMARK    5  A    between atoms: C_5  and  C_6
REMARK    6  A    between atoms: C_6  and  C_7
REMARK    7  A    between atoms: C_7  and  C_8
REMARK    8  A    between atoms: C_8  and  C_9
REMARK    9  A    between atoms: C_9  and  C_10
REMARK   10  A    between atoms: C_10  and  C_11
REMARK   11  A    between atoms: C_11  and  C_12
REMARK   12  A    between atoms: C_12  and  C_13
REMARK   13  A    between atoms: C_13  and  C_14
REMARK   14  A    between atoms: C_14  and  C_15
REMARK   15  A    between atoms: C_15  and  C_16
REMARK   16  A    between atoms: C_16  and  C_17
REMARK   17  A    between atoms: C_17  and  C_18
REMARK   18  A    between atoms: C_18  and  C_19
REMARK   19  A    between atoms: C_19  and  C_20
REMARK   20  A    between atoms: C_20  and  C_21
REMARK   21  A    between atoms: C_21  and  C_22
REMARK   22  A    between atoms: C_22  and  C_23
REMARK   23  A    between atoms: C_23  and  O_25
REMARK   24  A    between atoms: C_23  and  C_26
REMARK   25  A    between atoms: N_28  and  C_29
REMARK   26  A    between atoms: C_29  and  C_31
REMARK   27  A    between atoms: C_29  and  C_53
REMARK   28  A    between atoms: C_31  and  O_32
REMARK   29  A    between atoms: O_32  and  C_33
REMARK   30  A    between atoms: C_36  and  C_38
REMARK   31  A    between atoms: C_38  and  O_39
REMARK   32  A    between atoms: C_40  and  O_42
REMARK   33  A    between atoms: C_43  and  O_45
REMARK   34  A    between atoms: O_45  and  S_46
REMARK   35  A    between atoms: S_46  and  O_47
REMARK   36  A    between atoms: C_50  and  O_52
REMARK   37  A    between atoms: C_53  and  O_55
REMARK   38  A    between atoms: C_53  and  C_56
REMARK   39  A    between atoms: C_57  and  C_58
REMARK   40  A    between atoms: C_58  and  C_59
REMARK   41  A    between atoms: C_59  and  C_60
REMARK   42  A    between atoms: C_60  and  C_61
REMARK   43  A    between atoms: C_61  and  C_62
REMARK   44  A    between atoms: C_62  and  C_63
REMARK   45  A    between atoms: C_63  and  C_64
REMARK   46  A    between atoms: C_64  and  C_65
REMARK   47  A    between atoms: C_65  and  C_66
REMARK   48  A    between atoms: C_66  and  C_67
REMARK   49  A    between atoms: C_67  and  C_68
REMARK   50  A    between atoms: C_68  and  C_69
REMARK   51  A    between atoms: C_69  and  C_70
REMARK                            x       y       z     vdW  Elec       q    Type
REMARK                         _______ _______ _______ _____ _____    ______ ____
ROOT
ATOM      1  C   UNL     1       8.232  -3.229  26.325  0.00  0.00    +0.131 C 
ENDROOT
BRANCH   1   3
ATOM      2  C   UNL     1       9.294  -2.007  24.418  0.00  0.00    +0.242 C 
ATOM      3  N   UNL     1       8.527  -3.042  24.900  0.00  0.00    -0.305 N 
ATOM      4  H   UNL     1       8.216  -3.720  24.207  0.00  0.00    +0.149 HD
ATOM      5  O   UNL     1       9.776  -1.132  25.129  0.00  0.00    -0.273 OA
BRANCH   2   6
ATOM      6  C   UNL     1       9.433  -2.033  22.883  0.00  0.00    +0.200 C 
BRANCH   6   7
ATOM      7  O   UNL     1      10.820  -1.972  22.521  0.00  0.00    -0.383 OA
ATOM      8  H   UNL     1      11.360  -2.237  23.289  0.00  0.00    +0.210 HD
ENDBRANCH   6   7
BRANCH   6   9
ATOM      9  C   UNL     1       8.622  -0.884  22.283  0.00  0.00    +0.041 C 
BRANCH   9  10
ATOM     10  C   UNL     1       9.420  -0.026  21.307  0.00  0.00    +0.003 C 
BRANCH  10  11
ATOM     11  C   UNL     1       9.433   1.429  21.760  0.00  0.00    +0.000 C 
BRANCH  11  12
ATOM     12  C   UNL     1       9.299   1.503  23.273  0.00  0.00    +0.000 C 
BRANCH  12  13
ATOM     13  C   UNL     1      10.403   2.357  23.872  0.00  0.00    +0.000 C 
BRANCH  13  14
ATOM     14  C   UNL     1      10.868   3.383  22.852  0.00  0.00    -0.000 C 
BRANCH  14  15
ATOM     15  C   UNL     1      11.671   4.477  23.530  0.00  0.00    -0.000 C 
BRANCH  15  16
ATOM     16  C   UNL     1      10.935   5.801  23.425  0.00  0.00    -0.000 C 
BRANCH  16  17
ATOM     17  C   UNL     1      10.079   6.019  24.660  0.00  0.00    -0.000 C 
BRANCH  17  18
ATOM     18  C   UNL     1       8.610   5.847  24.314  0.00  0.00    -0.000 C 
BRANCH  18  19
ATOM     19  C   UNL     1       8.335   6.395  22.925  0.00  0.00    -0.000 C 
BRANCH  19  20
ATOM     20  C   UNL     1       7.370   5.486  22.186  0.00  0.00    -0.000 C 
BRANCH  20  21
ATOM     21  C   UNL     1       7.165   4.199  22.965  0.00  0.00    -0.000 C 
BRANCH  21  22
ATOM     22  C   UNL     1       6.187   3.292  22.234  0.00  0.00    -0.000 C 
BRANCH  22  23
ATOM     23  C   UNL     1       4.907   3.141  23.040  0.00  0.00    -0.000 C 
BRANCH  23  24
ATOM     24  C   UNL     1       3.698   3.464  22.176  0.00  0.00    -0.000 C 
BRANCH  24  25
ATOM     25  C   UNL     1       2.887   4.594  22.797  0.00  0.00    -0.000 C 
BRANCH  25  26
ATOM     26  C   UNL     1       3.708   5.876  22.843  0.00  0.00    -0.000 C 
BRANCH  26  27
ATOM     27  C   UNL     1       3.600   6.536  24.213  0.00  0.00    -0.000 C 
BRANCH  27  28
ATOM     28  C   UNL     1       4.978   6.682  24.850  0.00  0.00    -0.000 C 
BRANCH  28  30
ATOM     29  C   UNL     1       3.974   4.979  26.396  0.00  0.00    +0.004 C 
ATOM     30  C   UNL     1       5.262   5.533  25.812  0.00  0.00    -0.003 C 
ENDBRANCH  28  30
ENDBRANCH  27  28
ENDBRANCH  26  27
ENDBRANCH  25  26
ENDBRANCH  24  25
ENDBRANCH  23  24
ENDBRANCH  22  23
ENDBRANCH  21  22
ENDBRANCH  20  21
ENDBRANCH  19  20
ENDBRANCH  18  19
ENDBRANCH  17  18
ENDBRANCH  16  17
ENDBRANCH  15  16
ENDBRANCH  14  15
ENDBRANCH  13  14
ENDBRANCH  12  13
ENDBRANCH  11  12
ENDBRANCH  10  11
ENDBRANCH   9  10
ENDBRANCH   6   9
ENDBRANCH   2   6
ENDBRANCH   1   3
BRANCH   1  31
ATOM     31  C   UNL     1       6.907  -2.515  26.677  0.00  0.00    +0.188 C 
BRANCH  31  32
ATOM     32  O   UNL     1       6.213  -2.068  25.514  0.00  0.00    -0.347 OA
BRANCH  32  33
ATOM     33  C   UNL     1       5.711  -0.737  25.637  0.00  0.00    +0.282 C 
ATOM     34  C   UNL     1       4.580  -0.751  26.702  0.00  0.00    +0.204 C 
ATOM     35  C   UNL     1       4.154   0.672  27.099  0.00  0.00    +0.216 C 
ATOM     36  C   UNL     1       5.366   1.577  27.335  0.00  0.00    +0.179 C 
ATOM     37  C   UNL     1       6.317   1.496  26.136  0.00  0.00    +0.178 C 
ATOM     38  O   UNL     1       6.772   0.150  25.964  0.00  0.00    -0.341 OA
BRANCH  36  39
ATOM     39  O   UNL     1       6.014   1.151  28.541  0.00  0.00    -0.386 OA
ATOM     40  H   UNL     1       6.018   0.178  28.567  0.00  0.00    +0.210 HD
ENDBRANCH  36  39
BRANCH  34  41
ATOM     41  O   UNL     1       3.397  -1.419  26.212  0.00  0.00    -0.384 OA
ATOM     42  H   UNL     1       3.665  -2.070  25.541  0.00  0.00    +0.210 HD
ENDBRANCH  34  41
BRANCH  35  43
ATOM     43  O   UNL     1       3.342   0.590  28.277  0.00  0.00    -0.207 OA
BRANCH  43  44
ATOM     44  S   UNL     1       1.733   0.639  28.125  0.00  0.00    +0.208 S 
ATOM     45  O   UNL     1       1.225   1.738  28.919  0.00  0.00    -0.118 OA
ATOM     46  O   UNL     1       1.217  -0.700  28.277  0.00  0.00    -0.118 OA
BRANCH  44  47
ATOM     47  O   UNL     1       1.541   1.008  26.571  0.00  0.00    -0.231 OA
ATOM     48  H   UNL     1       2.438   1.213  26.209  0.00  0.00    +0.247 HD
ENDBRANCH  44  47
ENDBRANCH  43  44
ENDBRANCH  35  43
BRANCH  37  49
ATOM     49  C   UNL     1       7.545   2.387  26.331  0.00  0.00    +0.190 C 
BRANCH  49  50
ATOM     50  O   UNL     1       7.348   3.230  27.462  0.00  0.00    -0.392 OA
ATOM     51  H   UNL     1       6.520   3.718  27.280  0.00  0.00    +0.210 HD
ENDBRANCH  49  50
ENDBRANCH  37  49
ENDBRANCH  32  33
ENDBRANCH  31  32
ENDBRANCH   1  31
BRANCH   1  52
ATOM     52  C   UNL     1       8.215  -4.738  26.706  0.00  0.00    +0.159 C 
BRANCH  52  53
ATOM     53  C   UNL     1       6.824  -5.321  26.712  0.00  0.00    +0.002 C 
ATOM     54  C   UNL     1       6.262  -5.903  27.784  0.00  0.00    -0.028 C 
BRANCH  54  55
ATOM     55  C   UNL     1       4.913  -6.558  27.753  0.00  0.00    +0.027 C 
BRANCH  55  56
ATOM     56  C   UNL     1       3.800  -5.538  27.972  0.00  0.00    +0.004 C 
BRANCH  56  57
ATOM     57  C   UNL     1       2.673  -5.751  26.965  0.00  0.00    +0.000 C 
BRANCH  57  58
ATOM     58  C   UNL     1       1.808  -4.502  26.841  0.00  0.00    +0.000 C 
BRANCH  58  59
ATOM     59  C   UNL     1       1.262  -4.359  25.424  0.00  0.00    +0.000 C 
BRANCH  59  60
ATOM     60  C   UNL     1       1.424  -5.661  24.648  0.00  0.00    +0.000 C 
BRANCH  60  61
ATOM     61  C   UNL     1       1.980  -5.395  23.253  0.00  0.00    -0.000 C 
BRANCH  61  62
ATOM     62  C   UNL     1       3.488  -5.620  23.218  0.00  0.00    -0.000 C 
BRANCH  62  63
ATOM     63  C   UNL     1       4.235  -4.354  23.623  0.00  0.00    -0.000 C 
BRANCH  63  64
ATOM     64  C   UNL     1       5.565  -4.243  22.884  0.00  0.00    -0.000 C 
BRANCH  64  65
ATOM     65  C   UNL     1       6.481  -5.413  23.232  0.00  0.00    -0.000 C 
BRANCH  65  66
ATOM     66  C   UNL     1       7.081  -6.037  21.974  0.00  0.00    -0.003 C 
ATOM     67  C   UNL     1       6.202  -5.781  20.761  0.00  0.00    +0.004 C 
ENDBRANCH  65  66
ENDBRANCH  64  65
ENDBRANCH  63  64
ENDBRANCH  62  63
ENDBRANCH  61  62
ENDBRANCH  60  61
ENDBRANCH  59  60
ENDBRANCH  58  59
ENDBRANCH  57  58
ENDBRANCH  56  57
ENDBRANCH  55  56
ENDBRANCH  54  55
ENDBRANCH  52  53
BRANCH  52  68
ATOM     68  O   UNL     1       8.965  -5.521  25.784  0.00  0.00    -0.386 OA
ATOM     69  H   UNL     1       9.107  -6.395  26.183  0.00  0.00    +0.210 HD
ENDBRANCH  52  68
ENDBRANCH   1  52
TORSDOF 49
ENDMDL
MODEL 4
REMARK VINA RESULT:      -4.0      2.507      7.680
REMARK  Name = 
REMARK  51 active torsions:
REMARK  status: ('A' for Active; 'I' for Inactive)
REMARK    1  A    between atoms: C_1  and  C_2
REMARK    2  A    between atoms: C_2  and  C_3
REMARK    3  A    between atoms: C_3  and  C_4
REMARK    4  A    between atoms: C_4  and  C_5
REMARK    5  A    between atoms: C_5  and  C_6
REMARK    6  A    between atoms: C_6  and  C_7
REMARK    7  A    between atoms: C_7  and  C_8
REMARK    8  A    between atoms: C_8  and  C_9
REMARK    9  A    between atoms: C_9  and  C_10
REMARK   10  A    between atoms: C_10  and  C_11
REMARK   11  A    between atoms: C_11  and  C_12
REMARK   12  A    between atoms: C_12  and  C_13
REMARK   13  A    between atoms: C_13  and  C_14
REMARK   14  A    between atoms: C_14  and  C_15
REMARK   15  A    between atoms: C_15  and  C_16
REMARK   16  A    between atoms: C_16  and  C_17
REMARK   17  A    between atoms: C_17  and  C_18
REMARK   18  A    between atoms: C_18  and  C_19
REMARK   19  A    between atoms: C_19  and  C_20
REMARK   20  A    between atoms: C_20  and  C_21
REMARK   21  A    between atoms: C_21  and  C_22
REMARK   22  A    between atoms: C_22  and  C_23
REMARK   23  A    between atoms: C_23  and  O_25
REMARK   24  A    between atoms: C_23  and  C_26
REMARK   25  A    between atoms: N_28  and  C_29
REMARK   26  A    between atoms: C_29  and  C_31
REMARK   27  A    between atoms: C_29  and  C_53
REMARK   28  A    between atoms: C_31  and  O_32
REMARK   29  A    between atoms: O_32  and  C_33
REMARK   30  A    between atoms: C_36  and  C_38
REMARK   31  A    between atoms: C_38  and  O_39
REMARK   32  A    between atoms: C_40  and  O_42
REMARK   33  A    between atoms: C_43  and  O_45
REMARK   34  A    between atoms: O_45  and  S_46
REMARK   35  A    between atoms: S_46  and  O_47
REMARK   36  A    between atoms: C_50  and  O_52
REMARK   37  A    between atoms: C_53  and  O_55
REMARK   38  A    between atoms: C_53  and  C_56
REMARK   39  A    between atoms: C_57  and  C_58
REMARK   40  A    between atoms: C_58  and  C_59
REMARK   41  A    between atoms: C_59  and  C_60
REMARK   42  A    between atoms: C_60  and  C_61
REMARK   43  A    between atoms: C_61  and  C_62
REMARK   44  A    between atoms: C_62  and  C_63
REMARK   45  A    between atoms: C_63  and  C_64
REMARK   46  A    between atoms: C_64  and  C_65
REMARK   47  A    between atoms: C_65  and  C_66
REMARK   48  A    between atoms: C_66  and  C_67
REMARK   49  A    between atoms: C_67  and  C_68
REMARK   50  A    between atoms: C_68  and  C_69
REMARK   51  A    between atoms: C_69  and  C_70
REMARK                            x       y       z     vdW  Elec       q    Type
REMARK                         _______ _______ _______ _____ _____    ______ ____
ROOT
ATOM      1  C   UNL     1       7.767  -1.062  23.961  0.00  0.00    +0.131 C 
ENDROOT
BRANCH   1   3
ATOM      2  C   UNL     1       8.699   0.327  22.101  0.00  0.00    +0.242 C 
ATOM      3  N   UNL     1       8.076   0.222  23.322  0.00  0.00    -0.305 N 
ATOM      4  H   UNL     1       7.781   1.101  23.743  0.00  0.00    +0.149 HD
ATOM      5  O   UNL     1       9.079  -0.640  21.448  0.00  0.00    -0.273 OA
BRANCH   2   6
ATOM      6  C   UNL     1       8.921   1.789  21.668  0.00  0.00    +0.200 C 
BRANCH   6   7
ATOM      7  O   UNL     1      10.325   2.040  21.508  0.00  0.00    -0.383 OA
ATOM      8  H   UNL     1      10.523   2.143  20.559  0.00  0.00    +0.210 HD
ENDBRANCH   6   7
BRANCH   6   9
ATOM      9  C   UNL     1       8.276   2.723  22.693  0.00  0.00    +0.041 C 
BRANCH   9  10
ATOM     10  C   UNL     1       7.065   3.474  22.150  0.00  0.00    +0.003 C 
BRANCH  10  11
ATOM     11  C   UNL     1       5.888   3.359  23.110  0.00  0.00    +0.000 C 
BRANCH  11  12
ATOM     12  C   UNL     1       5.581   4.717  23.721  0.00  0.00    +0.000 C 
BRANCH  12  13
ATOM     13  C   UNL     1       4.844   5.601  22.729  0.00  0.00    +0.000 C 
BRANCH  13  14
ATOM     14  C   UNL     1       3.345   5.482  22.952  0.00  0.00    -0.000 C 
BRANCH  14  15
ATOM     15  C   UNL     1       2.757   4.420  22.040  0.00  0.00    -0.000 C 
BRANCH  15  16
ATOM     16  C   UNL     1       1.946   3.429  22.855  0.00  0.00    -0.000 C 
BRANCH  16  17
ATOM     17  C   UNL     1       1.811   3.919  24.286  0.00  0.00    -0.000 C 
BRANCH  17  18
ATOM     18  C   UNL     1       2.257   2.835  25.252  0.00  0.00    -0.000 C 
BRANCH  18  19
ATOM     19  C   UNL     1       3.421   3.333  26.090  0.00  0.00    -0.000 C 
BRANCH  19  20
ATOM     20  C   UNL     1       2.947   4.395  27.067  0.00  0.00    -0.000 C 
BRANCH  20  21
ATOM     21  C   UNL     1       3.557   5.739  26.713  0.00  0.00    -0.000 C 
BRANCH  21  22
ATOM     22  C   UNL     1       5.027   5.767  27.099  0.00  0.00    -0.000 C 
BRANCH  22  23
ATOM     23  C   UNL     1       5.644   7.105  26.723  0.00  0.00    -0.000 C 
BRANCH  23  24
ATOM     24  C   UNL     1       7.155   6.977  26.606  0.00  0.00    -0.000 C 
BRANCH  24  25
ATOM     25  C   UNL     1       7.567   5.512  26.621  0.00  0.00    -0.000 C 
BRANCH  25  26
ATOM     26  C   UNL     1       8.675   5.260  25.607  0.00  0.00    -0.000 C 
BRANCH  26  27
ATOM     27  C   UNL     1       8.906   6.495  24.742  0.00  0.00    -0.000 C 
BRANCH  27  28
ATOM     28  C   UNL     1       9.722   6.139  23.504  0.00  0.00    -0.000 C 
BRANCH  28  30
ATOM     29  C   UNL     1      11.726   4.632  23.397  0.00  0.00    +0.004 C 
ATOM     30  C   UNL     1      11.200   5.983  23.847  0.00  0.00    -0.003 C 
ENDBRANCH  28  30
ENDBRANCH  27  28
ENDBRANCH  26  27
ENDBRANCH  25  26
ENDBRANCH  24  25
ENDBRANCH  23  24
ENDBRANCH  22  23
ENDBRANCH  21  22
ENDBRANCH  20  21
ENDBRANCH  19  20
ENDBRANCH  18  19
ENDBRANCH  17  18
ENDBRANCH  16  17
ENDBRANCH  15  16
ENDBRANCH  14  15
ENDBRANCH  13  14
ENDBRANCH  12  13
ENDBRANCH  11  12
ENDBRANCH  10  11
ENDBRANCH   9  10
ENDBRANCH   6   9
ENDBRANCH   2   6
ENDBRANCH   1   3
BRANCH   1  31
ATOM     31  C   UNL     1       8.995  -1.549  24.763  0.00  0.00    +0.188 C 
BRANCH  31  32
ATOM     32  O   UNL     1       9.686  -2.604  24.100  0.00  0.00    -0.347 OA
BRANCH  32  33
ATOM     33  C   UNL     1       9.008  -3.858  24.182  0.00  0.00    +0.282 C 
ATOM     34  C   UNL     1       8.135  -3.844  25.467  0.00  0.00    +0.204 C 
ATOM     35  C   UNL     1       7.166  -5.038  25.510  0.00  0.00    +0.216 C 
ATOM     36  C   UNL     1       6.474  -5.249  24.162  0.00  0.00    +0.179 C 
ATOM     37  C   UNL     1       7.519  -5.304  23.043  0.00  0.00    +0.178 C 
ATOM     38  O   UNL     1       8.251  -4.074  22.998  0.00  0.00    -0.341 OA
BRANCH  36  39
ATOM     39  O   UNL     1       5.552  -4.170  23.958  0.00  0.00    -0.386 OA
ATOM     40  H   UNL     1       4.761  -4.327  24.504  0.00  0.00    +0.210 HD
ENDBRANCH  36  39
BRANCH  34  41
ATOM     41  O   UNL     1       8.945  -3.921  26.660  0.00  0.00    -0.384 OA
ATOM     42  H   UNL     1       9.269  -4.834  26.756  0.00  0.00    +0.210 HD
ENDBRANCH  34  41
BRANCH  35  43
ATOM     43  O   UNL     1       6.204  -4.802  26.546  0.00  0.00    -0.207 OA
BRANCH  43  44
ATOM     44  S   UNL     1       6.156  -5.805  27.814  0.00  0.00    +0.208 S 
ATOM     45  O   UNL     1       5.350  -6.955  27.466  0.00  0.00    -0.118 OA
ATOM     46  O   UNL     1       5.888  -5.030  29.002  0.00  0.00    -0.118 OA
BRANCH  44  47
ATOM     47  O   UNL     1       7.688  -6.282  27.939  0.00  0.00    -0.231 OA
ATOM     48  H   UNL     1       7.940  -6.679  27.070  0.00  0.00    +0.247 HD
ENDBRANCH  44  47
ENDBRANCH  43  44
ENDBRANCH  35  43
BRANCH  37  49
ATOM     49  C   UNL     1       6.868  -5.514  21.675  0.00  0.00    +0.190 C 
BRANCH  49  50
ATOM     50  O   UNL     1       5.742  -6.377  21.810  0.00  0.00    -0.392 OA
ATOM     51  H   UNL     1       5.894  -6.874  22.638  0.00  0.00    +0.210 HD
ENDBRANCH  49  50
ENDBRANCH  37  49
ENDBRANCH  32  33
ENDBRANCH  31  32
ENDBRANCH   1  31
BRANCH   1  52
ATOM     52  C   UNL     1       6.483  -0.965  24.835  0.00  0.00    +0.159 C 
BRANCH  52  53
ATOM     53  C   UNL     1       6.236   0.429  25.353  0.00  0.00    +0.002 C 
ATOM     54  C   UNL     1       6.715   0.890  26.520  0.00  0.00    -0.028 C 
BRANCH  54  55
ATOM     55  C   UNL     1       6.389   2.248  27.066  0.00  0.00    +0.027 C 
BRANCH  55  56
ATOM     56  C   UNL     1       6.834   2.379  28.519  0.00  0.00    +0.004 C 
BRANCH  56  57
ATOM     57  C   UNL     1       5.987   1.484  29.421  0.00  0.00    +0.000 C 
BRANCH  57  58
ATOM     58  C   UNL     1       4.517   1.885  29.362  0.00  0.00    +0.000 C 
BRANCH  58  59
ATOM     59  C   UNL     1       3.617   0.657  29.445  0.00  0.00    +0.000 C 
BRANCH  59  60
ATOM     60  C   UNL     1       2.428   0.792  28.499  0.00  0.00    +0.000 C 
BRANCH  60  61
ATOM     61  C   UNL     1       2.285  -0.450  27.626  0.00  0.00    -0.000 C 
BRANCH  61  62
ATOM     62  C   UNL     1       3.653  -0.983  27.213  0.00  0.00    -0.000 C 
BRANCH  62  63
ATOM     63  C   UNL     1       3.971  -2.284  27.942  0.00  0.00    -0.000 C 
BRANCH  63  64
ATOM     64  C   UNL     1       2.694  -3.047  28.282  0.00  0.00    -0.000 C 
BRANCH  64  65
ATOM     65  C   UNL     1       2.574  -4.313  27.437  0.00  0.00    -0.000 C 
BRANCH  65  66
ATOM     66  C   UNL     1       1.859  -4.030  26.118  0.00  0.00    -0.003 C 
ATOM     67  C   UNL     1       2.256  -5.036  25.051  0.00  0.00    +0.004 C 
ENDBRANCH  65  66
ENDBRANCH  64  65
ENDBRANCH  63  64
ENDBRANCH  62  63
ENDBRANCH  61  62
ENDBRANCH  60  61
ENDBRANCH  59  60
ENDBRANCH  58  59
ENDBRANCH  57  58
ENDBRANCH  56  57
ENDBRANCH  55  56
ENDBRANCH  54  55
ENDBRANCH  52  53
BRANCH  52  68
ATOM     68  O   UNL     1       5.318  -1.324  24.101  0.00  0.00    -0.386 OA
ATOM     69  H   UNL     1       5.497  -1.157  23.160  0.00  0.00    +0.210 HD
ENDBRANCH  52  68
ENDBRANCH   1  52
TORSDOF 49
ENDMDL
MODEL 5
REMARK VINA RESULT:      -3.9      4.198      9.767
REMARK  Name = 
REMARK  51 active torsions:
REMARK  status: ('A' for Active; 'I' for Inactive)
REMARK    1  A    between atoms: C_1  and  C_2
REMARK    2  A    between atoms: C_2  and  C_3
REMARK    3  A    between atoms: C_3  and  C_4
REMARK    4  A    between atoms: C_4  and  C_5
REMARK    5  A    between atoms: C_5  and  C_6
REMARK    6  A    between atoms: C_6  and  C_7
REMARK    7  A    between atoms: C_7  and  C_8
REMARK    8  A    between atoms: C_8  and  C_9
REMARK    9  A    between atoms: C_9  and  C_10
REMARK   10  A    between atoms: C_10  and  C_11
REMARK   11  A    between atoms: C_11  and  C_12
REMARK   12  A    between atoms: C_12  and  C_13
REMARK   13  A    between atoms: C_13  and  C_14
REMARK   14  A    between atoms: C_14  and  C_15
REMARK   15  A    between atoms: C_15  and  C_16
REMARK   16  A    between atoms: C_16  and  C_17
REMARK   17  A    between atoms: C_17  and  C_18
REMARK   18  A    between atoms: C_18  and  C_19
REMARK   19  A    between atoms: C_19  and  C_20
REMARK   20  A    between atoms: C_20  and  C_21
REMARK   21  A    between atoms: C_21  and  C_22
REMARK   22  A    between atoms: C_22  and  C_23
REMARK   23  A    between atoms: C_23  and  O_25
REMARK   24  A    between atoms: C_23  and  C_26
REMARK   25  A    between atoms: N_28  and  C_29
REMARK   26  A    between atoms: C_29  and  C_31
REMARK   27  A    between atoms: C_29  and  C_53
REMARK   28  A    between atoms: C_31  and  O_32
REMARK   29  A    between atoms: O_32  and  C_33
REMARK   30  A    between atoms: C_36  and  C_38
REMARK   31  A    between atoms: C_38  and  O_39
REMARK   32  A    between atoms: C_40  and  O_42
REMARK   33  A    between atoms: C_43  and  O_45
REMARK   34  A    between atoms: O_45  and  S_46
REMARK   35  A    between atoms: S_46  and  O_47
REMARK   36  A    between atoms: C_50  and  O_52
REMARK   37  A    between atoms: C_53  and  O_55
REMARK   38  A    between atoms: C_53  and  C_56
REMARK   39  A    between atoms: C_57  and  C_58
REMARK   40  A    between atoms: C_58  and  C_59
REMARK   41  A    between atoms: C_59  and  C_60
REMARK   42  A    between atoms: C_60  and  C_61
REMARK   43  A    between atoms: C_61  and  C_62
REMARK   44  A    between atoms: C_62  and  C_63
REMARK   45  A    between atoms: C_63  and  C_64
REMARK   46  A    between atoms: C_64  and  C_65
REMARK   47  A    between atoms: C_65  and  C_66
REMARK   48  A    between atoms: C_66  and  C_67
REMARK   49  A    between atoms: C_67  and  C_68
REMARK   50  A    between atoms: C_68  and  C_69
REMARK   51  A    between atoms: C_69  and  C_70
REMARK                            x       y       z     vdW  Elec       q    Type
REMARK                         _______ _______ _______ _____ _____    ______ ____
ROOT
ATOM      1  C   UNL     1       8.607  -0.878  24.649  0.00  0.00    +0.131 C 
ENDROOT
BRANCH   1   3
ATOM      2  C   UNL     1       9.282  -3.275  24.413  0.00  0.00    +0.242 C 
ATOM      3  N   UNL     1       9.108  -2.149  25.184  0.00  0.00    -0.305 N 
ATOM      4  H   UNL     1       9.408  -2.228  26.153  0.00  0.00    +0.149 HD
ATOM      5  O   UNL     1       9.007  -3.329  23.219  0.00  0.00    -0.273 OA
BRANCH   2   6
ATOM      6  C   UNL     1       9.803  -4.477  25.224  0.00  0.00    +0.200 C 
BRANCH   6   7
ATOM      7  O   UNL     1       9.645  -5.682  24.460  0.00  0.00    -0.383 OA
ATOM      8  H   UNL     1       9.575  -5.452  23.516  0.00  0.00    +0.210 HD
ENDBRANCH   6   7
BRANCH   6   9
ATOM      9  C   UNL     1       9.072  -4.537  26.566  0.00  0.00    +0.041 C 
BRANCH   9  10
ATOM     10  C   UNL     1       7.659  -5.103  26.460  0.00  0.00    +0.003 C 
BRANCH  10  11
ATOM     11  C   UNL     1       6.631  -4.056  26.871  0.00  0.00    +0.000 C 
BRANCH  11  12
ATOM     12  C   UNL     1       5.227  -4.619  26.718  0.00  0.00    +0.000 C 
BRANCH  12  13
ATOM     13  C   UNL     1       5.245  -6.137  26.775  0.00  0.00    +0.000 C 
BRANCH  13  14
ATOM     14  C   UNL     1       3.865  -6.653  27.148  0.00  0.00    -0.000 C 
BRANCH  14  15
ATOM     15  C   UNL     1       3.732  -6.766  28.656  0.00  0.00    -0.000 C 
BRANCH  15  16
ATOM     16  C   UNL     1       2.565  -5.922  29.138  0.00  0.00    -0.000 C 
BRANCH  16  17
ATOM     17  C   UNL     1       3.049  -4.535  29.519  0.00  0.00    -0.000 C 
BRANCH  17  18
ATOM     18  C   UNL     1       1.927  -3.526  29.351  0.00  0.00    -0.000 C 
BRANCH  18  19
ATOM     19  C   UNL     1       1.198  -3.773  28.042  0.00  0.00    -0.000 C 
BRANCH  19  20
ATOM     20  C   UNL     1       1.927  -3.086  26.900  0.00  0.00    -0.000 C 
BRANCH  20  21
ATOM     21  C   UNL     1       1.532  -3.714  25.575  0.00  0.00    -0.000 C 
BRANCH  21  22
ATOM     22  C   UNL     1       0.893  -5.074  25.809  0.00  0.00    -0.000 C 
BRANCH  22  23
ATOM     23  C   UNL     1       0.506  -5.708  24.482  0.00  0.00    -0.000 C 
BRANCH  23  24
ATOM     24  C   UNL     1       1.413  -5.203  23.370  0.00  0.00    -0.000 C 
BRANCH  24  25
ATOM     25  C   UNL     1       2.396  -6.288  22.952  0.00  0.00    -0.000 C 
BRANCH  25  26
ATOM     26  C   UNL     1       3.792  -5.973  23.473  0.00  0.00    -0.000 C 
BRANCH  26  27
ATOM     27  C   UNL     1       4.149  -4.514  23.211  0.00  0.00    -0.000 C 
BRANCH  27  28
ATOM     28  C   UNL     1       5.652  -4.358  23.002  0.00  0.00    -0.000 C 
BRANCH  28  30
ATOM     29  C   UNL     1       7.127  -5.963  21.760  0.00  0.00    +0.004 C 
ATOM     30  C   UNL     1       6.354  -5.711  23.042  0.00  0.00    -0.003 C 
ENDBRANCH  28  30
ENDBRANCH  27  28
ENDBRANCH  26  27
ENDBRANCH  25  26
ENDBRANCH  24  25
ENDBRANCH  23  24
ENDBRANCH  22  23
ENDBRANCH  21  22
ENDBRANCH  20  21
ENDBRANCH  19  20
ENDBRANCH  18  19
ENDBRANCH  17  18
ENDBRANCH  16  17
ENDBRANCH  15  16
ENDBRANCH  14  15
ENDBRANCH  13  14
ENDBRANCH  12  13
ENDBRANCH  11  12
ENDBRANCH  10  11
ENDBRANCH   9  10
ENDBRANCH   6   9
ENDBRANCH   2   6
ENDBRANCH   1   3
BRANCH   1  31
ATOM     31  C   UNL     1       9.752  -0.133  23.925  0.00  0.00    +0.188 C 
BRANCH  31  32
ATOM     32  O   UNL     1      10.104   1.081  24.585  0.00  0.00    -0.347 OA
BRANCH  32  33
ATOM     33  C   UNL     1      10.048   2.222  23.728  0.00  0.00    +0.282 C 
ATOM     34  C   UNL     1       8.768   3.025  24.087  0.00  0.00    +0.204 C 
ATOM     35  C   UNL     1       8.752   4.404  23.407  0.00  0.00    +0.216 C 
ATOM     36  C   UNL     1      10.108   5.105  23.524  0.00  0.00    +0.179 C 
ATOM     37  C   UNL     1      11.222   4.163  23.053  0.00  0.00    +0.178 C 
ATOM     38  O   UNL     1      11.240   2.985  23.866  0.00  0.00    -0.341 OA
BRANCH  36  39
ATOM     39  O   UNL     1      10.296   5.489  24.892  0.00  0.00    -0.386 OA
ATOM     40  H   UNL     1      11.018   6.141  24.938  0.00  0.00    +0.210 HD
ENDBRANCH  36  39
BRANCH  34  41
ATOM     41  O   UNL     1       7.572   2.336  23.661  0.00  0.00    -0.384 OA
ATOM     42  H   UNL     1       7.175   1.900  24.435  0.00  0.00    +0.210 HD
ENDBRANCH  34  41
BRANCH  35  43
ATOM     43  O   UNL     1       7.717   5.193  24.008  0.00  0.00    -0.207 OA
BRANCH  43  44
ATOM     44  S   UNL     1       6.532   5.775  23.073  0.00  0.00    +0.208 S 
ATOM     45  O   UNL     1       7.075   6.820  22.232  0.00  0.00    -0.118 OA
ATOM     46  O   UNL     1       5.368   6.000  23.897  0.00  0.00    -0.118 OA
BRANCH  44  47
ATOM     47  O   UNL     1       6.172   4.514  22.142  0.00  0.00    -0.231 OA
ATOM     48  H   UNL     1       7.023   4.177  21.768  0.00  0.00    +0.247 HD
ENDBRANCH  44  47
ENDBRANCH  43  44
ENDBRANCH  35  43
BRANCH  37  49
ATOM     49  C   UNL     1      12.597   4.826  23.154  0.00  0.00    +0.190 C 
BRANCH  49  50
ATOM     50  O   UNL     1      12.908   5.471  21.923  0.00  0.00    -0.392 OA
ATOM     51  H   UNL     1      12.092   5.945  21.666  0.00  0.00    +0.210 HD
ENDBRANCH  49  50
ENDBRANCH  37  49
ENDBRANCH  32  33
ENDBRANCH  31  32
ENDBRANCH   1  31
BRANCH   1  52
ATOM     52  C   UNL     1       7.368  -1.099  23.733  0.00  0.00    +0.159 C 
BRANCH  52  53
ATOM     53  C   UNL     1       6.063  -0.940  24.471  0.00  0.00    +0.002 C 
ATOM     54  C   UNL     1       5.974  -0.637  25.776  0.00  0.00    -0.028 C 
BRANCH  54  55
ATOM     55  C   UNL     1       4.673  -0.569  26.520  0.00  0.00    +0.027 C 
BRANCH  55  56
ATOM     56  C   UNL     1       4.904  -0.383  28.016  0.00  0.00    +0.004 C 
BRANCH  56  57
ATOM     57  C   UNL     1       3.574  -0.368  28.766  0.00  0.00    +0.000 C 
BRANCH  57  58
ATOM     58  C   UNL     1       3.134   1.060  29.069  0.00  0.00    +0.000 C 
BRANCH  58  59
ATOM     59  C   UNL     1       1.968   1.469  28.176  0.00  0.00    +0.000 C 
BRANCH  59  60
ATOM     60  C   UNL     1       2.172   2.878  27.630  0.00  0.00    +0.000 C 
BRANCH  60  61
ATOM     61  C   UNL     1       3.163   2.873  26.471  0.00  0.00    -0.000 C 
BRANCH  61  62
ATOM     62  C   UNL     1       4.396   3.706  26.808  0.00  0.00    -0.000 C 
BRANCH  62  63
ATOM     63  C   UNL     1       5.658   3.061  26.245  0.00  0.00    -0.000 C 
BRANCH  63  64
ATOM     64  C   UNL     1       6.730   2.923  27.322  0.00  0.00    -0.000 C 
BRANCH  64  65
ATOM     65  C   UNL     1       6.128   3.096  28.714  0.00  0.00    -0.000 C 
BRANCH  65  66
ATOM     66  C   UNL     1       7.185   2.907  29.800  0.00  0.00    -0.003 C 
ATOM     67  C   UNL     1       7.464   1.434  30.044  0.00  0.00    +0.004 C 
ENDBRANCH  65  66
ENDBRANCH  64  65
ENDBRANCH  63  64
ENDBRANCH  62  63
ENDBRANCH  61  62
ENDBRANCH  60  61
ENDBRANCH  59  60
ENDBRANCH  58  59
ENDBRANCH  57  58
ENDBRANCH  56  57
ENDBRANCH  55  56
ENDBRANCH  54  55
ENDBRANCH  52  53
BRANCH  52  68
ATOM     68  O   UNL     1       7.331  -0.161  22.663  0.00  0.00    -0.386 OA
ATOM     69  H   UNL     1       8.209  -0.151  22.246  0.00  0.00    +0.210 HD
ENDBRANCH  52  68
ENDBRANCH   1  52
TORSDOF 49
ENDMDL
MODEL 6
REMARK VINA RESULT:      -3.8      2.202      6.369
REMARK  Name = 
REMARK  51 active torsions:
REMARK  status: ('A' for Active; 'I' for Inactive)
REMARK    1  A    between atoms: C_1  and  C_2
REMARK    2  A    between atoms: C_2  and  C_3
REMARK    3  A    between atoms: C_3  and  C_4
REMARK    4  A    between atoms: C_4  and  C_5
REMARK    5  A    between atoms: C_5  and  C_6
REMARK    6  A    between atoms: C_6  and  C_7
REMARK    7  A    between atoms: C_7  and  C_8
REMARK    8  A    between atoms: C_8  and  C_9
REMARK    9  A    between atoms: C_9  and  C_10
REMARK   10  A    between atoms: C_10  and  C_11
REMARK   11  A    between atoms: C_11  and  C_12
REMARK   12  A    between atoms: C_12  and  C_13
REMARK   13  A    between atoms: C_13  and  C_14
REMARK   14  A    between atoms: C_14  and  C_15
REMARK   15  A    between atoms: C_15  and  C_16
REMARK   16  A    between atoms: C_16  and  C_17
REMARK   17  A    between atoms: C_17  and  C_18
REMARK   18  A    between atoms: C_18  and  C_19
REMARK   19  A    between atoms: C_19  and  C_20
REMARK   20  A    between atoms: C_20  and  C_21
REMARK   21  A    between atoms: C_21  and  C_22
REMARK   22  A    between atoms: C_22  and  C_23
REMARK   23  A    between atoms: C_23  and  O_25
REMARK   24  A    between atoms: C_23  and  C_26
REMARK   25  A    between atoms: N_28  and  C_29
REMARK   26  A    between atoms: C_29  and  C_31
REMARK   27  A    between atoms: C_29  and  C_53
REMARK   28  A    between atoms: C_31  and  O_32
REMARK   29  A    between atoms: O_32  and  C_33
REMARK   30  A    between atoms: C_36  and  C_38
REMARK   31  A    between atoms: C_38  and  O_39
REMARK   32  A    between atoms: C_40  and  O_42
REMARK   33  A    between atoms: C_43  and  O_45
REMARK   34  A    between atoms: O_45  and  S_46
REMARK   35  A    between atoms: S_46  and  O_47
REMARK   36  A    between atoms: C_50  and  O_52
REMARK   37  A    between atoms: C_53  and  O_55
REMARK   38  A    between atoms: C_53  and  C_56
REMARK   39  A    between atoms: C_57  and  C_58
REMARK   40  A    between atoms: C_58  and  C_59
REMARK   41  A    between atoms: C_59  and  C_60
REMARK   42  A    between atoms: C_60  and  C_61
REMARK   43  A    between atoms: C_61  and  C_62
REMARK   44  A    between atoms: C_62  and  C_63
REMARK   45  A    between atoms: C_63  and  C_64
REMARK   46  A    between atoms: C_64  and  C_65
REMARK   47  A    between atoms: C_65  and  C_66
REMARK   48  A    between atoms: C_66  and  C_67
REMARK   49  A    between atoms: C_67  and  C_68
REMARK   50  A    between atoms: C_68  and  C_69
REMARK   51  A    between atoms: C_69  and  C_70
REMARK                            x       y       z     vdW  Elec       q    Type
REMARK                         _______ _______ _______ _____ _____    ______ ____
ROOT
ATOM      1  C   UNL     1       8.286  -4.147  24.610  0.00  0.00    +0.131 C 
ENDROOT
BRANCH   1   3
ATOM      2  C   UNL     1       9.021  -1.774  24.904  0.00  0.00    +0.242 C 
ATOM      3  N   UNL     1       9.007  -2.944  24.180  0.00  0.00    -0.305 N 
ATOM      4  H   UNL     1       9.584  -2.949  23.342  0.00  0.00    +0.149 HD
ATOM      5  O   UNL     1       8.410  -1.621  25.957  0.00  0.00    -0.273 OA
BRANCH   2   6
ATOM      6  C   UNL     1       9.837  -0.660  24.221  0.00  0.00    +0.200 C 
BRANCH   6   7
ATOM      7  O   UNL     1      10.259   0.301  25.200  0.00  0.00    -0.383 OA
ATOM      8  H   UNL     1      10.401  -0.154  26.051  0.00  0.00    +0.210 HD
ENDBRANCH   6   7
BRANCH   6   9
ATOM      9  C   UNL     1       9.000  -0.029  23.108  0.00  0.00    +0.041 C 
BRANCH   9  10
ATOM     10  C   UNL     1       9.813   0.338  21.872  0.00  0.00    +0.003 C 
BRANCH  10  11
ATOM     11  C   UNL     1      10.194   1.813  21.900  0.00  0.00    +0.000 C 
BRANCH  11  12
ATOM     12  C   UNL     1       9.166   2.599  22.699  0.00  0.00    +0.000 C 
BRANCH  12  13
ATOM     13  C   UNL     1       9.845   3.478  23.735  0.00  0.00    +0.000 C 
BRANCH  13  14
ATOM     14  C   UNL     1      11.304   3.679  23.360  0.00  0.00    -0.000 C 
BRANCH  14  15
ATOM     15  C   UNL     1      11.686   5.143  23.483  0.00  0.00    -0.000 C 
BRANCH  15  16
ATOM     16  C   UNL     1      10.446   5.982  23.733  0.00  0.00    -0.000 C 
BRANCH  16  17
ATOM     17  C   UNL     1      10.582   6.733  25.046  0.00  0.00    -0.000 C 
BRANCH  17  18
ATOM     18  C   UNL     1       9.263   6.712  25.798  0.00  0.00    -0.000 C 
BRANCH  18  19
ATOM     19  C   UNL     1       8.111   6.548  24.823  0.00  0.00    -0.000 C 
BRANCH  19  20
ATOM     20  C   UNL     1       7.003   5.724  25.456  0.00  0.00    -0.000 C 
BRANCH  20  21
ATOM     21  C   UNL     1       7.593   4.536  26.195  0.00  0.00    -0.000 C 
BRANCH  21  22
ATOM     22  C   UNL     1       6.615   4.030  27.242  0.00  0.00    -0.000 C 
BRANCH  22  23
ATOM     23  C   UNL     1       6.554   2.511  27.214  0.00  0.00    -0.000 C 
BRANCH  23  24
ATOM     24  C   UNL     1       7.242   1.977  25.967  0.00  0.00    -0.000 C 
BRANCH  24  25
ATOM     25  C   UNL     1       6.290   1.094  25.172  0.00  0.00    -0.000 C 
BRANCH  25  26
ATOM     26  C   UNL     1       5.250   1.942  24.453  0.00  0.00    -0.000 C 
BRANCH  26  27
ATOM     27  C   UNL     1       5.889   2.732  23.317  0.00  0.00    -0.000 C 
BRANCH  27  28
ATOM     28  C   UNL     1       4.930   3.799  22.797  0.00  0.00    -0.000 C 
BRANCH  28  30
ATOM     29  C   UNL     1       2.520   4.038  23.455  0.00  0.00    +0.004 C 
ATOM     30  C   UNL     1       3.962   4.242  23.888  0.00  0.00    -0.003 C 
ENDBRANCH  28  30
ENDBRANCH  27  28
ENDBRANCH  26  27
ENDBRANCH  25  26
ENDBRANCH  24  25
ENDBRANCH  23  24
ENDBRANCH  22  23
ENDBRANCH  21  22
ENDBRANCH  20  21
ENDBRANCH  19  20
ENDBRANCH  18  19
ENDBRANCH  17  18
ENDBRANCH  16  17
ENDBRANCH  15  16
ENDBRANCH  14  15
ENDBRANCH  13  14
ENDBRANCH  12  13
ENDBRANCH  11  12
ENDBRANCH  10  11
ENDBRANCH   9  10
ENDBRANCH   6   9
ENDBRANCH   2   6
ENDBRANCH   1   3
BRANCH   1  31
ATOM     31  C   UNL     1       7.935  -5.008  23.375  0.00  0.00    +0.188 C 
BRANCH  31  32
ATOM     32  O   UNL     1       7.178  -4.279  22.411  0.00  0.00    -0.347 OA
BRANCH  32  33
ATOM     33  C   UNL     1       5.791  -4.189  22.738  0.00  0.00    +0.282 C 
ATOM     34  C   UNL     1       5.212  -5.630  22.759  0.00  0.00    +0.204 C 
ATOM     35  C   UNL     1       3.795  -5.666  23.357  0.00  0.00    +0.216 C 
ATOM     36  C   UNL     1       3.701  -4.824  24.632  0.00  0.00    +0.179 C 
ATOM     37  C   UNL     1       4.259  -3.421  24.371  0.00  0.00    +0.178 C 
ATOM     38  O   UNL     1       5.632  -3.508  23.976  0.00  0.00    -0.341 OA
BRANCH  36  39
ATOM     39  O   UNL     1       4.438  -5.492  25.664  0.00  0.00    -0.386 OA
ATOM     40  H   UNL     1       3.810  -5.958  26.245  0.00  0.00    +0.210 HD
ENDBRANCH  36  39
BRANCH  34  41
ATOM     41  O   UNL     1       5.117  -6.184  21.429  0.00  0.00    -0.384 OA
ATOM     42  H   UNL     1       4.977  -7.144  21.503  0.00  0.00    +0.210 HD
ENDBRANCH  34  41
BRANCH  35  43
ATOM     43  O   UNL     1       3.449  -7.031  23.620  0.00  0.00    -0.207 OA
BRANCH  43  44
ATOM     44  S   UNL     1       1.907  -7.493  23.465  0.00  0.00    +0.208 S 
ATOM     45  O   UNL     1       1.568  -7.514  22.058  0.00  0.00    -0.118 OA
ATOM     46  O   UNL     1       1.111  -6.760  24.420  0.00  0.00    -0.118 OA
BRANCH  44  47
ATOM     47  O   UNL     1       1.943  -9.011  23.998  0.00  0.00    -0.231 OA
ATOM     48  H   UNL     1       1.409  -9.552  23.365  0.00  0.00    +0.247 HD
ENDBRANCH  44  47
ENDBRANCH  43  44
ENDBRANCH  35  43
BRANCH  37  49
ATOM     49  C   UNL     1       4.184  -2.545  25.623  0.00  0.00    +0.190 C 
BRANCH  49  50
ATOM     50  O   UNL     1       5.499  -2.160  26.016  0.00  0.00    -0.392 OA
ATOM     51  H   UNL     1       6.061  -2.939  25.834  0.00  0.00    +0.210 HD
ENDBRANCH  49  50
ENDBRANCH  37  49
ENDBRANCH  32  33
ENDBRANCH  31  32
ENDBRANCH   1  31
BRANCH   1  52
ATOM     52  C   UNL     1       9.095  -4.940  25.678  0.00  0.00    +0.159 C 
BRANCH  52  53
ATOM     53  C   UNL     1       8.214  -5.555  26.735  0.00  0.00    +0.002 C 
ATOM     54  C   UNL     1       7.133  -4.950  27.254  0.00  0.00    -0.028 C 
BRANCH  54  55
ATOM     55  C   UNL     1       6.317  -5.534  28.369  0.00  0.00    +0.027 C 
BRANCH  55  56
ATOM     56  C   UNL     1       5.319  -4.516  28.911  0.00  0.00    +0.004 C 
BRANCH  56  57
ATOM     57  C   UNL     1       3.978  -5.184  29.204  0.00  0.00    +0.000 C 
BRANCH  57  58
ATOM     58  C   UNL     1       3.037  -4.226  29.927  0.00  0.00    +0.000 C 
BRANCH  58  59
ATOM     59  C   UNL     1       2.785  -2.978  29.088  0.00  0.00    +0.000 C 
BRANCH  59  60
ATOM     60  C   UNL     1       2.803  -1.727  29.960  0.00  0.00    +0.000 C 
BRANCH  60  61
ATOM     61  C   UNL     1       4.193  -1.102  29.984  0.00  0.00    -0.000 C 
BRANCH  61  62
ATOM     62  C   UNL     1       4.410  -0.216  28.761  0.00  0.00    -0.000 C 
BRANCH  62  63
ATOM     63  C   UNL     1       3.247   0.752  28.578  0.00  0.00    -0.000 C 
BRANCH  63  64
ATOM     64  C   UNL     1       2.834   0.841  27.112  0.00  0.00    -0.000 C 
BRANCH  64  65
ATOM     65  C   UNL     1       2.533   2.285  26.717  0.00  0.00    -0.000 C 
BRANCH  65  66
ATOM     66  C   UNL     1       3.003   3.260  27.794  0.00  0.00    -0.003 C 
ATOM     67  C   UNL     1       2.724   4.698  27.391  0.00  0.00    +0.004 C 
ENDBRANCH  65  66
ENDBRANCH  64  65
ENDBRANCH  63  64
ENDBRANCH  62  63
ENDBRANCH  61  62
ENDBRANCH  60  61
ENDBRANCH  59  60
ENDBRANCH  58  59
ENDBRANCH  57  58
ENDBRANCH  56  57
ENDBRANCH  55  56
ENDBRANCH  54  55
ENDBRANCH  52  53
BRANCH  52  68
ATOM     68  O   UNL     1       9.820  -6.017  25.095  0.00  0.00    -0.386 OA
ATOM     69  H   UNL     1      10.282  -6.486  25.810  0.00  0.00    +0.210 HD
ENDBRANCH  52  68
ENDBRANCH   1  52
TORSDOF 49
ENDMDL
MODEL 7
REMARK VINA RESULT:      -3.8      2.393      6.597
REMARK  Name = 
REMARK  51 active torsions:
REMARK  status: ('A' for Active; 'I' for Inactive)
REMARK    1  A    between atoms: C_1  and  C_2
REMARK    2  A    between atoms: C_2  and  C_3
REMARK    3  A    between atoms: C_3  and  C_4
REMARK    4  A    between atoms: C_4  and  C_5
REMARK    5  A    between atoms: C_5  and  C_6
REMARK    6  A    between atoms: C_6  and  C_7
REMARK    7  A    between atoms: C_7  and  C_8
REMARK    8  A    between atoms: C_8  and  C_9
REMARK    9  A    between atoms: C_9  and  C_10
REMARK   10  A    between atoms: C_10  and  C_11
REMARK   11  A    between atoms: C_11  and  C_12
REMARK   12  A    between atoms: C_12  and  C_13
REMARK   13  A    between atoms: C_13  and  C_14
REMARK   14  A    between atoms: C_14  and  C_15
REMARK   15  A    between atoms: C_15  and  C_16
REMARK   16  A    between atoms: C_16  and  C_17
REMARK   17  A    between atoms: C_17  and  C_18
REMARK   18  A    between atoms: C_18  and  C_19
REMARK   19  A    between atoms: C_19  and  C_20
REMARK   20  A    between atoms: C_20  and  C_21
REMARK   21  A    between atoms: C_21  and  C_22
REMARK   22  A    between atoms: C_22  and  C_23
REMARK   23  A    between atoms: C_23  and  O_25
REMARK   24  A    between atoms: C_23  and  C_26
REMARK   25  A    between atoms: N_28  and  C_29
REMARK   26  A    between atoms: C_29  and  C_31
REMARK   27  A    between atoms: C_29  and  C_53
REMARK   28  A    between atoms: C_31  and  O_32
REMARK   29  A    between atoms: O_32  and  C_33
REMARK   30  A    between atoms: C_36  and  C_38
REMARK   31  A    between atoms: C_38  and  O_39
REMARK   32  A    between atoms: C_40  and  O_42
REMARK   33  A    between atoms: C_43  and  O_45
REMARK   34  A    between atoms: O_45  and  S_46
REMARK   35  A    between atoms: S_46  and  O_47
REMARK   36  A    between atoms: C_50  and  O_52
REMARK   37  A    between atoms: C_53  and  O_55
REMARK   38  A    between atoms: C_53  and  C_56
REMARK   39  A    between atoms: C_57  and  C_58
REMARK   40  A    between atoms: C_58  and  C_59
REMARK   41  A    between atoms: C_59  and  C_60
REMARK   42  A    between atoms: C_60  and  C_61
REMARK   43  A    between atoms: C_61  and  C_62
REMARK   44  A    between atoms: C_62  and  C_63
REMARK   45  A    between atoms: C_63  and  C_64
REMARK   46  A    between atoms: C_64  and  C_65
REMARK   47  A    between atoms: C_65  and  C_66
REMARK   48  A    between atoms: C_66  and  C_67
REMARK   49  A    between atoms: C_67  and  C_68
REMARK   50  A    between atoms: C_68  and  C_69
REMARK   51  A    between atoms: C_69  and  C_70
REMARK                            x       y       z     vdW  Elec       q    Type
REMARK                         _______ _______ _______ _____ _____    ______ ____
ROOT
ATOM      1  C   UNL     1       8.023  -2.678  23.983  0.00  0.00    +0.131 C 
ENDROOT
BRANCH   1   3
ATOM      2  C   UNL     1       7.752  -0.591  25.334  0.00  0.00    +0.242 C 
ATOM      3  N   UNL     1       7.282  -1.481  24.398  0.00  0.00    -0.305 N 
ATOM      4  H   UNL     1       6.400  -1.231  23.955  0.00  0.00    +0.149 HD
ATOM      5  O   UNL     1       8.816  -0.729  25.928  0.00  0.00    -0.273 OA
BRANCH   2   6
ATOM      6  C   UNL     1       6.771   0.568  25.599  0.00  0.00    +0.200 C 
BRANCH   6   7
ATOM      7  O   UNL     1       5.790   0.621  24.553  0.00  0.00    -0.383 OA
ATOM      8  H   UNL     1       5.079   1.235  24.815  0.00  0.00    +0.210 HD
ENDBRANCH   6   7
BRANCH   6   9
ATOM      9  C   UNL     1       7.556   1.874  25.729  0.00  0.00    +0.041 C 
BRANCH   9  10
ATOM     10  C   UNL     1       6.964   2.835  26.755  0.00  0.00    +0.003 C 
BRANCH  10  11
ATOM     11  C   UNL     1       5.801   3.613  26.152  0.00  0.00    +0.000 C 
BRANCH  11  12
ATOM     12  C   UNL     1       4.512   3.266  26.881  0.00  0.00    +0.000 C 
BRANCH  12  13
ATOM     13  C   UNL     1       4.799   2.832  28.309  0.00  0.00    +0.000 C 
BRANCH  13  14
ATOM     14  C   UNL     1       3.492   2.650  29.062  0.00  0.00    -0.000 C 
BRANCH  14  15
ATOM     15  C   UNL     1       2.465   1.961  28.182  0.00  0.00    -0.000 C 
BRANCH  15  16
ATOM     16  C   UNL     1       1.094   2.573  28.410  0.00  0.00    -0.000 C 
BRANCH  16  17
ATOM     17  C   UNL     1       0.810   3.622  27.350  0.00  0.00    -0.000 C 
BRANCH  17  18
ATOM     18  C   UNL     1       0.762   5.002  27.983  0.00  0.00    -0.000 C 
BRANCH  18  19
ATOM     19  C   UNL     1       1.902   5.856  27.455  0.00  0.00    -0.000 C 
BRANCH  19  20
ATOM     20  C   UNL     1       2.853   6.214  28.584  0.00  0.00    -0.000 C 
BRANCH  20  21
ATOM     21  C   UNL     1       3.966   7.108  28.065  0.00  0.00    -0.000 C 
BRANCH  21  22
ATOM     22  C   UNL     1       5.321   6.528  28.436  0.00  0.00    -0.000 C 
BRANCH  22  23
ATOM     23  C   UNL     1       6.388   7.032  27.477  0.00  0.00    -0.000 C 
BRANCH  23  24
ATOM     24  C   UNL     1       7.705   6.313  27.726  0.00  0.00    -0.000 C 
BRANCH  24  25
ATOM     25  C   UNL     1       8.755   6.762  26.720  0.00  0.00    -0.000 C 
BRANCH  25  26
ATOM     26  C   UNL     1       8.658   5.936  25.444  0.00  0.00    -0.000 C 
BRANCH  26  27
ATOM     27  C   UNL     1       9.513   6.548  24.339  0.00  0.00    -0.000 C 
BRANCH  27  28
ATOM     28  C   UNL     1      10.484   5.515  23.776  0.00  0.00    -0.000 C 
BRANCH  28  30
ATOM     29  C   UNL     1      12.874   5.184  23.085  0.00  0.00    +0.004 C 
ATOM     30  C   UNL     1      11.930   5.944  24.001  0.00  0.00    -0.003 C 
ENDBRANCH  28  30
ENDBRANCH  27  28
ENDBRANCH  26  27
ENDBRANCH  25  26
ENDBRANCH  24  25
ENDBRANCH  23  24
ENDBRANCH  22  23
ENDBRANCH  21  22
ENDBRANCH  20  21
ENDBRANCH  19  20
ENDBRANCH  18  19
ENDBRANCH  17  18
ENDBRANCH  16  17
ENDBRANCH  15  16
ENDBRANCH  14  15
ENDBRANCH  13  14
ENDBRANCH  12  13
ENDBRANCH  11  12
ENDBRANCH  10  11
ENDBRANCH   9  10
ENDBRANCH   6   9
ENDBRANCH   2   6
ENDBRANCH   1   3
BRANCH   1  31
ATOM     31  C   UNL     1       7.026  -3.780  23.556  0.00  0.00    +0.188 C 
BRANCH  31  32
ATOM     32  O   UNL     1       7.565  -5.089  23.733  0.00  0.00    -0.347 OA
BRANCH  32  33
ATOM     33  C   UNL     1       6.707  -5.952  24.480  0.00  0.00    +0.282 C 
ATOM     34  C   UNL     1       6.734  -5.485  25.961  0.00  0.00    +0.204 C 
ATOM     35  C   UNL     1       5.645  -6.180  26.797  0.00  0.00    +0.216 C 
ATOM     36  C   UNL     1       4.302  -6.201  26.064  0.00  0.00    +0.179 C 
ATOM     37  C   UNL     1       4.489  -6.762  24.650  0.00  0.00    +0.178 C 
ATOM     38  O   UNL     1       5.402  -5.938  23.916  0.00  0.00    -0.341 OA
BRANCH  36  39
ATOM     39  O   UNL     1       3.791  -4.862  26.028  0.00  0.00    -0.386 OA
ATOM     40  H   UNL     1       4.271  -4.362  25.345  0.00  0.00    +0.210 HD
ENDBRANCH  36  39
BRANCH  34  41
ATOM     41  O   UNL     1       7.998  -5.787  26.590  0.00  0.00    -0.384 OA
ATOM     42  H   UNL     1       7.825  -6.266  27.419  0.00  0.00    +0.210 HD
ENDBRANCH  34  41
BRANCH  35  43
ATOM     43  O   UNL     1       5.532  -5.495  28.051  0.00  0.00    -0.207 OA
BRANCH  43  44
ATOM     44  S   UNL     1       5.830  -6.307  29.417  0.00  0.00    +0.208 S 
ATOM     45  O   UNL     1       6.048  -5.355  30.485  0.00  0.00    -0.118 OA
ATOM     46  O   UNL     1       6.787  -7.349  29.131  0.00  0.00    -0.118 OA
BRANCH  44  47
ATOM     47  O   UNL     1       4.434  -7.059  29.688  0.00  0.00    -0.231 OA
ATOM     48  H   UNL     1       3.727  -6.522  29.253  0.00  0.00    +0.247 HD
ENDBRANCH  44  47
ENDBRANCH  43  44
ENDBRANCH  35  43
BRANCH  37  49
ATOM     49  C   UNL     1       3.168  -6.800  23.881  0.00  0.00    +0.190 C 
BRANCH  49  50
ATOM     50  O   UNL     1       3.369  -6.307  22.560  0.00  0.00    -0.392 OA
ATOM     51  H   UNL     1       4.294  -6.534  22.338  0.00  0.00    +0.210 HD
ENDBRANCH  49  50
ENDBRANCH  37  49
ENDBRANCH  32  33
ENDBRANCH  31  32
ENDBRANCH   1  31
BRANCH   1  52
ATOM     52  C   UNL     1       9.057  -2.346  22.869  0.00  0.00    +0.159 C 
BRANCH  52  53
ATOM     53  C   UNL     1       8.745  -1.058  22.151  0.00  0.00    +0.002 C 
ATOM     54  C   UNL     1       9.577  -0.004  22.108  0.00  0.00    -0.028 C 
BRANCH  54  55
ATOM     55  C   UNL     1       9.219   1.303  21.467  0.00  0.00    +0.027 C 
BRANCH  55  56
ATOM     56  C   UNL     1       8.783   2.327  22.510  0.00  0.00    +0.004 C 
BRANCH  56  57
ATOM     57  C   UNL     1       7.367   2.819  22.220  0.00  0.00    +0.000 C 
BRANCH  57  58
ATOM     58  C   UNL     1       7.310   4.342  22.208  0.00  0.00    +0.000 C 
BRANCH  58  59
ATOM     59  C   UNL     1       6.077   4.844  22.952  0.00  0.00    +0.000 C 
BRANCH  59  60
ATOM     60  C   UNL     1       5.853   6.329  22.688  0.00  0.00    +0.000 C 
BRANCH  60  61
ATOM     61  C   UNL     1       5.320   7.027  23.935  0.00  0.00    -0.000 C 
BRANCH  61  62
ATOM     62  C   UNL     1       4.089   6.306  24.476  0.00  0.00    -0.000 C 
BRANCH  62  63
ATOM     63  C   UNL     1       2.888   6.523  23.562  0.00  0.00    -0.000 C 
BRANCH  63  64
ATOM     64  C   UNL     1       1.783   5.513  23.862  0.00  0.00    -0.000 C 
BRANCH  64  65
ATOM     65  C   UNL     1       2.348   4.098  23.948  0.00  0.00    -0.000 C 
BRANCH  65  66
ATOM     66  C   UNL     1       2.007   3.291  22.698  0.00  0.00    -0.003 C 
ATOM     67  C   UNL     1       2.720   3.843  21.476  0.00  0.00    +0.004 C 
ENDBRANCH  65  66
ENDBRANCH  64  65
ENDBRANCH  63  64
ENDBRANCH  62  63
ENDBRANCH  61  62
ENDBRANCH  60  61
ENDBRANCH  59  60
ENDBRANCH  58  59
ENDBRANCH  57  58
ENDBRANCH  56  57
ENDBRANCH  55  56
ENDBRANCH  54  55
ENDBRANCH  52  53
BRANCH  52  68
ATOM     68  O   UNL     1      10.369  -2.191  23.400  0.00  0.00    -0.386 OA
ATOM     69  H   UNL     1      10.597  -3.009  23.872  0.00  0.00    +0.210 HD
ENDBRANCH  52  68
ENDBRANCH   1  52
TORSDOF 49
ENDMDL
MODEL 8
REMARK VINA RESULT:      -3.7      2.522      5.901
REMARK  Name = 
REMARK  51 active torsions:
REMARK  status: ('A' for Active; 'I' for Inactive)
REMARK    1  A    between atoms: C_1  and  C_2
REMARK    2  A    between atoms: C_2  and  C_3
REMARK    3  A    between atoms: C_3  and  C_4
REMARK    4  A    between atoms: C_4  and  C_5
REMARK    5  A    between atoms: C_5  and  C_6
REMARK    6  A    between atoms: C_6  and  C_7
REMARK    7  A    between atoms: C_7  and  C_8
REMARK    8  A    between atoms: C_8  and  C_9
REMARK    9  A    between atoms: C_9  and  C_10
REMARK   10  A    between atoms: C_10  and  C_11
REMARK   11  A    between atoms: C_11  and  C_12
REMARK   12  A    between atoms: C_12  and  C_13
REMARK   13  A    between atoms: C_13  and  C_14
REMARK   14  A    between atoms: C_14  and  C_15
REMARK   15  A    between atoms: C_15  and  C_16
REMARK   16  A    between atoms: C_16  and  C_17
REMARK   17  A    between atoms: C_17  and  C_18
REMARK   18  A    between atoms: C_18  and  C_19
REMARK   19  A    between atoms: C_19  and  C_20
REMARK   20  A    between atoms: C_20  and  C_21
REMARK   21  A    between atoms: C_21  and  C_22
REMARK   22  A    between atoms: C_22  and  C_23
REMARK   23  A    between atoms: C_23  and  O_25
REMARK   24  A    between atoms: C_23  and  C_26
REMARK   25  A    between atoms: N_28  and  C_29
REMARK   26  A    between atoms: C_29  and  C_31
REMARK   27  A    between atoms: C_29  and  C_53
REMARK   28  A    between atoms: C_31  and  O_32
REMARK   29  A    between atoms: O_32  and  C_33
REMARK   30  A    between atoms: C_36  and  C_38
REMARK   31  A    between atoms: C_38  and  O_39
REMARK   32  A    between atoms: C_40  and  O_42
REMARK   33  A    between atoms: C_43  and  O_45
REMARK   34  A    between atoms: O_45  and  S_46
REMARK   35  A    between atoms: S_46  and  O_47
REMARK   36  A    between atoms: C_50  and  O_52
REMARK   37  A    between atoms: C_53  and  O_55
REMARK   38  A    between atoms: C_53  and  C_56
REMARK   39  A    between atoms: C_57  and  C_58
REMARK   40  A    between atoms: C_58  and  C_59
REMARK   41  A    between atoms: C_59  and  C_60
REMARK   42  A    between atoms: C_60  and  C_61
REMARK   43  A    between atoms: C_61  and  C_62
REMARK   44  A    between atoms: C_62  and  C_63
REMARK   45  A    between atoms: C_63  and  C_64
REMARK   46  A    between atoms: C_64  and  C_65
REMARK   47  A    between atoms: C_65  and  C_66
REMARK   48  A    between atoms: C_66  and  C_67
REMARK   49  A    between atoms: C_67  and  C_68
REMARK   50  A    between atoms: C_68  and  C_69
REMARK   51  A    between atoms: C_69  and  C_70
REMARK                            x       y       z     vdW  Elec       q    Type
REMARK                         _______ _______ _______ _____ _____    ______ ____
ROOT
ATOM      1  C   UNL     1       9.033  -1.881  25.070  0.00  0.00    +0.131 C 
ENDROOT
BRANCH   1   3
ATOM      2  C   UNL     1       6.993  -0.800  26.033  0.00  0.00    +0.242 C 
ATOM      3  N   UNL     1       7.619  -1.491  25.022  0.00  0.00    -0.305 N 
ATOM      4  H   UNL     1       7.053  -1.671  24.196  0.00  0.00    +0.149 HD
ATOM      5  O   UNL     1       7.549  -0.472  27.077  0.00  0.00    -0.273 OA
BRANCH   2   6
ATOM      6  C   UNL     1       5.504  -0.533  25.739  0.00  0.00    +0.200 C 
BRANCH   6   7
ATOM      7  O   UNL     1       5.123  -1.198  24.526  0.00  0.00    -0.383 OA
ATOM      8  H   UNL     1       4.719  -2.057  24.749  0.00  0.00    +0.210 HD
ENDBRANCH   6   7
BRANCH   6   9
ATOM      9  C   UNL     1       5.264   0.976  25.676  0.00  0.00    +0.041 C 
BRANCH   9  10
ATOM     10  C   UNL     1       4.193   1.460  26.647  0.00  0.00    +0.003 C 
BRANCH  10  11
ATOM     11  C   UNL     1       3.122   2.255  25.911  0.00  0.00    +0.000 C 
BRANCH  11  12
ATOM     12  C   UNL     1       2.770   3.507  26.700  0.00  0.00    +0.000 C 
BRANCH  12  13
ATOM     13  C   UNL     1       2.709   4.720  25.788  0.00  0.00    +0.000 C 
BRANCH  13  14
ATOM     14  C   UNL     1       3.806   5.702  26.166  0.00  0.00    -0.000 C 
BRANCH  14  15
ATOM     15  C   UNL     1       4.655   6.040  24.955  0.00  0.00    -0.000 C 
BRANCH  15  16
ATOM     16  C   UNL     1       6.126   5.860  25.286  0.00  0.00    -0.000 C 
BRANCH  16  17
ATOM     17  C   UNL     1       6.367   4.465  25.836  0.00  0.00    -0.000 C 
BRANCH  17  18
ATOM     18  C   UNL     1       7.245   4.538  27.074  0.00  0.00    -0.000 C 
BRANCH  18  19
ATOM     19  C   UNL     1       6.820   3.478  28.075  0.00  0.00    -0.000 C 
BRANCH  19  20
ATOM     20  C   UNL     1       5.698   4.006  28.951  0.00  0.00    -0.000 C 
BRANCH  20  21
ATOM     21  C   UNL     1       5.174   2.900  29.850  0.00  0.00    -0.000 C 
BRANCH  21  22
ATOM     22  C   UNL     1       3.738   3.190  30.257  0.00  0.00    -0.000 C 
BRANCH  22  23
ATOM     23  C   UNL     1       2.883   1.944  30.090  0.00  0.00    -0.000 C 
BRANCH  23  24
ATOM     24  C   UNL     1       1.415   2.322  29.966  0.00  0.00    -0.000 C 
BRANCH  24  25
ATOM     25  C   UNL     1       0.694   1.361  29.031  0.00  0.00    -0.000 C 
BRANCH  25  26
ATOM     26  C   UNL     1       1.520   0.098  28.825  0.00  0.00    -0.000 C 
BRANCH  26  27
ATOM     27  C   UNL     1       1.212  -0.533  27.471  0.00  0.00    -0.000 C 
BRANCH  27  28
ATOM     28  C   UNL     1       2.208  -1.646  27.158  0.00  0.00    -0.000 C 
BRANCH  28  30
ATOM     29  C   UNL     1       4.160  -2.284  28.601  0.00  0.00    +0.004 C 
ATOM     30  C   UNL     1       2.652  -2.357  28.432  0.00  0.00    -0.003 C 
ENDBRANCH  28  30
ENDBRANCH  27  28
ENDBRANCH  26  27
ENDBRANCH  25  26
ENDBRANCH  24  25
ENDBRANCH  23  24
ENDBRANCH  22  23
ENDBRANCH  21  22
ENDBRANCH  20  21
ENDBRANCH  19  20
ENDBRANCH  18  19
ENDBRANCH  17  18
ENDBRANCH  16  17
ENDBRANCH  15  16
ENDBRANCH  14  15
ENDBRANCH  13  14
ENDBRANCH  12  13
ENDBRANCH  11  12
ENDBRANCH  10  11
ENDBRANCH   9  10
ENDBRANCH   6   9
ENDBRANCH   2   6
ENDBRANCH   1   3
BRANCH   1  31
ATOM     31  C   UNL     1       9.233  -3.197  24.284  0.00  0.00    +0.188 C 
BRANCH  31  32
ATOM     32  O   UNL     1       9.252  -4.337  25.141  0.00  0.00    -0.347 OA
BRANCH  32  33
ATOM     33  C   UNL     1       8.076  -5.139  25.034  0.00  0.00    +0.282 C 
ATOM     34  C   UNL     1       7.352  -5.108  26.409  0.00  0.00    +0.204 C 
ATOM     35  C   UNL     1       5.945  -5.722  26.326  0.00  0.00    +0.216 C 
ATOM     36  C   UNL     1       5.187  -5.224  25.092  0.00  0.00    +0.179 C 
ATOM     37  C   UNL     1       6.050  -5.412  23.841  0.00  0.00    +0.178 C 
ATOM     38  O   UNL     1       7.264  -4.664  23.969  0.00  0.00    -0.341 OA
BRANCH  36  39
ATOM     39  O   UNL     1       4.859  -3.844  25.296  0.00  0.00    -0.386 OA
ATOM     40  H   UNL     1       5.262  -3.318  24.582  0.00  0.00    +0.210 HD
ENDBRANCH  36  39
BRANCH  34  41
ATOM     41  O   UNL     1       8.077  -5.860  27.407  0.00  0.00    -0.384 OA
ATOM     42  H   UNL     1       8.438  -5.238  28.061  0.00  0.00    +0.210 HD
ENDBRANCH  34  41
BRANCH  35  43
ATOM     43  O   UNL     1       5.236  -5.393  27.527  0.00  0.00    -0.207 OA
BRANCH  43  44
ATOM     44  S   UNL     1       4.819  -6.582  28.541  0.00  0.00    +0.208 S 
ATOM     45  O   UNL     1       4.302  -5.994  29.758  0.00  0.00    -0.118 OA
ATOM     46  O   UNL     1       5.885  -7.555  28.569  0.00  0.00    -0.118 OA
BRANCH  44  47
ATOM     47  O   UNL     1       3.600  -7.290  27.766  0.00  0.00    -0.231 OA
ATOM     48  H   UNL     1       2.975  -7.625  28.454  0.00  0.00    +0.247 HD
ENDBRANCH  44  47
ENDBRANCH  43  44
ENDBRANCH  35  43
BRANCH  37  49
ATOM     49  C   UNL     1       5.328  -4.926  22.583  0.00  0.00    +0.190 C 
BRANCH  49  50
ATOM     50  O   UNL     1       3.922  -4.920  22.811  0.00  0.00    -0.392 OA
ATOM     51  H   UNL     1       3.541  -5.466  22.095  0.00  0.00    +0.210 HD
ENDBRANCH  49  50
ENDBRANCH  37  49
ENDBRANCH  32  33
ENDBRANCH  31  32
ENDBRANCH   1  31
BRANCH   1  52
ATOM     52  C   UNL     1       9.954  -0.736  24.559  0.00  0.00    +0.159 C 
BRANCH  52  53
ATOM     53  C   UNL     1       9.337   0.044  23.425  0.00  0.00    +0.002 C 
ATOM     54  C   UNL     1       9.998   0.966  22.705  0.00  0.00    -0.028 C 
BRANCH  54  55
ATOM     55  C   UNL     1       9.350   1.798  21.639  0.00  0.00    +0.027 C 
BRANCH  55  56
ATOM     56  C   UNL     1       8.400   2.827  22.245  0.00  0.00    +0.004 C 
BRANCH  56  57
ATOM     57  C   UNL     1       6.948   2.413  22.020  0.00  0.00    +0.000 C 
BRANCH  57  58
ATOM     58  C   UNL     1       6.003   3.583  22.268  0.00  0.00    +0.000 C 
BRANCH  58  59
ATOM     59  C   UNL     1       4.653   3.091  22.779  0.00  0.00    +0.000 C 
BRANCH  59  60
ATOM     60  C   UNL     1       3.512   3.852  22.112  0.00  0.00    +0.000 C 
BRANCH  60  61
ATOM     61  C   UNL     1       2.170   3.195  22.418  0.00  0.00    -0.000 C 
BRANCH  61  62
ATOM     62  C   UNL     1       1.167   3.464  21.300  0.00  0.00    -0.000 C 
BRANCH  62  63
ATOM     63  C   UNL     1       1.870   3.551  19.949  0.00  0.00    -0.000 C 
BRANCH  63  64
ATOM     64  C   UNL     1       1.069   4.404  18.970  0.00  0.00    -0.000 C 
BRANCH  64  65
ATOM     65  C   UNL     1       1.848   5.657  18.577  0.00  0.00    -0.000 C 
BRANCH  65  66
ATOM     66  C   UNL     1       1.737   5.928  17.079  0.00  0.00    -0.003 C 
ATOM     67  C   UNL     1       1.195   4.716  16.340  0.00  0.00    +0.004 C 
ENDBRANCH  65  66
ENDBRANCH  64  65
ENDBRANCH  63  64
ENDBRANCH  62  63
ENDBRANCH  61  62
ENDBRANCH  60  61
ENDBRANCH  59  60
ENDBRANCH  58  59
ENDBRANCH  57  58
ENDBRANCH  56  57
ENDBRANCH  55  56
ENDBRANCH  54  55
ENDBRANCH  52  53
BRANCH  52  68
ATOM     68  O   UNL     1      10.230   0.213  25.583  0.00  0.00    -0.386 OA
ATOM     69  H   UNL     1      10.286   1.090  25.169  0.00  0.00    +0.210 HD
ENDBRANCH  52  68
ENDBRANCH   1  52
TORSDOF 49
ENDMDL
MODEL 9
REMARK VINA RESULT:      -3.7      1.232      2.201
REMARK  Name = 
REMARK  51 active torsions:
REMARK  status: ('A' for Active; 'I' for Inactive)
REMARK    1  A    between atoms: C_1  and  C_2
REMARK    2  A    between atoms: C_2  and  C_3
REMARK    3  A    between atoms: C_3  and  C_4
REMARK    4  A    between atoms: C_4  and  C_5
REMARK    5  A    between atoms: C_5  and  C_6
REMARK    6  A    between atoms: C_6  and  C_7
REMARK    7  A    between atoms: C_7  and  C_8
REMARK    8  A    between atoms: C_8  and  C_9
REMARK    9  A    between atoms: C_9  and  C_10
REMARK   10  A    between atoms: C_10  and  C_11
REMARK   11  A    between atoms: C_11  and  C_12
REMARK   12  A    between atoms: C_12  and  C_13
REMARK   13  A    between atoms: C_13  and  C_14
REMARK   14  A    between atoms: C_14  and  C_15
REMARK   15  A    between atoms: C_15  and  C_16
REMARK   16  A    between atoms: C_16  and  C_17
REMARK   17  A    between atoms: C_17  and  C_18
REMARK   18  A    between atoms: C_18  and  C_19
REMARK   19  A    between atoms: C_19  and  C_20
REMARK   20  A    between atoms: C_20  and  C_21
REMARK   21  A    between atoms: C_21  and  C_22
REMARK   22  A    between atoms: C_22  and  C_23
REMARK   23  A    between atoms: C_23  and  O_25
REMARK   24  A    between atoms: C_23  and  C_26
REMARK   25  A    between atoms: N_28  and  C_29
REMARK   26  A    between atoms: C_29  and  C_31
REMARK   27  A    between atoms: C_29  and  C_53
REMARK   28  A    between atoms: C_31  and  O_32
REMARK   29  A    between atoms: O_32  and  C_33
REMARK   30  A    between atoms: C_36  and  C_38
REMARK   31  A    between atoms: C_38  and  O_39
REMARK   32  A    between atoms: C_40  and  O_42
REMARK   33  A    between atoms: C_43  and  O_45
REMARK   34  A    between atoms: O_45  and  S_46
REMARK   35  A    between atoms: S_46  and  O_47
REMARK   36  A    between atoms: C_50  and  O_52
REMARK   37  A    between atoms: C_53  and  O_55
REMARK   38  A    between atoms: C_53  and  C_56
REMARK   39  A    between atoms: C_57  and  C_58
REMARK   40  A    between atoms: C_58  and  C_59
REMARK   41  A    between atoms: C_59  and  C_60
REMARK   42  A    between atoms: C_60  and  C_61
REMARK   43  A    between atoms: C_61  and  C_62
REMARK   44  A    between atoms: C_62  and  C_63
REMARK   45  A    between atoms: C_63  and  C_64
REMARK   46  A    between atoms: C_64  and  C_65
REMARK   47  A    between atoms: C_65  and  C_66
REMARK   48  A    between atoms: C_66  and  C_67
REMARK   49  A    between atoms: C_67  and  C_68
REMARK   50  A    between atoms: C_68  and  C_69
REMARK   51  A    between atoms: C_69  and  C_70
REMARK                            x       y       z     vdW  Elec       q    Type
REMARK                         _______ _______ _______ _____ _____    ______ ____
ROOT
ATOM      1  C   UNL     1       4.257  -1.978  28.104  0.00  0.00    +0.131 C 
ENDROOT
BRANCH   1   3
ATOM      2  C   UNL     1       4.180   0.246  29.247  0.00  0.00    +0.242 C 
ATOM      3  N   UNL     1       3.981  -0.537  28.134  0.00  0.00    -0.305 N 
ATOM      4  H   UNL     1       3.680  -0.043  27.296  0.00  0.00    +0.149 HD
ATOM      5  O   UNL     1       4.579  -0.192  30.322  0.00  0.00    -0.273 OA
BRANCH   2   6
ATOM      6  C   UNL     1       3.795   1.720  29.016  0.00  0.00    +0.200 C 
BRANCH   6   7
ATOM      7  O   UNL     1       2.419   1.923  29.373  0.00  0.00    -0.383 OA
ATOM      8  H   UNL     1       1.957   1.065  29.352  0.00  0.00    +0.210 HD
ENDBRANCH   6   7
BRANCH   6   9
ATOM      9  C   UNL     1       4.081   2.095  27.561  0.00  0.00    +0.041 C 
BRANCH   9  10
ATOM     10  C   UNL     1       2.884   2.717  26.850  0.00  0.00    +0.003 C 
BRANCH  10  11
ATOM     11  C   UNL     1       3.253   4.077  26.270  0.00  0.00    +0.000 C 
BRANCH  11  12
ATOM     12  C   UNL     1       4.259   4.771  27.174  0.00  0.00    +0.000 C 
BRANCH  12  13
ATOM     13  C   UNL     1       4.919   5.935  26.454  0.00  0.00    +0.000 C 
BRANCH  13  14
ATOM     14  C   UNL     1       6.386   5.621  26.209  0.00  0.00    -0.000 C 
BRANCH  14  15
ATOM     15  C   UNL     1       6.859   4.533  27.155  0.00  0.00    -0.000 C 
BRANCH  15  16
ATOM     16  C   UNL     1       7.526   3.417  26.369  0.00  0.00    -0.000 C 
BRANCH  16  17
ATOM     17  C   UNL     1       8.360   4.001  25.244  0.00  0.00    -0.000 C 
BRANCH  17  18
ATOM     18  C   UNL     1       9.177   2.907  24.578  0.00  0.00    -0.000 C 
BRANCH  18  19
ATOM     19  C   UNL     1       9.758   3.414  23.270  0.00  0.00    -0.000 C 
BRANCH  19  20
ATOM     20  C   UNL     1      10.244   2.249  22.427  0.00  0.00    -0.000 C 
BRANCH  20  21
ATOM     21  C   UNL     1       9.800   0.935  23.047  0.00  0.00    -0.000 C 
BRANCH  21  22
ATOM     22  C   UNL     1       9.455  -0.069  21.959  0.00  0.00    -0.000 C 
BRANCH  22  23
ATOM     23  C   UNL     1       9.972  -1.449  22.335  0.00  0.00    -0.000 C 
BRANCH  23  24
ATOM     24  C   UNL     1       9.929  -1.636  23.844  0.00  0.00    -0.000 C 
BRANCH  24  25
ATOM     25  C   UNL     1       9.839  -3.115  24.194  0.00  0.00    -0.000 C 
BRANCH  25  26
ATOM     26  C   UNL     1       8.556  -3.403  24.962  0.00  0.00    -0.000 C 
BRANCH  26  27
ATOM     27  C   UNL     1       7.394  -3.637  24.002  0.00  0.00    -0.000 C 
BRANCH  27  28
ATOM     28  C   UNL     1       7.655  -4.859  23.129  0.00  0.00    -0.000 C 
BRANCH  28  30
ATOM     29  C   UNL     1       6.294  -6.078  21.408  0.00  0.00    +0.004 C 
ATOM     30  C   UNL     1       6.919  -4.749  21.798  0.00  0.00    -0.003 C 
ENDBRANCH  28  30
ENDBRANCH  27  28
ENDBRANCH  26  27
ENDBRANCH  25  26
ENDBRANCH  24  25
ENDBRANCH  23  24
ENDBRANCH  22  23
ENDBRANCH  21  22
ENDBRANCH  20  21
ENDBRANCH  19  20
ENDBRANCH  18  19
ENDBRANCH  17  18
ENDBRANCH  16  17
ENDBRANCH  15  16
ENDBRANCH  14  15
ENDBRANCH  13  14
ENDBRANCH  12  13
ENDBRANCH  11  12
ENDBRANCH  10  11
ENDBRANCH   9  10
ENDBRANCH   6   9
ENDBRANCH   2   6
ENDBRANCH   1   3
BRANCH   1  31
ATOM     31  C   UNL     1       2.923  -2.759  28.076  0.00  0.00    +0.188 C 
BRANCH  31  32
ATOM     32  O   UNL     1       2.805  -3.657  29.177  0.00  0.00    -0.347 OA
BRANCH  32  33
ATOM     33  C   UNL     1       3.118  -5.008  28.834  0.00  0.00    +0.282 C 
ATOM     34  C   UNL     1       2.582  -5.273  27.400  0.00  0.00    +0.204 C 
ATOM     35  C   UNL     1       3.098  -6.608  26.837  0.00  0.00    +0.216 C 
ATOM     36  C   UNL     1       4.595  -6.789  27.100  0.00  0.00    +0.179 C 
ATOM     37  C   UNL     1       4.894  -6.553  28.585  0.00  0.00    +0.178 C 
ATOM     38  O   UNL     1       4.519  -5.222  28.952  0.00  0.00    -0.341 OA
BRANCH  36  39
ATOM     39  O   UNL     1       5.309  -5.862  26.273  0.00  0.00    -0.386 OA
ATOM     40  H   UNL     1       4.667  -5.292  25.814  0.00  0.00    +0.210 HD
ENDBRANCH  36  39
BRANCH  34  41
ATOM     41  O   UNL     1       1.140  -5.339  27.376  0.00  0.00    -0.384 OA
ATOM     42  H   UNL     1       0.843  -5.885  28.125  0.00  0.00    +0.210 HD
ENDBRANCH  34  41
BRANCH  35  43
ATOM     43  O   UNL     1       2.819  -6.644  25.432  0.00  0.00    -0.207 OA
BRANCH  43  44
ATOM     44  S   UNL     1       1.823  -7.782  24.860  0.00  0.00    +0.208 S 
ATOM     45  O   UNL     1       1.699  -7.614  23.428  0.00  0.00    -0.118 OA
ATOM     46  O   UNL     1       0.660  -7.845  25.713  0.00  0.00    -0.118 OA
BRANCH  44  47
ATOM     47  O   UNL     1       2.644  -9.137  25.140  0.00  0.00    -0.231 OA
ATOM     48  H   UNL     1       3.246  -8.959  25.903  0.00  0.00    +0.247 HD
ENDBRANCH  44  47
ENDBRANCH  43  44
ENDBRANCH  35  43
BRANCH  37  49
ATOM     49  C   UNL     1       6.382  -6.724  28.892  0.00  0.00    +0.190 C 
BRANCH  49  50
ATOM     50  O   UNL     1       7.133  -5.746  28.178  0.00  0.00    -0.392 OA
ATOM     51  H   UNL     1       6.498  -5.031  27.974  0.00  0.00    +0.210 HD
ENDBRANCH  49  50
ENDBRANCH  37  49
ENDBRANCH  32  33
ENDBRANCH  31  32
ENDBRANCH   1  31
BRANCH   1  52
ATOM     52  C   UNL     1       5.190  -2.350  26.915  0.00  0.00    +0.159 C 
BRANCH  52  53
ATOM     53  C   UNL     1       5.950  -1.164  26.378  0.00  0.00    +0.002 C 
ATOM     54  C   UNL     1       5.757  -0.644  25.155  0.00  0.00    -0.028 C 
BRANCH  54  55
ATOM     55  C   UNL     1       6.580   0.479  24.598  0.00  0.00    +0.027 C 
BRANCH  55  56
ATOM     56  C   UNL     1       5.703   1.505  23.888  0.00  0.00    +0.004 C 
BRANCH  56  57
ATOM     57  C   UNL     1       6.322   1.909  22.552  0.00  0.00    +0.000 C 
BRANCH  57  58
ATOM     58  C   UNL     1       6.140   3.400  22.294  0.00  0.00    +0.000 C 
BRANCH  58  59
ATOM     59  C   UNL     1       5.123   3.997  23.261  0.00  0.00    +0.000 C 
BRANCH  59  60
ATOM     60  C   UNL     1       4.279   5.062  22.569  0.00  0.00    +0.000 C 
BRANCH  60  61
ATOM     61  C   UNL     1       2.792   4.778  22.749  0.00  0.00    -0.000 C 
BRANCH  61  62
ATOM     62  C   UNL     1       2.524   3.276  22.753  0.00  0.00    -0.000 C 
BRANCH  62  63
ATOM     63  C   UNL     1       1.045   2.988  22.515  0.00  0.00    -0.000 C 
BRANCH  63  64
ATOM     64  C   UNL     1       0.632   3.375  21.098  0.00  0.00    -0.000 C 
BRANCH  64  65
ATOM     65  C   UNL     1       1.484   2.645  20.064  0.00  0.00    -0.000 C 
BRANCH  65  66
ATOM     66  C   UNL     1       1.858   3.567  18.906  0.00  0.00    -0.003 C 
ATOM     67  C   UNL     1       1.536   5.016  19.232  0.00  0.00    +0.004 C 
ENDBRANCH  65  66
ENDBRANCH  64  65
ENDBRANCH  63  64
ENDBRANCH  62  63
ENDBRANCH  61  62
ENDBRANCH  60  61
ENDBRANCH  59  60
ENDBRANCH  58  59
ENDBRANCH  57  58
ENDBRANCH  56  57
ENDBRANCH  55  56
ENDBRANCH  54  55
ENDBRANCH  52  53
BRANCH  52  68
ATOM     68  O   UNL     1       6.173  -3.305  27.299  0.00  0.00    -0.386 OA
ATOM     69  H   UNL     1       5.830  -3.795  28.065  0.00  0.00    +0.210 HD
ENDBRANCH  52  68
ENDBRANCH   1  52
TORSDOF 49
ENDMDL
