MODEL 1
REMARK VINA RESULT:      -6.9      0.000      0.000
REMARK  Name = 
REMARK  5 active torsions:
REMARK  status: ('A' for Active; 'I' for Inactive)
REMARK    1  A    between atoms: C_1  and  O_2
REMARK    2  A    between atoms: O_2  and  C_3
REMARK    3  A    between atoms: C_6  and  O_7
REMARK    4  A    between atoms: O_7  and  C_8
REMARK    5  A    between atoms: C_17  and  N_18
REMARK                            x       y       z     vdW  Elec       q    Type
REMARK                         _______ _______ _______ _____ _____    ______ ____
ROOT
ATOM      1  C   UNL     1       6.552  -2.747  22.940  0.00  0.00    +0.141 A 
ATOM      2  C   UNL     1       7.379  -3.502  23.829  0.00  0.00    +0.082 A 
ATOM      3  C   UNL     1       7.793  -4.774  23.430  0.00  0.00    +0.081 A 
ATOM      4  N   UNL     1       8.739  -5.471  24.079  0.00  0.00    -0.214 NA
ATOM      5  C   UNL     1       9.240  -4.932  25.187  0.00  0.00    +0.215 A 
ATOM      6  N   UNL     1       8.759  -3.848  25.786  0.00  0.00    -0.199 NA
ATOM      7  N   UNL     1      10.315  -5.572  25.766  0.00  0.00    -0.327 N 
ATOM      8  H   UNL     1      10.369  -5.364  26.752  0.00  0.00    +0.145 HD
ATOM      9  H   UNL     1      10.359  -6.537  25.476  0.00  0.00    +0.145 HD
ATOM     10  C   UNL     1       7.200  -5.348  22.315  0.00  0.00    +0.029 A 
ATOM     11  C   UNL     1       6.231  -4.678  21.558  0.00  0.00    +0.006 A 
ATOM     12  C   UNL     1       7.821  -3.158  25.117  0.00  0.00    +0.133 A 
ATOM     13  C   UNL     1       5.927  -3.361  21.856  0.00  0.00    +0.047 A 
ENDROOT
BRANCH  12  14
ATOM     14  N   UNL     1       7.148  -2.207  25.889  0.00  0.00    -0.342 N 
ATOM     15  H   UNL     1       6.608  -2.597  26.650  0.00  0.00    +0.144 HD
ATOM     16  H   UNL     1       6.638  -1.576  25.277  0.00  0.00    +0.144 HD
ENDBRANCH  12  14
BRANCH   1  17
ATOM     17  O   UNL     1       6.383  -1.393  23.149  0.00  0.00    -0.455 OA
BRANCH  17  21
ATOM     18  C   UNL     1       9.393   1.439  22.367  0.00  0.00    +0.120 A 
ATOM     19  C   UNL     1       9.598   0.121  21.951  0.00  0.00    +0.049 A 
ATOM     20  C   UNL     1       8.620  -0.862  22.179  0.00  0.00    +0.050 A 
ATOM     21  C   UNL     1       7.407  -0.524  22.795  0.00  0.00    +0.129 A 
ATOM     22  C   UNL     1       7.189   0.807  23.155  0.00  0.00    +0.050 A 
ATOM     23  C   UNL     1       8.169   1.784  22.936  0.00  0.00    +0.049 A 
BRANCH  18  25
ATOM     24  C   UNL     1      10.826   3.066  23.313  0.00  0.00    +0.277 C 
ATOM     25  O   UNL     1      10.441   2.302  22.172  0.00  0.00    -0.495 OA
ENDBRANCH  18  25
ENDBRANCH  17  21
ENDBRANCH   1  17
TORSDOF 4
ENDMDL
MODEL 2
REMARK VINA RESULT:      -6.8      2.504      3.526
REMARK  Name = 
REMARK  5 active torsions:
REMARK  status: ('A' for Active; 'I' for Inactive)
REMARK    1  A    between atoms: C_1  and  O_2
REMARK    2  A    between atoms: O_2  and  C_3
REMARK    3  A    between atoms: C_6  and  O_7
REMARK    4  A    between atoms: O_7  and  C_8
REMARK    5  A    between atoms: C_17  and  N_18
REMARK                            x       y       z     vdW  Elec       q    Type
REMARK                         _______ _______ _______ _____ _____    ______ ____
ROOT
ATOM      1  C   UNL     1       7.744  -4.339  23.901  0.00  0.00    +0.141 A 
ATOM      2  C   UNL     1       6.778  -5.243  24.443  0.00  0.00    +0.082 A 
ATOM      3  C   UNL     1       6.862  -5.570  25.797  0.00  0.00    +0.081 A 
ATOM      4  N   UNL     1       5.891  -6.225  26.452  0.00  0.00    -0.214 NA
ATOM      5  C   UNL     1       4.842  -6.628  25.740  0.00  0.00    +0.215 A 
ATOM      6  N   UNL     1       4.763  -6.583  24.415  0.00  0.00    -0.199 NA
ATOM      7  N   UNL     1       3.778  -7.163  26.436  0.00  0.00    -0.327 N 
ATOM      8  H   UNL     1       3.240  -7.783  25.851  0.00  0.00    +0.145 HD
ATOM      9  H   UNL     1       4.070  -7.492  27.344  0.00  0.00    +0.145 HD
ATOM     10  C   UNL     1       8.001  -5.206  26.501  0.00  0.00    +0.029 A 
ATOM     11  C   UNL     1       9.048  -4.490  25.906  0.00  0.00    +0.006 A 
ATOM     12  C   UNL     1       5.739  -5.914  23.778  0.00  0.00    +0.133 A 
ATOM     13  C   UNL     1       8.906  -4.031  24.609  0.00  0.00    +0.047 A 
ENDROOT
BRANCH  12  14
ATOM     14  N   UNL     1       5.775  -6.129  22.397  0.00  0.00    -0.342 N 
ATOM     15  H   UNL     1       4.894  -6.428  22.001  0.00  0.00    +0.144 HD
ATOM     16  H   UNL     1       6.573  -6.715  22.169  0.00  0.00    +0.144 HD
ENDBRANCH  12  14
BRANCH   1  17
ATOM     17  O   UNL     1       7.518  -3.753  22.672  0.00  0.00    -0.455 OA
BRANCH  17  21
ATOM     18  C   UNL     1       8.276   0.379  22.462  0.00  0.00    +0.120 A 
ATOM     19  C   UNL     1       9.188  -0.493  21.864  0.00  0.00    +0.049 A 
ATOM     20  C   UNL     1       8.977  -1.883  21.897  0.00  0.00    +0.050 A 
ATOM     21  C   UNL     1       7.826  -2.409  22.499  0.00  0.00    +0.129 A 
ATOM     22  C   UNL     1       6.892  -1.525  23.044  0.00  0.00    +0.050 A 
ATOM     23  C   UNL     1       7.109  -0.141  23.018  0.00  0.00    +0.049 A 
BRANCH  18  25
ATOM     24  C   UNL     1       9.993   1.987  22.215  0.00  0.00    +0.277 C 
ATOM     25  O   UNL     1       8.614   1.708  22.447  0.00  0.00    -0.495 OA
ENDBRANCH  18  25
ENDBRANCH  17  21
ENDBRANCH   1  17
TORSDOF 4
ENDMDL
MODEL 3
REMARK VINA RESULT:      -6.7      2.549      2.849
REMARK  Name = 
REMARK  5 active torsions:
REMARK  status: ('A' for Active; 'I' for Inactive)
REMARK    1  A    between atoms: C_1  and  O_2
REMARK    2  A    between atoms: O_2  and  C_3
REMARK    3  A    between atoms: C_6  and  O_7
REMARK    4  A    between atoms: O_7  and  C_8
REMARK    5  A    between atoms: C_17  and  N_18
REMARK                            x       y       z     vdW  Elec       q    Type
REMARK                         _______ _______ _______ _____ _____    ______ ____
ROOT
ATOM      1  C   UNL     1       7.393  -3.723  23.808  0.00  0.00    +0.141 A 
ATOM      2  C   UNL     1       6.740  -4.504  24.812  0.00  0.00    +0.082 A 
ATOM      3  C   UNL     1       5.433  -4.931  24.574  0.00  0.00    +0.081 A 
ATOM      4  N   UNL     1       4.811  -5.841  25.340  0.00  0.00    -0.214 NA
ATOM      5  C   UNL     1       5.468  -6.292  26.405  0.00  0.00    +0.215 A 
ATOM      6  N   UNL     1       6.611  -5.788  26.859  0.00  0.00    -0.199 NA
ATOM      7  N   UNL     1       4.896  -7.335  27.101  0.00  0.00    -0.327 N 
ATOM      8  H   UNL     1       5.211  -7.344  28.060  0.00  0.00    +0.145 HD
ATOM      9  H   UNL     1       3.905  -7.389  26.921  0.00  0.00    +0.145 HD
ATOM     10  C   UNL     1       4.740  -4.388  23.502  0.00  0.00    +0.029 A 
ATOM     11  C   UNL     1       5.323  -3.459  22.630  0.00  0.00    +0.006 A 
ATOM     12  C   UNL     1       7.224  -4.886  26.075  0.00  0.00    +0.133 A 
ATOM     13  C   UNL     1       6.664  -3.147  22.769  0.00  0.00    +0.047 A 
ENDROOT
BRANCH  12  14
ATOM     14  N   UNL     1       8.253  -4.182  26.705  0.00  0.00    -0.342 N 
ATOM     15  H   UNL     1       8.947  -4.770  27.147  0.00  0.00    +0.144 HD
ATOM     16  H   UNL     1       7.853  -3.464  27.303  0.00  0.00    +0.144 HD
ENDBRANCH  12  14
BRANCH   1  17
ATOM     17  O   UNL     1       8.762  -3.551  23.859  0.00  0.00    -0.455 OA
BRANCH  17  21
ATOM     18  C   UNL     1      10.383   0.325  24.073  0.00  0.00    +0.120 A 
ATOM     19  C   UNL     1      10.541  -0.396  22.887  0.00  0.00    +0.049 A 
ATOM     20  C   UNL     1      10.011  -1.691  22.759  0.00  0.00    +0.050 A 
ATOM     21  C   UNL     1       9.281  -2.263  23.811  0.00  0.00    +0.129 A 
ATOM     22  C   UNL     1       9.080  -1.512  24.971  0.00  0.00    +0.050 A 
ATOM     23  C   UNL     1       9.617  -0.225  25.100  0.00  0.00    +0.049 A 
BRANCH  18  25
ATOM     24  C   UNL     1      10.234   2.651  23.668  0.00  0.00    +0.277 C 
ATOM     25  O   UNL     1      11.008   1.544  24.125  0.00  0.00    -0.495 OA
ENDBRANCH  18  25
ENDBRANCH  17  21
ENDBRANCH   1  17
TORSDOF 4
ENDMDL
MODEL 4
REMARK VINA RESULT:      -6.7      1.893      2.168
REMARK  Name = 
REMARK  5 active torsions:
REMARK  status: ('A' for Active; 'I' for Inactive)
REMARK    1  A    between atoms: C_1  and  O_2
REMARK    2  A    between atoms: O_2  and  C_3
REMARK    3  A    between atoms: C_6  and  O_7
REMARK    4  A    between atoms: O_7  and  C_8
REMARK    5  A    between atoms: C_17  and  N_18
REMARK                            x       y       z     vdW  Elec       q    Type
REMARK                         _______ _______ _______ _____ _____    ______ ____
ROOT
ATOM      1  C   UNL     1       7.877  -3.660  23.566  0.00  0.00    +0.141 A 
ATOM      2  C   UNL     1       7.508  -4.172  24.850  0.00  0.00    +0.082 A 
ATOM      3  C   UNL     1       6.611  -5.239  24.905  0.00  0.00    +0.081 A 
ATOM      4  N   UNL     1       6.369  -5.932  26.028  0.00  0.00    -0.214 NA
ATOM      5  C   UNL     1       6.974  -5.522  27.139  0.00  0.00    +0.215 A 
ATOM      6  N   UNL     1       7.657  -4.388  27.255  0.00  0.00    -0.199 NA
ATOM      7  N   UNL     1       6.849  -6.321  28.255  0.00  0.00    -0.327 N 
ATOM      8  H   UNL     1       6.968  -5.783  29.100  0.00  0.00    +0.145 HD
ATOM      9  H   UNL     1       6.042  -6.923  28.179  0.00  0.00    +0.145 HD
ATOM     10  C   UNL     1       5.933  -5.599  23.749  0.00  0.00    +0.029 A 
ATOM     11  C   UNL     1       6.150  -4.954  22.525  0.00  0.00    +0.006 A 
ATOM     12  C   UNL     1       7.898  -3.713  26.119  0.00  0.00    +0.133 A 
ATOM     13  C   UNL     1       7.146  -3.999  22.428  0.00  0.00    +0.047 A 
ENDROOT
BRANCH  12  14
ATOM     14  N   UNL     1       8.359  -2.408  26.313  0.00  0.00    -0.342 N 
ATOM     15  H   UNL     1       9.366  -2.328  26.369  0.00  0.00    +0.144 HD
ATOM     16  H   UNL     1       7.849  -1.981  27.082  0.00  0.00    +0.144 HD
ENDBRANCH  12  14
BRANCH   1  17
ATOM     17  O   UNL     1       8.977  -2.834  23.451  0.00  0.00    -0.455 OA
BRANCH  17  21
ATOM     18  C   UNL     1       8.345   1.061  21.994  0.00  0.00    +0.120 A 
ATOM     19  C   UNL     1       9.442   0.343  21.512  0.00  0.00    +0.049 A 
ATOM     20  C   UNL     1       9.693  -0.966  21.959  0.00  0.00    +0.050 A 
ATOM     21  C   UNL     1       8.822  -1.583  22.868  0.00  0.00    +0.129 A 
ATOM     22  C   UNL     1       7.698  -0.877  23.300  0.00  0.00    +0.050 A 
ATOM     23  C   UNL     1       7.454   0.432  22.861  0.00  0.00    +0.049 A 
BRANCH  18  25
ATOM     24  C   UNL     1       7.299   3.165  22.269  0.00  0.00    +0.277 C 
ATOM     25  O   UNL     1       8.236   2.357  21.560  0.00  0.00    -0.495 OA
ENDBRANCH  18  25
ENDBRANCH  17  21
ENDBRANCH   1  17
TORSDOF 4
ENDMDL
MODEL 5
REMARK VINA RESULT:      -6.7      2.787      4.087
REMARK  Name = 
REMARK  5 active torsions:
REMARK  status: ('A' for Active; 'I' for Inactive)
REMARK    1  A    between atoms: C_1  and  O_2
REMARK    2  A    between atoms: O_2  and  C_3
REMARK    3  A    between atoms: C_6  and  O_7
REMARK    4  A    between atoms: O_7  and  C_8
REMARK    5  A    between atoms: C_17  and  N_18
REMARK                            x       y       z     vdW  Elec       q    Type
REMARK                         _______ _______ _______ _____ _____    ______ ____
ROOT
ATOM      1  C   UNL     1       7.808  -4.839  24.413  0.00  0.00    +0.141 A 
ATOM      2  C   UNL     1       6.530  -5.293  23.960  0.00  0.00    +0.082 A 
ATOM      3  C   UNL     1       5.570  -5.630  24.915  0.00  0.00    +0.081 A 
ATOM      4  N   UNL     1       4.282  -5.853  24.608  0.00  0.00    -0.214 NA
ATOM      5  C   UNL     1       3.946  -5.810  23.322  0.00  0.00    +0.215 A 
ATOM      6  N   UNL     1       4.811  -5.734  22.316  0.00  0.00    -0.199 NA
ATOM      7  N   UNL     1       2.603  -5.886  23.020  0.00  0.00    -0.327 N 
ATOM      8  H   UNL     1       2.463  -6.244  22.088  0.00  0.00    +0.145 HD
ATOM      9  H   UNL     1       2.086  -6.306  23.778  0.00  0.00    +0.145 HD
ATOM     10  C   UNL     1       5.961  -5.745  26.241  0.00  0.00    +0.029 A 
ATOM     11  C   UNL     1       7.275  -5.495  26.655  0.00  0.00    +0.006 A 
ATOM     12  C   UNL     1       6.093  -5.500  22.641  0.00  0.00    +0.133 A 
ATOM     13  C   UNL     1       8.195  -5.013  25.741  0.00  0.00    +0.047 A 
ENDROOT
BRANCH  12  14
ATOM     14  N   UNL     1       6.997  -5.708  21.597  0.00  0.00    -0.342 N 
ATOM     15  H   UNL     1       7.024  -6.659  21.255  0.00  0.00    +0.144 HD
ATOM     16  H   UNL     1       7.900  -5.315  21.849  0.00  0.00    +0.144 HD
ENDBRANCH  12  14
BRANCH   1  17
ATOM     17  O   UNL     1       8.661  -4.207  23.530  0.00  0.00    -0.455 OA
BRANCH  17  21
ATOM     18  C   UNL     1       9.041  -0.024  23.313  0.00  0.00    +0.120 A 
ATOM     19  C   UNL     1       7.831  -0.601  22.922  0.00  0.00    +0.049 A 
ATOM     20  C   UNL     1       7.648  -1.994  22.984  0.00  0.00    +0.050 A 
ATOM     21  C   UNL     1       8.668  -2.820  23.476  0.00  0.00    +0.129 A 
ATOM     22  C   UNL     1       9.853  -2.227  23.918  0.00  0.00    +0.050 A 
ATOM     23  C   UNL     1      10.037  -0.840  23.846  0.00  0.00    +0.049 A 
BRANCH  18  25
ATOM     24  C   UNL     1      10.001   1.746  22.071  0.00  0.00    +0.277 C 
ATOM     25  O   UNL     1       9.148   1.331  23.135  0.00  0.00    -0.495 OA
ENDBRANCH  18  25
ENDBRANCH  17  21
ENDBRANCH   1  17
TORSDOF 4
ENDMDL
MODEL 6
REMARK VINA RESULT:      -6.6      3.334      6.587
REMARK  Name = 
REMARK  5 active torsions:
REMARK  status: ('A' for Active; 'I' for Inactive)
REMARK    1  A    between atoms: C_1  and  O_2
REMARK    2  A    between atoms: O_2  and  C_3
REMARK    3  A    between atoms: C_6  and  O_7
REMARK    4  A    between atoms: O_7  and  C_8
REMARK    5  A    between atoms: C_17  and  N_18
REMARK                            x       y       z     vdW  Elec       q    Type
REMARK                         _______ _______ _______ _____ _____    ______ ____
ROOT
ATOM      1  C   UNL     1       8.532  -0.990  24.107  0.00  0.00    +0.141 A 
ATOM      2  C   UNL     1       9.064   0.245  23.622  0.00  0.00    +0.082 A 
ATOM      3  C   UNL     1       8.944   1.380  24.425  0.00  0.00    +0.081 A 
ATOM      4  N   UNL     1       9.593   2.527  24.171  0.00  0.00    -0.214 NA
ATOM      5  C   UNL     1      10.324   2.580  23.061  0.00  0.00    +0.215 A 
ATOM      6  N   UNL     1      10.323   1.653  22.109  0.00  0.00    -0.199 NA
ATOM      7  N   UNL     1      11.110   3.698  22.878  0.00  0.00    -0.327 N 
ATOM      8  H   UNL     1      11.296   3.851  21.899  0.00  0.00    +0.145 HD
ATOM      9  H   UNL     1      10.769   4.472  23.429  0.00  0.00    +0.145 HD
ATOM     10  C   UNL     1       8.114   1.325  25.535  0.00  0.00    +0.029 A 
ATOM     11  C   UNL     1       7.427   0.158  25.896  0.00  0.00    +0.006 A 
ATOM     12  C   UNL     1       9.678   0.508  22.386  0.00  0.00    +0.133 A 
ATOM     13  C   UNL     1       7.660  -1.011  25.194  0.00  0.00    +0.047 A 
ENDROOT
BRANCH  12  14
ATOM     14  N   UNL     1       9.460  -0.311  21.274  0.00  0.00    -0.342 N 
ATOM     15  H   UNL     1       8.720   0.007  20.663  0.00  0.00    +0.144 HD
ATOM     16  H   UNL     1       9.382  -1.278  21.578  0.00  0.00    +0.144 HD
ENDBRANCH  12  14
BRANCH   1  17
ATOM     17  O   UNL     1       8.900  -2.176  23.503  0.00  0.00    -0.455 OA
BRANCH  17  21
ATOM     18  C   UNL     1       5.909  -4.941  22.452  0.00  0.00    +0.120 A 
ATOM     19  C   UNL     1       5.897  -3.686  21.838  0.00  0.00    +0.049 A 
ATOM     20  C   UNL     1       6.880  -2.729  22.146  0.00  0.00    +0.050 A 
ATOM     21  C   UNL     1       7.908  -3.036  23.048  0.00  0.00    +0.129 A 
ATOM     22  C   UNL     1       7.942  -4.312  23.613  0.00  0.00    +0.050 A 
ATOM     23  C   UNL     1       6.957  -5.262  23.313  0.00  0.00    +0.049 A 
BRANCH  18  25
ATOM     24  C   UNL     1       3.833  -5.850  23.132  0.00  0.00    +0.277 C 
ATOM     25  O   UNL     1       4.861  -5.771  22.147  0.00  0.00    -0.495 OA
ENDBRANCH  18  25
ENDBRANCH  17  21
ENDBRANCH   1  17
TORSDOF 4
ENDMDL
MODEL 7
REMARK VINA RESULT:      -6.5      1.739      2.056
REMARK  Name = 
REMARK  5 active torsions:
REMARK  status: ('A' for Active; 'I' for Inactive)
REMARK    1  A    between atoms: C_1  and  O_2
REMARK    2  A    between atoms: O_2  and  C_3
REMARK    3  A    between atoms: C_6  and  O_7
REMARK    4  A    between atoms: O_7  and  C_8
REMARK    5  A    between atoms: C_17  and  N_18
REMARK                            x       y       z     vdW  Elec       q    Type
REMARK                         _______ _______ _______ _____ _____    ______ ____
ROOT
ATOM      1  C   UNL     1       8.407  -2.525  23.571  0.00  0.00    +0.141 A 
ATOM      2  C   UNL     1       8.040  -3.298  24.716  0.00  0.00    +0.082 A 
ATOM      3  C   UNL     1       7.245  -4.429  24.526  0.00  0.00    +0.081 A 
ATOM      4  N   UNL     1       7.027  -5.339  25.488  0.00  0.00    -0.214 NA
ATOM      5  C   UNL     1       7.549  -5.094  26.687  0.00  0.00    +0.215 A 
ATOM      6  N   UNL     1       8.118  -3.948  27.045  0.00  0.00    -0.199 NA
ATOM      7  N   UNL     1       7.457  -6.097  27.628  0.00  0.00    -0.327 N 
ATOM      8  H   UNL     1       7.494  -5.718  28.563  0.00  0.00    +0.145 HD
ATOM      9  H   UNL     1       6.714  -6.740  27.400  0.00  0.00    +0.145 HD
ATOM     10  C   UNL     1       6.647  -4.622  23.289  0.00  0.00    +0.029 A 
ATOM     11  C   UNL     1       6.848  -3.742  22.218  0.00  0.00    +0.006 A 
ATOM     12  C   UNL     1       8.337  -3.054  26.067  0.00  0.00    +0.133 A 
ATOM     13  C   UNL     1       7.754  -2.705  22.352  0.00  0.00    +0.047 A 
ENDROOT
BRANCH  12  14
ATOM     14  N   UNL     1       8.667  -1.775  26.522  0.00  0.00    -0.342 N 
ATOM     15  H   UNL     1       8.465  -1.035  25.863  0.00  0.00    +0.144 HD
ATOM     16  H   UNL     1       9.616  -1.781  26.886  0.00  0.00    +0.144 HD
ENDBRANCH  12  14
BRANCH   1  17
ATOM     17  O   UNL     1       9.429  -1.602  23.668  0.00  0.00    -0.455 OA
BRANCH  17  21
ATOM     18  C   UNL     1       8.603   2.446  22.878  0.00  0.00    +0.120 A 
ATOM     19  C   UNL     1       9.560   1.799  22.093  0.00  0.00    +0.049 A 
ATOM     20  C   UNL     1       9.867   0.444  22.309  0.00  0.00    +0.050 A 
ATOM     21  C   UNL     1       9.187  -0.287  23.293  0.00  0.00    +0.129 A 
ATOM     22  C   UNL     1       8.192   0.354  24.034  0.00  0.00    +0.050 A 
ATOM     23  C   UNL     1       7.894   1.707  23.824  0.00  0.00    +0.049 A 
BRANCH  18  25
ATOM     24  C   UNL     1       7.135   4.178  22.213  0.00  0.00    +0.277 C 
ATOM     25  O   UNL     1       8.437   3.787  22.643  0.00  0.00    -0.495 OA
ENDBRANCH  18  25
ENDBRANCH  17  21
ENDBRANCH   1  17
TORSDOF 4
ENDMDL
MODEL 8
REMARK VINA RESULT:      -6.4      3.521      6.608
REMARK  Name = 
REMARK  5 active torsions:
REMARK  status: ('A' for Active; 'I' for Inactive)
REMARK    1  A    between atoms: C_1  and  O_2
REMARK    2  A    between atoms: O_2  and  C_3
REMARK    3  A    between atoms: C_6  and  O_7
REMARK    4  A    between atoms: O_7  and  C_8
REMARK    5  A    between atoms: C_17  and  N_18
REMARK                            x       y       z     vdW  Elec       q    Type
REMARK                         _______ _______ _______ _____ _____    ______ ____
ROOT
ATOM      1  C   UNL     1       9.051  -0.978  24.188  0.00  0.00    +0.141 A 
ATOM      2  C   UNL     1       8.538   0.263  23.698  0.00  0.00    +0.082 A 
ATOM      3  C   UNL     1       8.653   0.536  22.335  0.00  0.00    +0.081 A 
ATOM      4  N   UNL     1       8.018   1.558  21.739  0.00  0.00    -0.214 NA
ATOM      5  C   UNL     1       7.307   2.370  22.516  0.00  0.00    +0.215 A 
ATOM      6  N   UNL     1       7.318   2.348  23.845  0.00  0.00    -0.199 NA
ATOM      7  N   UNL     1       6.534   3.323  21.889  0.00  0.00    -0.327 N 
ATOM      8  H   UNL     1       6.366   4.110  22.498  0.00  0.00    +0.145 HD
ATOM      9  H   UNL     1       6.870   3.503  20.954  0.00  0.00    +0.145 HD
ATOM     10  C   UNL     1       9.462  -0.280  21.558  0.00  0.00    +0.029 A 
ATOM     11  C   UNL     1      10.133  -1.388  22.090  0.00  0.00    +0.006 A 
ATOM     12  C   UNL     1       7.949   1.313  24.423  0.00  0.00    +0.133 A 
ATOM     13  C   UNL     1       9.904  -1.754  23.404  0.00  0.00    +0.047 A 
ENDROOT
BRANCH  12  14
ATOM     14  N   UNL     1       8.181   1.474  25.792  0.00  0.00    -0.342 N 
ATOM     15  H   UNL     1       8.177   2.437  26.102  0.00  0.00    +0.144 HD
ATOM     16  H   UNL     1       9.001   0.938  26.060  0.00  0.00    +0.144 HD
ENDBRANCH  12  14
BRANCH   1  17
ATOM     17  O   UNL     1       8.686  -1.421  25.444  0.00  0.00    -0.455 OA
BRANCH  17  21
ATOM     18  C   UNL     1       6.837  -5.133  26.146  0.00  0.00    +0.120 A 
ATOM     19  C   UNL     1       6.232  -4.250  25.248  0.00  0.00    +0.049 A 
ATOM     20  C   UNL     1       6.813  -3.001  24.971  0.00  0.00    +0.050 A 
ATOM     21  C   UNL     1       8.031  -2.640  25.564  0.00  0.00    +0.129 A 
ATOM     22  C   UNL     1       8.656  -3.553  26.416  0.00  0.00    +0.050 A 
ATOM     23  C   UNL     1       8.070  -4.794  26.699  0.00  0.00    +0.049 A 
BRANCH  18  25
ATOM     24  C   UNL     1       4.964  -6.488  25.642  0.00  0.00    +0.277 C 
ATOM     25  O   UNL     1       6.148  -6.289  26.411  0.00  0.00    -0.495 OA
ENDBRANCH  18  25
ENDBRANCH  17  21
ENDBRANCH   1  17
TORSDOF 4
ENDMDL
MODEL 9
REMARK VINA RESULT:      -6.4      3.286      6.572
REMARK  Name = 
REMARK  5 active torsions:
REMARK  status: ('A' for Active; 'I' for Inactive)
REMARK    1  A    between atoms: C_1  and  O_2
REMARK    2  A    between atoms: O_2  and  C_3
REMARK    3  A    between atoms: C_6  and  O_7
REMARK    4  A    between atoms: O_7  and  C_8
REMARK    5  A    between atoms: C_17  and  N_18
REMARK                            x       y       z     vdW  Elec       q    Type
REMARK                         _______ _______ _______ _____ _____    ______ ____
ROOT
ATOM      1  C   UNL     1       7.654  -1.105  22.694  0.00  0.00    +0.141 A 
ATOM      2  C   UNL     1       7.566   0.322  22.680  0.00  0.00    +0.082 A 
ATOM      3  C   UNL     1       8.606   1.045  22.094  0.00  0.00    +0.081 A 
ATOM      4  N   UNL     1       8.525   2.358  21.831  0.00  0.00    -0.214 NA
ATOM      5  C   UNL     1       7.420   2.989  22.217  0.00  0.00    +0.215 A 
ATOM      6  N   UNL     1       6.475   2.459  22.987  0.00  0.00    -0.199 NA
ATOM      7  N   UNL     1       7.270   4.299  21.813  0.00  0.00    -0.327 N 
ATOM      8  H   UNL     1       6.663   4.803  22.443  0.00  0.00    +0.145 HD
ATOM      9  H   UNL     1       8.161   4.708  21.576  0.00  0.00    +0.145 HD
ATOM     10  C   UNL     1       9.780   0.379  21.770  0.00  0.00    +0.029 A 
ATOM     11  C   UNL     1       9.938  -0.997  21.976  0.00  0.00    +0.006 A 
ATOM     12  C   UNL     1       6.567   1.142  23.230  0.00  0.00    +0.133 A 
ATOM     13  C   UNL     1       8.861  -1.746  22.414  0.00  0.00    +0.047 A 
ENDROOT
BRANCH  12  14
ATOM     14  N   UNL     1       5.734   0.688  24.257  0.00  0.00    -0.342 N 
ATOM     15  H   UNL     1       4.765   0.582  23.988  0.00  0.00    +0.144 HD
ATOM     16  H   UNL     1       5.892   1.246  25.091  0.00  0.00    +0.144 HD
ENDBRANCH  12  14
BRANCH   1  17
ATOM     17  O   UNL     1       6.530  -1.857  22.971  0.00  0.00    -0.455 OA
BRANCH  17  21
ATOM     18  C   UNL     1       6.817  -4.981  25.772  0.00  0.00    +0.120 A 
ATOM     19  C   UNL     1       7.015  -3.672  26.217  0.00  0.00    +0.049 A 
ATOM     20  C   UNL     1       6.921  -2.591  25.324  0.00  0.00    +0.050 A 
ATOM     21  C   UNL     1       6.589  -2.810  23.980  0.00  0.00    +0.129 A 
ATOM     22  C   UNL     1       6.337  -4.117  23.558  0.00  0.00    +0.050 A 
ATOM     23  C   UNL     1       6.441  -5.195  24.447  0.00  0.00    +0.049 A 
BRANCH  18  25
ATOM     24  C   UNL     1       6.526  -5.685  28.012  0.00  0.00    +0.277 C 
ATOM     25  O   UNL     1       7.013  -5.970  26.702  0.00  0.00    -0.495 OA
ENDBRANCH  18  25
ENDBRANCH  17  21
ENDBRANCH   1  17
TORSDOF 4
ENDMDL
