MODEL 1
REMARK VINA RESULT:      -7.1      0.000      0.000
REMARK  Name = 
REMARK  12 active torsions:
REMARK  status: ('A' for Active; 'I' for Inactive)
REMARK    1  A    between atoms: C_1  and  C_2
REMARK    2  A    between atoms: C_2  and  C_37
REMARK    3  A    between atoms: C_8  and  O_10
REMARK    4  A    between atoms: O_10  and  C_11
REMARK    5  A    between atoms: C_13  and  O_15
REMARK    6  A    between atoms: C_16  and  O_18
REMARK    7  A    between atoms: C_19  and  O_21
REMARK    8  A    between atoms: C_23  and  C_25
REMARK    9  A    between atoms: C_25  and  O_26
REMARK   10  A    between atoms: C_28  and  O_30
REMARK   11  A    between atoms: C_31  and  O_33
REMARK   12  A    between atoms: C_37  and  O_38
REMARK                            x       y       z     vdW  Elec       q    Type
REMARK                         _______ _______ _______ _____ _____    ______ ____
ROOT
ATOM      1  C   UNL     1       1.638  -6.295  23.118  0.00  0.00    +0.087 C 
ATOM      2  C   UNL     1       2.943  -5.730  23.689  0.00  0.00    +0.268 C 
ATOM      3  O   UNL     1       3.872  -5.716  22.594  0.00  0.00    -0.331 OA
ATOM      4  C   UNL     1       5.084  -5.032  22.943  0.00  0.00    +0.184 C 
ATOM      5  C   UNL     1       4.777  -3.597  23.360  0.00  0.00    +0.178 C 
ATOM      6  O   UNL     1       5.964  -2.901  23.731  0.00  0.00    -0.340 OA
ATOM      7  C   UNL     1       6.894  -2.794  22.644  0.00  0.00    +0.282 C 
ATOM      8  C   UNL     1       7.303  -4.200  22.132  0.00  0.00    +0.201 C 
ATOM      9  C   UNL     1       3.786  -3.670  24.516  0.00  0.00    +0.198 C 
ATOM     10  C   UNL     1       6.048  -5.008  21.754  0.00  0.00    +0.179 C 
ATOM     11  O   UNL     1       2.632  -4.407  24.120  0.00  0.00    -0.337 OA
ENDROOT
BRANCH   2  12
ATOM     12  C   UNL     1       3.384  -6.741  24.805  0.00  0.00    +0.365 C 
ATOM     13  O   UNL     1       3.326  -6.538  26.007  0.00  0.00    -0.245 OA
BRANCH  12  14
ATOM     14  O   UNL     1       3.869  -7.906  24.287  0.00  0.00    -0.477 OA
ATOM     15  H   UNL     1       4.788  -8.079  24.597  0.00  0.00    +0.295 HD
ENDBRANCH  12  14
ENDBRANCH   2  12
BRANCH   8  16
ATOM     16  O   UNL     1       8.039  -4.914  23.139  0.00  0.00    -0.384 OA
ATOM     17  H   UNL     1       8.079  -5.853  22.872  0.00  0.00    +0.210 HD
ENDBRANCH   8  16
BRANCH  10  18
ATOM     18  O   UNL     1       6.364  -6.353  21.375  0.00  0.00    -0.386 OA
ATOM     19  H   UNL     1       5.722  -6.947  21.803  0.00  0.00    +0.210 HD
ENDBRANCH  10  18
BRANCH   7  20
ATOM     20  O   UNL     1       8.000  -2.040  23.155  0.00  0.00    -0.340 OA
BRANCH  20  21
ATOM     21  C   UNL     1       7.898  -0.602  23.144  0.00  0.00    +0.192 C 
ATOM     22  C   UNL     1       9.246  -0.079  22.592  0.00  0.00    +0.260 C 
ATOM     23  O   UNL     1      10.324  -0.142  23.530  0.00  0.00    -0.332 OA
ATOM     24  C   UNL     1      10.067   0.365  24.832  0.00  0.00    +0.280 C 
ATOM     25  C   UNL     1       8.807  -0.226  25.476  0.00  0.00    +0.201 C 
ATOM     26  C   UNL     1       7.611  -0.025  24.541  0.00  0.00    +0.180 C 
BRANCH  22  27
ATOM     27  C   UNL     1       9.048   1.253  21.849  0.00  0.00    +0.337 C 
ATOM     28  O   UNL     1       7.963   1.657  21.462  0.00  0.00    -0.248 OA
BRANCH  27  29
ATOM     29  O   UNL     1      10.189   1.940  21.634  0.00  0.00    -0.479 OA
ATOM     30  H   UNL     1      10.551   1.755  20.739  0.00  0.00    +0.295 HD
ENDBRANCH  27  29
ENDBRANCH  22  27
BRANCH  24  31
ATOM     31  O   UNL     1       9.975   1.779  24.742  0.00  0.00    -0.365 OA
ATOM     32  H   UNL     1      10.387   2.134  25.555  0.00  0.00    +0.213 HD
ENDBRANCH  24  31
BRANCH  25  33
ATOM     33  O   UNL     1       8.991  -1.612  25.778  0.00  0.00    -0.384 OA
ATOM     34  H   UNL     1       9.476  -1.680  26.627  0.00  0.00    +0.210 HD
ENDBRANCH  25  33
BRANCH  26  35
ATOM     35  O   UNL     1       7.220   1.346  24.450  0.00  0.00    -0.386 OA
ATOM     36  H   UNL     1       6.754   1.512  23.606  0.00  0.00    +0.210 HD
ENDBRANCH  26  35
ENDBRANCH  20  21
ENDBRANCH   7  20
TORSDOF 11
ENDMDL
MODEL 2
REMARK VINA RESULT:      -7.1      1.954      3.771
REMARK  Name = 
REMARK  12 active torsions:
REMARK  status: ('A' for Active; 'I' for Inactive)
REMARK    1  A    between atoms: C_1  and  C_2
REMARK    2  A    between atoms: C_2  and  C_37
REMARK    3  A    between atoms: C_8  and  O_10
REMARK    4  A    between atoms: O_10  and  C_11
REMARK    5  A    between atoms: C_13  and  O_15
REMARK    6  A    between atoms: C_16  and  O_18
REMARK    7  A    between atoms: C_19  and  O_21
REMARK    8  A    between atoms: C_23  and  C_25
REMARK    9  A    between atoms: C_25  and  O_26
REMARK   10  A    between atoms: C_28  and  O_30
REMARK   11  A    between atoms: C_31  and  O_33
REMARK   12  A    between atoms: C_37  and  O_38
REMARK                            x       y       z     vdW  Elec       q    Type
REMARK                         _______ _______ _______ _____ _____    ______ ____
ROOT
ATOM      1  C   UNL     1       6.504  -6.645  21.849  0.00  0.00    +0.087 C 
ATOM      2  C   UNL     1       6.275  -5.293  22.531  0.00  0.00    +0.268 C 
ATOM      3  O   UNL     1       7.481  -5.018  23.263  0.00  0.00    -0.331 OA
ATOM      4  C   UNL     1       7.476  -3.688  23.800  0.00  0.00    +0.184 C 
ATOM      5  C   UNL     1       7.327  -2.666  22.676  0.00  0.00    +0.178 C 
ATOM      6  O   UNL     1       7.299  -1.336  23.186  0.00  0.00    -0.340 OA
ATOM      7  C   UNL     1       8.517  -0.987  23.862  0.00  0.00    +0.282 C 
ATOM      8  C   UNL     1       8.779  -1.951  25.049  0.00  0.00    +0.201 C 
ATOM      9  C   UNL     1       6.041  -3.007  21.932  0.00  0.00    +0.198 C 
ATOM     10  C   UNL     1       8.780  -3.409  24.554  0.00  0.00    +0.179 C 
ATOM     11  O   UNL     1       6.089  -4.356  21.473  0.00  0.00    -0.337 OA
ENDROOT
BRANCH   2  12
ATOM     12  C   UNL     1       5.055  -5.511  23.493  0.00  0.00    +0.365 C 
ATOM     13  O   UNL     1       5.130  -5.791  24.680  0.00  0.00    -0.245 OA
BRANCH  12  14
ATOM     14  O   UNL     1       3.859  -5.366  22.855  0.00  0.00    -0.477 OA
ATOM     15  H   UNL     1       3.138  -5.834  23.337  0.00  0.00    +0.295 HD
ENDBRANCH  12  14
ENDBRANCH   2  12
BRANCH   8  16
ATOM     16  O   UNL     1       7.773  -1.797  26.063  0.00  0.00    -0.384 OA
ATOM     17  H   UNL     1       7.293  -0.964  25.885  0.00  0.00    +0.210 HD
ENDBRANCH   8  16
BRANCH  10  18
ATOM     18  O   UNL     1       8.912  -4.346  25.629  0.00  0.00    -0.386 OA
ATOM     19  H   UNL     1       9.017  -5.235  25.246  0.00  0.00    +0.210 HD
ENDBRANCH  10  18
BRANCH   7  20
ATOM     20  O   UNL     1       8.353   0.376  24.272  0.00  0.00    -0.340 OA
BRANCH  20  21
ATOM     21  C   UNL     1       9.032   1.394  23.510  0.00  0.00    +0.192 C 
ATOM     22  C   UNL     1       8.805   2.723  24.268  0.00  0.00    +0.260 C 
ATOM     23  O   UNL     1       7.492   3.270  24.106  0.00  0.00    -0.332 OA
ATOM     24  C   UNL     1       6.989   3.339  22.779  0.00  0.00    +0.280 C 
ATOM     25  C   UNL     1       7.074   2.005  22.028  0.00  0.00    +0.201 C 
ATOM     26  C   UNL     1       8.514   1.486  22.064  0.00  0.00    +0.180 C 
BRANCH  22  27
ATOM     27  C   UNL     1       9.988   3.682  24.052  0.00  0.00    +0.337 C 
ATOM     28  O   UNL     1      11.090   3.320  23.671  0.00  0.00    -0.248 OA
BRANCH  27  29
ATOM     29  O   UNL     1       9.715   4.970  24.342  0.00  0.00    -0.479 OA
ATOM     30  H   UNL     1       9.521   5.085  25.299  0.00  0.00    +0.295 HD
ENDBRANCH  27  29
ENDBRANCH  22  27
BRANCH  24  31
ATOM     31  O   UNL     1       7.705   4.354  22.091  0.00  0.00    -0.365 OA
ATOM     32  H   UNL     1       8.430   4.631  22.686  0.00  0.00    +0.213 HD
ENDBRANCH  24  31
BRANCH  25  33
ATOM     33  O   UNL     1       6.172   1.046  22.589  0.00  0.00    -0.384 OA
ATOM     34  H   UNL     1       5.345   1.058  22.063  0.00  0.00    +0.210 HD
ENDBRANCH  25  33
BRANCH  26  35
ATOM     35  O   UNL     1       9.394   2.275  21.261  0.00  0.00    -0.386 OA
ATOM     36  H   UNL     1      10.216   2.474  21.753  0.00  0.00    +0.210 HD
ENDBRANCH  26  35
ENDBRANCH  20  21
ENDBRANCH   7  20
TORSDOF 11
ENDMDL
MODEL 3
REMARK VINA RESULT:      -7.1      2.673      7.749
REMARK  Name = 
REMARK  12 active torsions:
REMARK  status: ('A' for Active; 'I' for Inactive)
REMARK    1  A    between atoms: C_1  and  C_2
REMARK    2  A    between atoms: C_2  and  C_37
REMARK    3  A    between atoms: C_8  and  O_10
REMARK    4  A    between atoms: O_10  and  C_11
REMARK    5  A    between atoms: C_13  and  O_15
REMARK    6  A    between atoms: C_16  and  O_18
REMARK    7  A    between atoms: C_19  and  O_21
REMARK    8  A    between atoms: C_23  and  C_25
REMARK    9  A    between atoms: C_25  and  O_26
REMARK   10  A    between atoms: C_28  and  O_30
REMARK   11  A    between atoms: C_31  and  O_33
REMARK   12  A    between atoms: C_37  and  O_38
REMARK                            x       y       z     vdW  Elec       q    Type
REMARK                         _______ _______ _______ _____ _____    ______ ____
ROOT
ATOM      1  C   UNL     1       8.448   5.355  25.004  0.00  0.00    +0.087 C 
ATOM      2  C   UNL     1       8.058   3.924  24.621  0.00  0.00    +0.268 C 
ATOM      3  O   UNL     1       9.164   3.410  23.861  0.00  0.00    -0.331 OA
ATOM      4  C   UNL     1       9.012   2.009  23.597  0.00  0.00    +0.184 C 
ATOM      5  C   UNL     1       8.901   1.235  24.908  0.00  0.00    +0.178 C 
ATOM      6  O   UNL     1       8.729  -0.160  24.672  0.00  0.00    -0.340 OA
ATOM      7  C   UNL     1       9.847  -0.736  23.980  0.00  0.00    +0.282 C 
ATOM      8  C   UNL     1      10.061  -0.041  22.610  0.00  0.00    +0.201 C 
ATOM      9  C   UNL     1       7.721   1.822  25.673  0.00  0.00    +0.198 C 
ATOM     10  C   UNL     1      10.213   1.478  22.809  0.00  0.00    +0.179 C 
ATOM     11  O   UNL     1       7.909   3.224  25.854  0.00  0.00    -0.337 OA
ENDROOT
BRANCH   2  12
ATOM     12  C   UNL     1       6.768   4.064  23.738  0.00  0.00    +0.365 C 
ATOM     13  O   UNL     1       5.630   3.813  24.102  0.00  0.00    -0.245 OA
BRANCH  12  14
ATOM     14  O   UNL     1       7.049   4.494  22.474  0.00  0.00    -0.477 OA
ATOM     15  H   UNL     1       7.265   5.455  22.464  0.00  0.00    +0.295 HD
ENDBRANCH  12  14
ENDBRANCH   2  12
BRANCH   8  16
ATOM     16  O   UNL     1       8.951  -0.294  21.732  0.00  0.00    -0.384 OA
ATOM     17  H   UNL     1       8.243  -0.715  22.257  0.00  0.00    +0.210 HD
ENDBRANCH   8  16
BRANCH  10  18
ATOM     18  O   UNL     1      10.306   2.180  21.563  0.00  0.00    -0.386 OA
ATOM     19  H   UNL     1       9.968   1.597  20.860  0.00  0.00    +0.210 HD
ENDBRANCH  10  18
BRANCH   7  20
ATOM     20  O   UNL     1       9.548  -2.132  23.860  0.00  0.00    -0.340 OA
BRANCH  20  21
ATOM     21  C   UNL     1       8.542  -2.683  24.733  0.00  0.00    +0.192 C 
ATOM     22  C   UNL     1       8.937  -4.161  24.968  0.00  0.00    +0.260 C 
ATOM     23  O   UNL     1       8.658  -5.022  23.860  0.00  0.00    -0.332 OA
ATOM     24  C   UNL     1       7.364  -4.919  23.281  0.00  0.00    +0.280 C 
ATOM     25  C   UNL     1       6.980  -3.482  22.909  0.00  0.00    +0.201 C 
ATOM     26  C   UNL     1       7.128  -2.577  24.136  0.00  0.00    +0.180 C 
BRANCH  22  27
ATOM     27  C   UNL     1       8.466  -4.635  26.353  0.00  0.00    +0.337 C 
ATOM     28  O   UNL     1       8.109  -3.878  27.242  0.00  0.00    -0.248 OA
BRANCH  27  29
ATOM     29  O   UNL     1       8.501  -5.973  26.520  0.00  0.00    -0.479 OA
ATOM     30  H   UNL     1       8.923  -6.213  27.375  0.00  0.00    +0.295 HD
ENDBRANCH  27  29
ENDBRANCH  22  27
BRANCH  24  31
ATOM     31  O   UNL     1       6.430  -5.473  24.195  0.00  0.00    -0.365 OA
ATOM     32  H   UNL     1       6.569  -6.441  24.177  0.00  0.00    +0.213 HD
ENDBRANCH  24  31
BRANCH  25  33
ATOM     33  O   UNL     1       7.779  -3.005  21.823  0.00  0.00    -0.384 OA
ATOM     34  H   UNL     1       7.335  -3.250  20.984  0.00  0.00    +0.210 HD
ENDBRANCH  25  33
BRANCH  26  35
ATOM     35  O   UNL     1       6.138  -2.846  25.129  0.00  0.00    -0.386 OA
ATOM     36  H   UNL     1       5.960  -2.043  25.659  0.00  0.00    +0.210 HD
ENDBRANCH  26  35
ENDBRANCH  20  21
ENDBRANCH   7  20
TORSDOF 11
ENDMDL
MODEL 4
REMARK VINA RESULT:      -7.0      2.384      3.477
REMARK  Name = 
REMARK  12 active torsions:
REMARK  status: ('A' for Active; 'I' for Inactive)
REMARK    1  A    between atoms: C_1  and  C_2
REMARK    2  A    between atoms: C_2  and  C_37
REMARK    3  A    between atoms: C_8  and  O_10
REMARK    4  A    between atoms: O_10  and  C_11
REMARK    5  A    between atoms: C_13  and  O_15
REMARK    6  A    between atoms: C_16  and  O_18
REMARK    7  A    between atoms: C_19  and  O_21
REMARK    8  A    between atoms: C_23  and  C_25
REMARK    9  A    between atoms: C_25  and  O_26
REMARK   10  A    between atoms: C_28  and  O_30
REMARK   11  A    between atoms: C_31  and  O_33
REMARK   12  A    between atoms: C_37  and  O_38
REMARK                            x       y       z     vdW  Elec       q    Type
REMARK                         _______ _______ _______ _____ _____    ______ ____
ROOT
ATOM      1  C   UNL     1       5.279  -6.279  26.505  0.00  0.00    +0.087 C 
ATOM      2  C   UNL     1       6.202  -5.111  26.144  0.00  0.00    +0.268 C 
ATOM      3  O   UNL     1       6.072  -4.935  24.725  0.00  0.00    -0.331 OA
ATOM      4  C   UNL     1       6.742  -3.748  24.279  0.00  0.00    +0.184 C 
ATOM      5  C   UNL     1       6.174  -2.524  24.991  0.00  0.00    +0.178 C 
ATOM      6  O   UNL     1       6.837  -1.332  24.580  0.00  0.00    -0.340 OA
ATOM      7  C   UNL     1       6.671  -1.072  23.178  0.00  0.00    +0.282 C 
ATOM      8  C   UNL     1       7.229  -2.248  22.334  0.00  0.00    +0.201 C 
ATOM      9  C   UNL     1       6.331  -2.764  26.487  0.00  0.00    +0.198 C 
ATOM     10  C   UNL     1       6.568  -3.568  22.768  0.00  0.00    +0.179 C 
ATOM     11  O   UNL     1       5.690  -3.984  26.853  0.00  0.00    -0.337 OA
ENDROOT
BRANCH   2  12
ATOM     12  C   UNL     1       7.646  -5.583  26.535  0.00  0.00    +0.365 C 
ATOM     13  O   UNL     1       8.623  -5.555  25.803  0.00  0.00    -0.245 OA
BRANCH  12  14
ATOM     14  O   UNL     1       7.709  -6.059  27.812  0.00  0.00    -0.477 OA
ATOM     15  H   UNL     1       8.266  -5.481  28.382  0.00  0.00    +0.295 HD
ENDBRANCH  12  14
ENDBRANCH   2  12
BRANCH   8  16
ATOM     16  O   UNL     1       8.653  -2.357  22.491  0.00  0.00    -0.384 OA
ATOM     17  H   UNL     1       8.863  -2.210  23.434  0.00  0.00    +0.210 HD
ENDBRANCH   8  16
BRANCH  10  18
ATOM     18  O   UNL     1       7.127  -4.701  22.092  0.00  0.00    -0.386 OA
ATOM     19  H   UNL     1       7.970  -4.927  22.523  0.00  0.00    +0.210 HD
ENDBRANCH  10  18
BRANCH   7  20
ATOM     20  O   UNL     1       7.348   0.166  22.932  0.00  0.00    -0.340 OA
BRANCH  20  21
ATOM     21  C   UNL     1       8.120   0.737  24.007  0.00  0.00    +0.192 C 
ATOM     22  C   UNL     1       8.012   2.273  23.848  0.00  0.00    +0.260 C 
ATOM     23  O   UNL     1       8.815   2.807  22.791  0.00  0.00    -0.332 OA
ATOM     24  C   UNL     1      10.168   2.375  22.737  0.00  0.00    +0.280 C 
ATOM     25  C   UNL     1      10.319   0.850  22.760  0.00  0.00    +0.201 C 
ATOM     26  C   UNL     1       9.589   0.280  23.980  0.00  0.00    +0.180 C 
BRANCH  22  27
ATOM     27  C   UNL     1       8.110   2.969  25.215  0.00  0.00    +0.337 C 
ATOM     28  O   UNL     1       8.452   4.132  25.359  0.00  0.00    -0.248 OA
BRANCH  27  29
ATOM     29  O   UNL     1       7.804   2.176  26.262  0.00  0.00    -0.479 OA
ATOM     30  H   UNL     1       7.307   2.673  26.950  0.00  0.00    +0.295 HD
ENDBRANCH  27  29
ENDBRANCH  22  27
BRANCH  24  31
ATOM     31  O   UNL     1      10.862   2.970  23.823  0.00  0.00    -0.365 OA
ATOM     32  H   UNL     1      11.255   3.796  23.480  0.00  0.00    +0.213 HD
ENDBRANCH  24  31
BRANCH  25  33
ATOM     33  O   UNL     1       9.823   0.270  21.551  0.00  0.00    -0.384 OA
ATOM     34  H   UNL     1       9.474   0.991  20.985  0.00  0.00    +0.210 HD
ENDBRANCH  25  33
BRANCH  26  35
ATOM     35  O   UNL     1      10.244   0.610  25.205  0.00  0.00    -0.386 OA
ATOM     36  H   UNL     1      10.987   1.224  25.039  0.00  0.00    +0.210 HD
ENDBRANCH  26  35
ENDBRANCH  20  21
ENDBRANCH   7  20
TORSDOF 11
ENDMDL
MODEL 5
REMARK VINA RESULT:      -6.9      0.964      1.858
REMARK  Name = 
REMARK  12 active torsions:
REMARK  status: ('A' for Active; 'I' for Inactive)
REMARK    1  A    between atoms: C_1  and  C_2
REMARK    2  A    between atoms: C_2  and  C_37
REMARK    3  A    between atoms: C_8  and  O_10
REMARK    4  A    between atoms: O_10  and  C_11
REMARK    5  A    between atoms: C_13  and  O_15
REMARK    6  A    between atoms: C_16  and  O_18
REMARK    7  A    between atoms: C_19  and  O_21
REMARK    8  A    between atoms: C_23  and  C_25
REMARK    9  A    between atoms: C_25  and  O_26
REMARK   10  A    between atoms: C_28  and  O_30
REMARK   11  A    between atoms: C_31  and  O_33
REMARK   12  A    between atoms: C_37  and  O_38
REMARK                            x       y       z     vdW  Elec       q    Type
REMARK                         _______ _______ _______ _____ _____    ______ ____
ROOT
ATOM      1  C   UNL     1       1.405  -5.908  23.005  0.00  0.00    +0.087 C 
ATOM      2  C   UNL     1       2.747  -5.594  23.674  0.00  0.00    +0.268 C 
ATOM      3  O   UNL     1       3.717  -5.583  22.614  0.00  0.00    -0.331 OA
ATOM      4  C   UNL     1       4.992  -5.114  23.075  0.00  0.00    +0.184 C 
ATOM      5  C   UNL     1       4.859  -3.706  23.649  0.00  0.00    +0.178 C 
ATOM      6  O   UNL     1       6.110  -3.225  24.132  0.00  0.00    -0.340 OA
ATOM      7  C   UNL     1       7.093  -3.123  23.091  0.00  0.00    +0.282 C 
ATOM      8  C   UNL     1       7.334  -4.505  22.429  0.00  0.00    +0.201 C 
ATOM      9  C   UNL     1       3.819  -3.774  24.760  0.00  0.00    +0.198 C 
ATOM     10  C   UNL     1       6.001  -5.087  21.924  0.00  0.00    +0.179 C 
ATOM     11  O   UNL     1       2.595  -4.298  24.248  0.00  0.00    -0.337 OA
ENDROOT
BRANCH   2  12
ATOM     12  C   UNL     1       3.003  -6.775  24.675  0.00  0.00    +0.365 C 
ATOM     13  O   UNL     1       2.875  -6.715  25.888  0.00  0.00    -0.245 OA
BRANCH  12  14
ATOM     14  O   UNL     1       3.409  -7.913  24.042  0.00  0.00    -0.477 OA
ATOM     15  H   UNL     1       3.019  -7.978  23.140  0.00  0.00    +0.295 HD
ENDBRANCH  12  14
ENDBRANCH   2  12
BRANCH   8  16
ATOM     16  O   UNL     1       7.925  -5.422  23.365  0.00  0.00    -0.384 OA
ATOM     17  H   UNL     1       8.492  -4.907  23.971  0.00  0.00    +0.210 HD
ENDBRANCH   8  16
BRANCH  10  18
ATOM     18  O   UNL     1       6.153  -6.412  21.399  0.00  0.00    -0.386 OA
ATOM     19  H   UNL     1       5.817  -7.041  22.061  0.00  0.00    +0.210 HD
ENDBRANCH  10  18
BRANCH   7  20
ATOM     20  O   UNL     1       8.266  -2.590  23.718  0.00  0.00    -0.340 OA
BRANCH  20  21
ATOM     21  C   UNL     1       8.230  -1.216  24.154  0.00  0.00    +0.192 C 
ATOM     22  C   UNL     1       7.491  -0.430  23.044  0.00  0.00    +0.260 C 
ATOM     23  O   UNL     1       8.280  -0.192  21.875  0.00  0.00    -0.332 OA
ATOM     24  C   UNL     1       9.591   0.315  22.081  0.00  0.00    +0.280 C 
ATOM     25  C   UNL     1      10.411  -0.512  23.079  0.00  0.00    +0.201 C 
ATOM     26  C   UNL     1       9.637  -0.642  24.395  0.00  0.00    +0.180 C 
BRANCH  22  27
ATOM     27  C   UNL     1       6.746   0.777  23.638  0.00  0.00    +0.337 C 
ATOM     28  O   UNL     1       6.574   0.944  24.835  0.00  0.00    -0.248 OA
BRANCH  27  29
ATOM     29  O   UNL     1       6.270   1.640  22.717  0.00  0.00    -0.479 OA
ATOM     30  H   UNL     1       6.938   2.327  22.496  0.00  0.00    +0.295 HD
ENDBRANCH  27  29
ENDBRANCH  22  27
BRANCH  24  31
ATOM     31  O   UNL     1       9.477   1.663  22.512  0.00  0.00    -0.365 OA
ATOM     32  H   UNL     1       9.986   1.729  23.345  0.00  0.00    +0.213 HD
ENDBRANCH  24  31
BRANCH  25  33
ATOM     33  O   UNL     1      10.721  -1.800  22.540  0.00  0.00    -0.384 OA
ATOM     34  H   UNL     1      10.982  -2.388  23.281  0.00  0.00    +0.210 HD
ENDBRANCH  25  33
BRANCH  26  35
ATOM     35  O   UNL     1       9.564   0.596  25.104  0.00  0.00    -0.386 OA
ATOM     36  H   UNL     1       8.642   0.927  25.115  0.00  0.00    +0.210 HD
ENDBRANCH  26  35
ENDBRANCH  20  21
ENDBRANCH   7  20
TORSDOF 11
ENDMDL
MODEL 6
REMARK VINA RESULT:      -6.9      1.531      7.714
REMARK  Name = 
REMARK  12 active torsions:
REMARK  status: ('A' for Active; 'I' for Inactive)
REMARK    1  A    between atoms: C_1  and  C_2
REMARK    2  A    between atoms: C_2  and  C_37
REMARK    3  A    between atoms: C_8  and  O_10
REMARK    4  A    between atoms: O_10  and  C_11
REMARK    5  A    between atoms: C_13  and  O_15
REMARK    6  A    between atoms: C_16  and  O_18
REMARK    7  A    between atoms: C_19  and  O_21
REMARK    8  A    between atoms: C_23  and  C_25
REMARK    9  A    between atoms: C_25  and  O_26
REMARK   10  A    between atoms: C_28  and  O_30
REMARK   11  A    between atoms: C_31  and  O_33
REMARK   12  A    between atoms: C_37  and  O_38
REMARK                            x       y       z     vdW  Elec       q    Type
REMARK                         _______ _______ _______ _____ _____    ______ ____
ROOT
ATOM      1  C   UNL     1       9.997   1.851  21.868  0.00  0.00    +0.087 C 
ATOM      2  C   UNL     1       9.712   0.739  22.883  0.00  0.00    +0.268 C 
ATOM      3  O   UNL     1       8.284   0.709  23.036  0.00  0.00    -0.331 OA
ATOM      4  C   UNL     1       7.864  -0.417  23.819  0.00  0.00    +0.184 C 
ATOM      5  C   UNL     1       8.326  -1.716  23.164  0.00  0.00    +0.178 C 
ATOM      6  O   UNL     1       7.938  -2.850  23.934  0.00  0.00    -0.340 OA
ATOM      7  C   UNL     1       6.512  -2.966  24.051  0.00  0.00    +0.282 C 
ATOM      8  C   UNL     1       5.913  -1.702  24.723  0.00  0.00    +0.201 C 
ATOM      9  C   UNL     1       9.841  -1.629  23.021  0.00  0.00    +0.198 C 
ATOM     10  C   UNL     1       6.338  -0.442  23.947  0.00  0.00    +0.179 C 
ATOM     11  O   UNL     1      10.192  -0.461  22.281  0.00  0.00    -0.337 OA
ENDROOT
BRANCH   2  12
ATOM     12  C   UNL     1      10.423   1.188  24.207  0.00  0.00    +0.365 C 
ATOM     13  O   UNL     1      11.440   0.694  24.667  0.00  0.00    -0.245 OA
BRANCH  12  14
ATOM     14  O   UNL     1       9.767   2.211  24.827  0.00  0.00    -0.477 OA
ATOM     15  H   UNL     1      10.263   3.057  24.739  0.00  0.00    +0.295 HD
ENDBRANCH  12  14
ENDBRANCH   2  12
BRANCH   8  16
ATOM     16  O   UNL     1       6.358  -1.591  26.085  0.00  0.00    -0.384 OA
ATOM     17  H   UNL     1       6.100  -0.708  26.414  0.00  0.00    +0.210 HD
ENDBRANCH   8  16
BRANCH  10  18
ATOM     18  O   UNL     1       5.899   0.761  24.588  0.00  0.00    -0.386 OA
ATOM     19  H   UNL     1       5.792   0.578  25.538  0.00  0.00    +0.210 HD
ENDBRANCH  10  18
BRANCH   7  20
ATOM     20  O   UNL     1       6.283  -4.163  24.804  0.00  0.00    -0.340 OA
BRANCH  20  21
ATOM     21  C   UNL     1       6.001  -5.374  24.075  0.00  0.00    +0.192 C 
ATOM     22  C   UNL     1       5.578  -4.933  22.653  0.00  0.00    +0.260 C 
ATOM     23  O   UNL     1       4.252  -4.404  22.577  0.00  0.00    -0.332 OA
ATOM     24  C   UNL     1       3.227  -5.158  23.210  0.00  0.00    +0.280 C 
ATOM     25  C   UNL     1       3.545  -5.508  24.669  0.00  0.00    +0.201 C 
ATOM     26  C   UNL     1       4.901  -6.217  24.743  0.00  0.00    +0.180 C 
BRANCH  22  27
ATOM     27  C   UNL     1       5.961  -6.002  21.616  0.00  0.00    +0.337 C 
ATOM     28  O   UNL     1       5.607  -5.968  20.448  0.00  0.00    -0.248 OA
BRANCH  27  29
ATOM     29  O   UNL     1       6.712  -7.008  22.110  0.00  0.00    -0.479 OA
ATOM     30  H   UNL     1       7.461  -6.661  22.644  0.00  0.00    +0.295 HD
ENDBRANCH  27  29
ENDBRANCH  22  27
BRANCH  24  31
ATOM     31  O   UNL     1       3.008  -6.332  22.443  0.00  0.00    -0.365 OA
ATOM     32  H   UNL     1       3.811  -6.458  21.898  0.00  0.00    +0.213 HD
ENDBRANCH  24  31
BRANCH  25  33
ATOM     33  O   UNL     1       3.536  -4.336  25.488  0.00  0.00    -0.384 OA
ATOM     34  H   UNL     1       3.321  -4.605  26.407  0.00  0.00    +0.210 HD
ENDBRANCH  25  33
BRANCH  26  35
ATOM     35  O   UNL     1       4.856  -7.529  24.179  0.00  0.00    -0.386 OA
ATOM     36  H   UNL     1       4.465  -8.160  24.817  0.00  0.00    +0.210 HD
ENDBRANCH  26  35
ENDBRANCH  20  21
ENDBRANCH   7  20
TORSDOF 11
ENDMDL
MODEL 7
REMARK VINA RESULT:      -6.9      1.760      7.941
REMARK  Name = 
REMARK  12 active torsions:
REMARK  status: ('A' for Active; 'I' for Inactive)
REMARK    1  A    between atoms: C_1  and  C_2
REMARK    2  A    between atoms: C_2  and  C_37
REMARK    3  A    between atoms: C_8  and  O_10
REMARK    4  A    between atoms: O_10  and  C_11
REMARK    5  A    between atoms: C_13  and  O_15
REMARK    6  A    between atoms: C_16  and  O_18
REMARK    7  A    between atoms: C_19  and  O_21
REMARK    8  A    between atoms: C_23  and  C_25
REMARK    9  A    between atoms: C_25  and  O_26
REMARK   10  A    between atoms: C_28  and  O_30
REMARK   11  A    between atoms: C_31  and  O_33
REMARK   12  A    between atoms: C_37  and  O_38
REMARK                            x       y       z     vdW  Elec       q    Type
REMARK                         _______ _______ _______ _____ _____    ______ ____
ROOT
ATOM      1  C   UNL     1      10.569   1.628  24.097  0.00  0.00    +0.087 C 
ATOM      2  C   UNL     1       9.476   0.698  23.558  0.00  0.00    +0.268 C 
ATOM      3  O   UNL     1       9.742  -0.589  24.137  0.00  0.00    -0.331 OA
ATOM      4  C   UNL     1       8.681  -1.516  23.864  0.00  0.00    +0.184 C 
ATOM      5  C   UNL     1       7.362  -0.981  24.413  0.00  0.00    +0.178 C 
ATOM      6  O   UNL     1       6.287  -1.875  24.137  0.00  0.00    -0.340 OA
ATOM      7  C   UNL     1       6.471  -3.155  24.760  0.00  0.00    +0.282 C 
ATOM      8  C   UNL     1       7.784  -3.819  24.269  0.00  0.00    +0.201 C 
ATOM      9  C   UNL     1       7.133   0.383  23.774  0.00  0.00    +0.198 C 
ATOM     10  C   UNL     1       8.974  -2.873  24.510  0.00  0.00    +0.179 C 
ATOM     11  O   UNL     1       8.245   1.235  24.037  0.00  0.00    -0.337 OA
ENDROOT
BRANCH   2  12
ATOM     12  C   UNL     1       9.672   0.682  22.002  0.00  0.00    +0.365 C 
ATOM     13  O   UNL     1       9.747  -0.320  21.308  0.00  0.00    -0.245 OA
BRANCH  12  14
ATOM     14  O   UNL     1       9.767   1.937  21.477  0.00  0.00    -0.477 OA
ATOM     15  H   UNL     1       8.880   2.356  21.389  0.00  0.00    +0.295 HD
ENDBRANCH  12  14
ENDBRANCH   2  12
BRANCH   8  16
ATOM     16  O   UNL     1       7.705  -4.131  22.868  0.00  0.00    -0.384 OA
ATOM     17  H   UNL     1       8.264  -3.491  22.386  0.00  0.00    +0.210 HD
ENDBRANCH   8  16
BRANCH  10  18
ATOM     18  O   UNL     1      10.198  -3.394  23.977  0.00  0.00    -0.386 OA
ATOM     19  H   UNL     1      10.396  -4.231  24.434  0.00  0.00    +0.210 HD
ENDBRANCH  10  18
BRANCH   7  20
ATOM     20  O   UNL     1       5.302  -3.916  24.431  0.00  0.00    -0.340 OA
BRANCH  20  21
ATOM     21  C   UNL     1       4.543  -4.487  25.515  0.00  0.00    +0.192 C 
ATOM     22  C   UNL     1       5.274  -5.791  25.914  0.00  0.00    +0.260 C 
ATOM     23  O   UNL     1       5.070  -6.876  25.004  0.00  0.00    -0.332 OA
ATOM     24  C   UNL     1       3.729  -7.135  24.611  0.00  0.00    +0.280 C 
ATOM     25  C   UNL     1       3.001  -5.893  24.083  0.00  0.00    +0.201 C 
ATOM     26  C   UNL     1       3.082  -4.770  25.121  0.00  0.00    +0.180 C 
BRANCH  22  27
ATOM     27  C   UNL     1       5.075  -6.090  27.409  0.00  0.00    +0.337 C 
ATOM     28  O   UNL     1       4.741  -5.249  28.228  0.00  0.00    -0.248 OA
BRANCH  27  29
ATOM     29  O   UNL     1       5.323  -7.370  27.754  0.00  0.00    -0.479 OA
ATOM     30  H   UNL     1       6.245  -7.478  28.077  0.00  0.00    +0.295 HD
ENDBRANCH  27  29
ENDBRANCH  22  27
BRANCH  24  31
ATOM     31  O   UNL     1       3.045  -7.688  25.725  0.00  0.00    -0.365 OA
ATOM     32  H   UNL     1       2.094  -7.680  25.496  0.00  0.00    +0.213 HD
ENDBRANCH  24  31
BRANCH  25  33
ATOM     33  O   UNL     1       3.552  -5.472  22.832  0.00  0.00    -0.384 OA
ATOM     34  H   UNL     1       3.788  -6.272  22.316  0.00  0.00    +0.210 HD
ENDBRANCH  25  33
BRANCH  26  35
ATOM     35  O   UNL     1       2.291  -5.045  26.278  0.00  0.00    -0.386 OA
ATOM     36  H   UNL     1       1.665  -4.311  26.445  0.00  0.00    +0.210 HD
ENDBRANCH  26  35
ENDBRANCH  20  21
ENDBRANCH   7  20
TORSDOF 11
ENDMDL
MODEL 8
REMARK VINA RESULT:      -6.8      2.621      3.969
REMARK  Name = 
REMARK  12 active torsions:
REMARK  status: ('A' for Active; 'I' for Inactive)
REMARK    1  A    between atoms: C_1  and  C_2
REMARK    2  A    between atoms: C_2  and  C_37
REMARK    3  A    between atoms: C_8  and  O_10
REMARK    4  A    between atoms: O_10  and  C_11
REMARK    5  A    between atoms: C_13  and  O_15
REMARK    6  A    between atoms: C_16  and  O_18
REMARK    7  A    between atoms: C_19  and  O_21
REMARK    8  A    between atoms: C_23  and  C_25
REMARK    9  A    between atoms: C_25  and  O_26
REMARK   10  A    between atoms: C_28  and  O_30
REMARK   11  A    between atoms: C_31  and  O_33
REMARK   12  A    between atoms: C_37  and  O_38
REMARK                            x       y       z     vdW  Elec       q    Type
REMARK                         _______ _______ _______ _____ _____    ______ ____
ROOT
ATOM      1  C   UNL     1       5.485  -6.388  25.622  0.00  0.00    +0.087 C 
ATOM      2  C   UNL     1       6.002  -5.003  26.023  0.00  0.00    +0.268 C 
ATOM      3  O   UNL     1       6.954  -4.636  25.011  0.00  0.00    -0.331 OA
ATOM      4  C   UNL     1       7.379  -3.274  25.161  0.00  0.00    +0.184 C 
ATOM      5  C   UNL     1       6.178  -2.336  25.085  0.00  0.00    +0.178 C 
ATOM      6  O   UNL     1       6.573  -0.977  25.251  0.00  0.00    -0.340 OA
ATOM      7  C   UNL     1       7.467  -0.539  24.217  0.00  0.00    +0.282 C 
ATOM      8  C   UNL     1       8.749  -1.412  24.198  0.00  0.00    +0.201 C 
ATOM      9  C   UNL     1       5.202  -2.772  26.171  0.00  0.00    +0.198 C 
ATOM     10  C   UNL     1       8.373  -2.898  24.058  0.00  0.00    +0.179 C 
ATOM     11  O   UNL     1       4.863  -4.146  25.995  0.00  0.00    -0.337 OA
ENDROOT
BRANCH   2  12
ATOM     12  C   UNL     1       6.693  -5.201  27.417  0.00  0.00    +0.365 C 
ATOM     13  O   UNL     1       6.216  -4.882  28.495  0.00  0.00    -0.245 OA
BRANCH  12  14
ATOM     14  O   UNL     1       7.927  -5.773  27.309  0.00  0.00    -0.477 OA
ATOM     15  H   UNL     1       8.623  -5.192  27.693  0.00  0.00    +0.295 HD
ENDBRANCH  12  14
ENDBRANCH   2  12
BRANCH   8  16
ATOM     16  O   UNL     1       9.509  -1.228  25.404  0.00  0.00    -0.384 OA
ATOM     17  H   UNL     1       8.880  -1.068  26.133  0.00  0.00    +0.210 HD
ENDBRANCH   8  16
BRANCH  10  18
ATOM     18  O   UNL     1       9.517  -3.757  24.142  0.00  0.00    -0.386 OA
ATOM     19  H   UNL     1       9.373  -4.513  23.547  0.00  0.00    +0.210 HD
ENDBRANCH  10  18
BRANCH   7  20
ATOM     20  O   UNL     1       7.732   0.841  24.495  0.00  0.00    -0.340 OA
BRANCH  20  21
ATOM     21  C   UNL     1       8.544   1.573  23.555  0.00  0.00    +0.192 C 
ATOM     22  C   UNL     1       8.730   2.987  24.155  0.00  0.00    +0.260 C 
ATOM     23  O   UNL     1       7.577   3.826  24.040  0.00  0.00    -0.332 OA
ATOM     24  C   UNL     1       6.957   3.885  22.763  0.00  0.00    +0.280 C 
ATOM     25  C   UNL     1       6.631   2.504  22.182  0.00  0.00    +0.201 C 
ATOM     26  C   UNL     1       7.900   1.645  22.159  0.00  0.00    +0.180 C 
BRANCH  22  27
ATOM     27  C   UNL     1      10.076   3.589  23.719  0.00  0.00    +0.337 C 
ATOM     28  O   UNL     1      11.047   2.919  23.404  0.00  0.00    -0.248 OA
BRANCH  27  29
ATOM     29  O   UNL     1      10.107   4.938  23.731  0.00  0.00    -0.479 OA
ATOM     30  H   UNL     1       9.803   5.291  24.597  0.00  0.00    +0.295 HD
ENDBRANCH  27  29
ENDBRANCH  22  27
BRANCH  24  31
ATOM     31  O   UNL     1       7.811   4.612  21.893  0.00  0.00    -0.365 OA
ATOM     32  H   UNL     1       7.576   4.338  20.984  0.00  0.00    +0.213 HD
ENDBRANCH  24  31
BRANCH  25  33
ATOM     33  O   UNL     1       5.597   1.865  22.935  0.00  0.00    -0.384 OA
ATOM     34  H   UNL     1       4.753   2.330  22.754  0.00  0.00    +0.210 HD
ENDBRANCH  25  33
BRANCH  26  35
ATOM     35  O   UNL     1       8.845   2.103  21.190  0.00  0.00    -0.386 OA
ATOM     36  H   UNL     1       9.014   1.405  20.524  0.00  0.00    +0.210 HD
ENDBRANCH  26  35
ENDBRANCH  20  21
ENDBRANCH   7  20
TORSDOF 11
ENDMDL
MODEL 9
REMARK VINA RESULT:      -6.8      1.719      2.289
REMARK  Name = 
REMARK  12 active torsions:
REMARK  status: ('A' for Active; 'I' for Inactive)
REMARK    1  A    between atoms: C_1  and  C_2
REMARK    2  A    between atoms: C_2  and  C_37
REMARK    3  A    between atoms: C_8  and  O_10
REMARK    4  A    between atoms: O_10  and  C_11
REMARK    5  A    between atoms: C_13  and  O_15
REMARK    6  A    between atoms: C_16  and  O_18
REMARK    7  A    between atoms: C_19  and  O_21
REMARK    8  A    between atoms: C_23  and  C_25
REMARK    9  A    between atoms: C_25  and  O_26
REMARK   10  A    between atoms: C_28  and  O_30
REMARK   11  A    between atoms: C_31  and  O_33
REMARK   12  A    between atoms: C_37  and  O_38
REMARK                            x       y       z     vdW  Elec       q    Type
REMARK                         _______ _______ _______ _____ _____    ______ ____
ROOT
ATOM      1  C   UNL     1       3.354  -6.709  23.906  0.00  0.00    +0.087 C 
ATOM      2  C   UNL     1       4.119  -5.408  24.170  0.00  0.00    +0.268 C 
ATOM      3  O   UNL     1       5.386  -5.806  24.717  0.00  0.00    -0.331 OA
ATOM      4  C   UNL     1       6.279  -4.690  24.836  0.00  0.00    +0.184 C 
ATOM      5  C   UNL     1       6.502  -4.045  23.471  0.00  0.00    +0.178 C 
ATOM      6  O   UNL     1       7.371  -2.921  23.566  0.00  0.00    -0.340 OA
ATOM      7  C   UNL     1       8.678  -3.282  24.036  0.00  0.00    +0.282 C 
ATOM      8  C   UNL     1       8.592  -3.942  25.438  0.00  0.00    +0.201 C 
ATOM      9  C   UNL     1       5.131  -3.649  22.937  0.00  0.00    +0.198 C 
ATOM     10  C   UNL     1       7.631  -5.143  25.396  0.00  0.00    +0.179 C 
ATOM     11  O   UNL     1       4.277  -4.791  22.895  0.00  0.00    -0.337 OA
ENDROOT
BRANCH   2  12
ATOM     12  C   UNL     1       3.259  -4.624  25.223  0.00  0.00    +0.365 C 
ATOM     13  O   UNL     1       2.632  -3.600  25.003  0.00  0.00    -0.245 OA
BRANCH  12  14
ATOM     14  O   UNL     1       3.291  -5.206  26.456  0.00  0.00    -0.477 OA
ATOM     15  H   UNL     1       4.217  -5.358  26.755  0.00  0.00    +0.295 HD
ENDBRANCH  12  14
ENDBRANCH   2  12
BRANCH   8  16
ATOM     16  O   UNL     1       8.128  -2.998  26.417  0.00  0.00    -0.384 OA
ATOM     17  H   UNL     1       7.534  -3.471  27.032  0.00  0.00    +0.210 HD
ENDBRANCH   8  16
BRANCH  10  18
ATOM     18  O   UNL     1       7.434  -5.723  26.691  0.00  0.00    -0.386 OA
ATOM     19  H   UNL     1       6.920  -5.096  27.230  0.00  0.00    +0.210 HD
ENDBRANCH  10  18
BRANCH   7  20
ATOM     20  O   UNL     1       9.438  -2.067  24.034  0.00  0.00    -0.340 OA
BRANCH  20  21
ATOM     21  C   UNL     1       8.857  -0.911  23.400  0.00  0.00    +0.192 C 
ATOM     22  C   UNL     1      10.040  -0.083  22.843  0.00  0.00    +0.260 C 
ATOM     23  O   UNL     1      10.765   0.643  23.840  0.00  0.00    -0.332 OA
ATOM     24  C   UNL     1       9.994   1.401  24.763  0.00  0.00    +0.280 C 
ATOM     25  C   UNL     1       8.887   0.586  25.442  0.00  0.00    +0.201 C 
ATOM     26  C   UNL     1       8.008  -0.075  24.375  0.00  0.00    +0.180 C 
BRANCH  22  27
ATOM     27  C   UNL     1       9.615   0.695  21.587  0.00  0.00    +0.337 C 
ATOM     28  O   UNL     1       8.862   0.248  20.737  0.00  0.00    -0.248 OA
BRANCH  27  29
ATOM     29  O   UNL     1      10.166   1.922  21.485  0.00  0.00    -0.479 OA
ATOM     30  H   UNL     1       9.735   2.556  22.101  0.00  0.00    +0.295 HD
ENDBRANCH  27  29
ENDBRANCH  22  27
BRANCH  24  31
ATOM     31  O   UNL     1       9.452   2.515  24.071  0.00  0.00    -0.365 OA
ATOM     32  H   UNL     1       8.645   2.776  24.558  0.00  0.00    +0.213 HD
ENDBRANCH  24  31
BRANCH  25  33
ATOM     33  O   UNL     1       9.442  -0.394  26.323  0.00  0.00    -0.384 OA
ATOM     34  H   UNL     1       9.912  -1.063  25.782  0.00  0.00    +0.210 HD
ENDBRANCH  25  33
BRANCH  26  35
ATOM     35  O   UNL     1       7.213   0.876  23.665  0.00  0.00    -0.386 OA
ATOM     36  H   UNL     1       6.286   0.569  23.609  0.00  0.00    +0.210 HD
ENDBRANCH  26  35
ENDBRANCH  20  21
ENDBRANCH   7  20
TORSDOF 11
ENDMDL
