MODEL 1
REMARK VINA RESULT:      -8.2      0.000      0.000
REMARK  Name = 
REMARK  4 active torsions:
REMARK  status: ('A' for Active; 'I' for Inactive)
REMARK    1  A    between atoms: O_1  and  C_2
REMARK    2  A    between atoms: C_5  and  C_8
REMARK    3  A    between atoms: C_8  and  C_18
REMARK    4  A    between atoms: C_21  and  O_22
REMARK                            x       y       z     vdW  Elec       q    Type
REMARK                         _______ _______ _______ _____ _____    ______ ____
ROOT
ATOM      1  C   UNL     1       7.903  -4.067  25.140  0.00  0.00    +0.124 C 
ATOM      2  C   UNL     1       6.804  -4.244  26.197  0.00  0.00    -0.003 A 
ATOM      3  C   UNL     1       7.181  -5.210  27.130  0.00  0.00    +0.038 A 
ATOM      4  C   UNL     1       6.405  -5.529  28.227  0.00  0.00    +0.023 A 
ATOM      5  C   UNL     1       5.215  -4.820  28.402  0.00  0.00    +0.002 A 
ATOM      6  C   UNL     1       4.813  -3.850  27.469  0.00  0.00    +0.000 A 
ATOM      7  N   UNL     1       8.407  -5.754  26.798  0.00  0.00    -0.284 N 
ATOM      8  H   UNL     1       8.888  -6.482  27.306  0.00  0.00    +0.155 HD
ATOM      9  C   UNL     1       5.592  -3.579  26.341  0.00  0.00    +0.007 A 
ATOM     10  C   UNL     1       8.934  -5.167  25.652  0.00  0.00    +0.237 C 
ATOM     11  O   UNL     1       9.997  -5.502  25.145  0.00  0.00    -0.274 OA
ENDROOT
BRANCH   1  15
ATOM     12  C   UNL     1       9.731  -0.091  25.097  0.00  0.00    +0.117 A 
ATOM     13  C   UNL     1       8.948  -0.463  26.172  0.00  0.00    +0.046 A 
ATOM     14  C   UNL     1       8.403  -1.748  26.222  0.00  0.00    +0.009 A 
ATOM     15  C   UNL     1       8.610  -2.680  25.185  0.00  0.00    -0.024 A 
ATOM     16  C   UNL     1       9.447  -2.280  24.122  0.00  0.00    +0.009 A 
ATOM     17  C   UNL     1      10.005  -0.996  24.079  0.00  0.00    +0.046 A 
BRANCH  12  18
ATOM     18  O   UNL     1      10.212   1.183  25.078  0.00  0.00    -0.507 OA
ATOM     19  H   UNL     1      10.517   1.410  25.971  0.00  0.00    +0.292 HD
ENDBRANCH  12  18
ENDBRANCH   1  15
BRANCH   1  20
ATOM     20  C   UNL     1       7.349  -4.423  23.734  0.00  0.00    -0.024 A 
ATOM     21  C   UNL     1       7.636  -5.667  23.136  0.00  0.00    +0.009 A 
ATOM     22  C   UNL     1       7.133  -5.996  21.874  0.00  0.00    +0.046 A 
ATOM     23  C   UNL     1       6.356  -5.081  21.180  0.00  0.00    +0.117 A 
ATOM     24  C   UNL     1       6.088  -3.830  21.718  0.00  0.00    +0.046 A 
ATOM     25  C   UNL     1       6.588  -3.502  22.984  0.00  0.00    +0.009 A 
BRANCH  23  26
ATOM     26  O   UNL     1       5.868  -5.454  19.963  0.00  0.00    -0.507 OA
ATOM     27  H   UNL     1       6.015  -6.407  19.850  0.00  0.00    +0.292 HD
ENDBRANCH  23  26
ENDBRANCH   1  20
TORSDOF 4
ENDMDL
MODEL 2
REMARK VINA RESULT:      -6.9      1.814      2.406
REMARK  Name = 
REMARK  4 active torsions:
REMARK  status: ('A' for Active; 'I' for Inactive)
REMARK    1  A    between atoms: O_1  and  C_2
REMARK    2  A    between atoms: C_5  and  C_8
REMARK    3  A    between atoms: C_8  and  C_18
REMARK    4  A    between atoms: C_21  and  O_22
REMARK                            x       y       z     vdW  Elec       q    Type
REMARK                         _______ _______ _______ _____ _____    ______ ____
ROOT
ATOM      1  C   UNL     1       7.793  -2.792  23.949  0.00  0.00    +0.124 C 
ATOM      2  C   UNL     1       6.702  -2.501  24.990  0.00  0.00    -0.003 A 
ATOM      3  C   UNL     1       7.116  -2.920  26.254  0.00  0.00    +0.038 A 
ATOM      4  C   UNL     1       6.354  -2.727  27.389  0.00  0.00    +0.023 A 
ATOM      5  C   UNL     1       5.138  -2.057  27.242  0.00  0.00    +0.002 A 
ATOM      6  C   UNL     1       4.699  -1.637  25.976  0.00  0.00    +0.000 A 
ATOM      7  N   UNL     1       8.362  -3.514  26.186  0.00  0.00    -0.284 N 
ATOM      8  H   UNL     1       8.872  -3.911  26.961  0.00  0.00    +0.155 HD
ATOM      9  C   UNL     1       5.465  -1.886  24.836  0.00  0.00    +0.007 A 
ATOM     10  C   UNL     1       8.866  -3.499  24.889  0.00  0.00    +0.237 C 
ATOM     11  O   UNL     1       9.940  -3.993  24.572  0.00  0.00    -0.274 OA
ENDROOT
BRANCH   1  15
ATOM     12  C   UNL     1       9.447   0.801  22.076  0.00  0.00    +0.117 A 
ATOM     13  C   UNL     1       8.816   0.906  23.300  0.00  0.00    +0.046 A 
ATOM     14  C   UNL     1       8.331  -0.241  23.932  0.00  0.00    +0.009 A 
ATOM     15  C   UNL     1       8.446  -1.515  23.341  0.00  0.00    -0.024 A 
ATOM     16  C   UNL     1       9.130  -1.591  22.110  0.00  0.00    +0.009 A 
ATOM     17  C   UNL     1       9.629  -0.442  21.482  0.00  0.00    +0.046 A 
BRANCH  12  18
ATOM     18  O   UNL     1       9.872   1.952  21.484  0.00  0.00    -0.507 OA
ATOM     19  H   UNL     1      10.653   2.273  21.963  0.00  0.00    +0.292 HD
ENDBRANCH  12  18
ENDBRANCH   1  15
BRANCH   1  20
ATOM     20  C   UNL     1       7.252  -3.770  22.873  0.00  0.00    -0.024 A 
ATOM     21  C   UNL     1       6.382  -3.322  21.857  0.00  0.00    +0.009 A 
ATOM     22  C   UNL     1       5.898  -4.196  20.880  0.00  0.00    +0.046 A 
ATOM     23  C   UNL     1       6.257  -5.535  20.913  0.00  0.00    +0.117 A 
ATOM     24  C   UNL     1       7.077  -6.023  21.922  0.00  0.00    +0.046 A 
ATOM     25  C   UNL     1       7.565  -5.146  22.899  0.00  0.00    +0.009 A 
BRANCH  23  26
ATOM     26  O   UNL     1       5.780  -6.346  19.926  0.00  0.00    -0.507 OA
ATOM     27  H   UNL     1       4.957  -6.758  20.236  0.00  0.00    +0.292 HD
ENDBRANCH  23  26
ENDBRANCH   1  20
TORSDOF 4
ENDMDL
MODEL 3
REMARK VINA RESULT:      -6.8      2.660      5.167
REMARK  Name = 
REMARK  4 active torsions:
REMARK  status: ('A' for Active; 'I' for Inactive)
REMARK    1  A    between atoms: O_1  and  C_2
REMARK    2  A    between atoms: C_5  and  C_8
REMARK    3  A    between atoms: C_8  and  C_18
REMARK    4  A    between atoms: C_21  and  O_22
REMARK                            x       y       z     vdW  Elec       q    Type
REMARK                         _______ _______ _______ _____ _____    ______ ____
ROOT
ATOM      1  C   UNL     1       7.330  -2.532  23.947  0.00  0.00    +0.124 C 
ATOM      2  C   UNL     1       6.990  -3.608  22.906  0.00  0.00    -0.003 A 
ATOM      3  C   UNL     1       7.672  -4.790  23.193  0.00  0.00    +0.038 A 
ATOM      4  C   UNL     1       7.507  -5.944  22.453  0.00  0.00    +0.023 A 
ATOM      5  C   UNL     1       6.593  -5.907  21.398  0.00  0.00    +0.002 A 
ATOM      6  C   UNL     1       5.904  -4.723  21.087  0.00  0.00    +0.000 A 
ATOM      7  N   UNL     1       8.485  -4.627  24.299  0.00  0.00    -0.284 N 
ATOM      8  H   UNL     1       9.090  -5.329  24.697  0.00  0.00    +0.155 HD
ATOM      9  C   UNL     1       6.124  -3.555  21.821  0.00  0.00    +0.007 A 
ATOM     10  C   UNL     1       8.373  -3.346  24.831  0.00  0.00    +0.237 C 
ATOM     11  O   UNL     1       9.017  -2.953  25.796  0.00  0.00    -0.274 OA
ENDROOT
BRANCH   1  15
ATOM     12  C   UNL     1       4.018  -1.587  26.649  0.00  0.00    +0.117 A 
ATOM     13  C   UNL     1       5.141  -0.782  26.648  0.00  0.00    +0.046 A 
ATOM     14  C   UNL     1       6.181  -1.042  25.753  0.00  0.00    +0.009 A 
ATOM     15  C   UNL     1       6.131  -2.128  24.857  0.00  0.00    -0.024 A 
ATOM     16  C   UNL     1       4.953  -2.906  24.857  0.00  0.00    +0.009 A 
ATOM     17  C   UNL     1       3.904  -2.636  25.745  0.00  0.00    +0.046 A 
BRANCH  12  18
ATOM     18  O   UNL     1       3.047  -1.313  27.563  0.00  0.00    -0.507 OA
ATOM     19  H   UNL     1       3.473  -1.053  28.395  0.00  0.00    +0.292 HD
ENDBRANCH  12  18
ENDBRANCH   1  15
BRANCH   1  20
ATOM     20  C   UNL     1       8.003  -1.317  23.254  0.00  0.00    -0.024 A 
ATOM     21  C   UNL     1       7.264  -0.156  22.946  0.00  0.00    +0.009 A 
ATOM     22  C   UNL     1       7.866   0.944  22.329  0.00  0.00    +0.046 A 
ATOM     23  C   UNL     1       9.210   0.895  21.990  0.00  0.00    +0.117 A 
ATOM     24  C   UNL     1       9.960  -0.246  22.238  0.00  0.00    +0.046 A 
ATOM     25  C   UNL     1       9.358  -1.347  22.860  0.00  0.00    +0.009 A 
BRANCH  23  26
ATOM     26  O   UNL     1       9.761   2.000  21.412  0.00  0.00    -0.507 OA
ATOM     27  H   UNL     1       9.045   2.605  21.158  0.00  0.00    +0.292 HD
ENDBRANCH  23  26
ENDBRANCH   1  20
TORSDOF 4
ENDMDL
MODEL 4
REMARK VINA RESULT:      -6.8      5.742      7.987
REMARK  Name = 
REMARK  4 active torsions:
REMARK  status: ('A' for Active; 'I' for Inactive)
REMARK    1  A    between atoms: O_1  and  C_2
REMARK    2  A    between atoms: C_5  and  C_8
REMARK    3  A    between atoms: C_8  and  C_18
REMARK    4  A    between atoms: C_21  and  O_22
REMARK                            x       y       z     vdW  Elec       q    Type
REMARK                         _______ _______ _______ _____ _____    ______ ____
ROOT
ATOM      1  C   UNL     1       8.696   2.690  23.506  0.00  0.00    +0.124 C 
ATOM      2  C   UNL     1       9.205   1.272  23.211  0.00  0.00    -0.003 A 
ATOM      3  C   UNL     1       8.869   0.898  21.910  0.00  0.00    +0.038 A 
ATOM      4  C   UNL     1       9.254  -0.308  21.359  0.00  0.00    +0.023 A 
ATOM      5  C   UNL     1      10.036  -1.156  22.146  0.00  0.00    +0.002 A 
ATOM      6  C   UNL     1      10.376  -0.802  23.462  0.00  0.00    +0.000 A 
ATOM      7  N   UNL     1       8.138   1.894  21.291  0.00  0.00    -0.284 N 
ATOM      8  H   UNL     1       7.765   1.859  20.354  0.00  0.00    +0.155 HD
ATOM      9  C   UNL     1       9.934   0.403  24.014  0.00  0.00    +0.007 A 
ATOM     10  C   UNL     1       7.970   2.997  22.123  0.00  0.00    +0.237 C 
ATOM     11  O   UNL     1       7.333   3.994  21.808  0.00  0.00    -0.274 OA
ENDROOT
BRANCH   1  15
ATOM     12  C   UNL     1      11.880   5.676  23.824  0.00  0.00    +0.117 A 
ATOM     13  C   UNL     1      10.598   6.010  24.216  0.00  0.00    +0.046 A 
ATOM     14  C   UNL     1       9.586   5.049  24.169  0.00  0.00    +0.009 A 
ATOM     15  C   UNL     1       9.828   3.741  23.705  0.00  0.00    -0.024 A 
ATOM     16  C   UNL     1      11.157   3.423  23.350  0.00  0.00    +0.009 A 
ATOM     17  C   UNL     1      12.176   4.383  23.410  0.00  0.00    +0.046 A 
BRANCH  12  18
ATOM     18  O   UNL     1      12.825   6.656  23.855  0.00  0.00    -0.507 OA
ATOM     19  H   UNL     1      13.583   6.336  24.370  0.00  0.00    +0.292 HD
ENDBRANCH  12  18
ENDBRANCH   1  15
BRANCH   1  20
ATOM     20  C   UNL     1       7.683   2.657  24.681  0.00  0.00    -0.024 A 
ATOM     21  C   UNL     1       6.496   1.900  24.594  0.00  0.00    +0.009 A 
ATOM     22  C   UNL     1       5.584   1.860  25.652  0.00  0.00    +0.046 A 
ATOM     23  C   UNL     1       5.829   2.590  26.804  0.00  0.00    +0.117 A 
ATOM     24  C   UNL     1       6.966   3.382  26.910  0.00  0.00    +0.046 A 
ATOM     25  C   UNL     1       7.882   3.419  25.852  0.00  0.00    +0.009 A 
BRANCH  23  26
ATOM     26  O   UNL     1       4.924   2.502  27.819  0.00  0.00    -0.507 OA
ATOM     27  H   UNL     1       4.063   2.253  27.444  0.00  0.00    +0.292 HD
ENDBRANCH  23  26
ENDBRANCH   1  20
TORSDOF 4
ENDMDL
MODEL 5
REMARK VINA RESULT:      -6.7      2.008      5.112
REMARK  Name = 
REMARK  4 active torsions:
REMARK  status: ('A' for Active; 'I' for Inactive)
REMARK    1  A    between atoms: O_1  and  C_2
REMARK    2  A    between atoms: C_5  and  C_8
REMARK    3  A    between atoms: C_8  and  C_18
REMARK    4  A    between atoms: C_21  and  O_22
REMARK                            x       y       z     vdW  Elec       q    Type
REMARK                         _______ _______ _______ _____ _____    ______ ____
ROOT
ATOM      1  C   UNL     1       7.230  -4.261  25.448  0.00  0.00    +0.124 C 
ATOM      2  C   UNL     1       7.071  -2.797  25.882  0.00  0.00    -0.003 A 
ATOM      3  C   UNL     1       8.307  -2.264  26.246  0.00  0.00    +0.038 A 
ATOM      4  C   UNL     1       8.468  -0.945  26.623  0.00  0.00    +0.023 A 
ATOM      5  C   UNL     1       7.336  -0.127  26.602  0.00  0.00    +0.002 A 
ATOM      6  C   UNL     1       6.080  -0.648  26.249  0.00  0.00    +0.000 A 
ATOM      7  N   UNL     1       9.298  -3.223  26.153  0.00  0.00    -0.284 N 
ATOM      8  H   UNL     1      10.273  -3.090  26.375  0.00  0.00    +0.155 HD
ATOM      9  C   UNL     1       5.935  -1.997  25.918  0.00  0.00    +0.007 A 
ATOM     10  C   UNL     1       8.793  -4.436  25.695  0.00  0.00    +0.237 C 
ATOM     11  O   UNL     1       9.473  -5.445  25.557  0.00  0.00    -0.274 OA
ENDROOT
BRANCH   1  15
ATOM     12  C   UNL     1       6.297  -5.149  21.265  0.00  0.00    +0.117 A 
ATOM     13  C   UNL     1       5.696  -4.066  21.877  0.00  0.00    +0.046 A 
ATOM     14  C   UNL     1       6.026  -3.741  23.194  0.00  0.00    +0.009 A 
ATOM     15  C   UNL     1       6.946  -4.508  23.936  0.00  0.00    -0.024 A 
ATOM     16  C   UNL     1       7.571  -5.583  23.268  0.00  0.00    +0.009 A 
ATOM     17  C   UNL     1       7.250  -5.900  21.941  0.00  0.00    +0.046 A 
BRANCH  12  18
ATOM     18  O   UNL     1       5.916  -5.445  19.991  0.00  0.00    -0.507 OA
ATOM     19  H   UNL     1       6.541  -5.024  19.378  0.00  0.00    +0.292 HD
ENDBRANCH  12  18
ENDBRANCH   1  15
BRANCH   1  20
ATOM     20  C   UNL     1       6.404  -5.185  26.381  0.00  0.00    -0.024 A 
ATOM     21  C   UNL     1       6.719  -5.301  27.751  0.00  0.00    +0.009 A 
ATOM     22  C   UNL     1       5.973  -6.125  28.598  0.00  0.00    +0.046 A 
ATOM     23  C   UNL     1       4.916  -6.863  28.089  0.00  0.00    +0.117 A 
ATOM     24  C   UNL     1       4.602  -6.808  26.738  0.00  0.00    +0.046 A 
ATOM     25  C   UNL     1       5.346  -5.979  25.889  0.00  0.00    +0.009 A 
BRANCH  23  26
ATOM     26  O   UNL     1       4.202  -7.635  28.957  0.00  0.00    -0.507 OA
ATOM     27  H   UNL     1       3.648  -8.245  28.443  0.00  0.00    +0.292 HD
ENDBRANCH  23  26
ENDBRANCH   1  20
TORSDOF 4
ENDMDL
MODEL 6
REMARK VINA RESULT:      -6.6      2.255      6.008
REMARK  Name = 
REMARK  4 active torsions:
REMARK  status: ('A' for Active; 'I' for Inactive)
REMARK    1  A    between atoms: O_1  and  C_2
REMARK    2  A    between atoms: C_5  and  C_8
REMARK    3  A    between atoms: C_8  and  C_18
REMARK    4  A    between atoms: C_21  and  O_22
REMARK                            x       y       z     vdW  Elec       q    Type
REMARK                         _______ _______ _______ _____ _____    ______ ____
ROOT
ATOM      1  C   UNL     1       7.007  -4.073  25.794  0.00  0.00    +0.124 C 
ATOM      2  C   UNL     1       6.573  -4.067  24.322  0.00  0.00    -0.003 A 
ATOM      3  C   UNL     1       7.536  -4.692  23.531  0.00  0.00    +0.038 A 
ATOM      4  C   UNL     1       7.377  -4.880  22.172  0.00  0.00    +0.023 A 
ATOM      5  C   UNL     1       6.181  -4.444  21.598  0.00  0.00    +0.002 A 
ATOM      6  C   UNL     1       5.203  -3.803  22.375  0.00  0.00    +0.000 A 
ATOM      7  N   UNL     1       8.614  -5.088  24.299  0.00  0.00    -0.284 N 
ATOM      8  H   UNL     1       9.446  -5.549  23.959  0.00  0.00    +0.155 HD
ATOM      9  C   UNL     1       5.409  -3.581  23.739  0.00  0.00    +0.007 A 
ATOM     10  C   UNL     1       8.424  -4.783  25.643  0.00  0.00    +0.237 C 
ATOM     11  O   UNL     1       9.254  -5.010  26.515  0.00  0.00    -0.274 OA
ENDROOT
BRANCH   1  15
ATOM     12  C   UNL     1       4.663  -6.744  28.348  0.00  0.00    +0.117 A 
ATOM     13  C   UNL     1       5.386  -5.719  28.926  0.00  0.00    +0.046 A 
ATOM     14  C   UNL     1       6.095  -4.828  28.117  0.00  0.00    +0.009 A 
ATOM     15  C   UNL     1       6.116  -4.959  26.715  0.00  0.00    -0.024 A 
ATOM     16  C   UNL     1       5.335  -5.994  26.156  0.00  0.00    +0.009 A 
ATOM     17  C   UNL     1       4.612  -6.879  26.966  0.00  0.00    +0.046 A 
BRANCH  12  18
ATOM     18  O   UNL     1       4.016  -7.607  29.181  0.00  0.00    -0.507 OA
ATOM     19  H   UNL     1       3.126  -7.764  28.829  0.00  0.00    +0.292 HD
ENDBRANCH  12  18
ENDBRANCH   1  15
BRANCH   1  20
ATOM     20  C   UNL     1       7.156  -2.617  26.310  0.00  0.00    -0.024 A 
ATOM     21  C   UNL     1       8.423  -2.005  26.396  0.00  0.00    +0.009 A 
ATOM     22  C   UNL     1       8.563  -0.691  26.852  0.00  0.00    +0.046 A 
ATOM     23  C   UNL     1       7.445   0.024  27.251  0.00  0.00    +0.117 A 
ATOM     24  C   UNL     1       6.185  -0.559  27.221  0.00  0.00    +0.046 A 
ATOM     25  C   UNL     1       6.044  -1.874  26.761  0.00  0.00    +0.009 A 
BRANCH  23  26
ATOM     26  O   UNL     1       7.626   1.310  27.666  0.00  0.00    -0.507 OA
ATOM     27  H   UNL     1       7.377   1.369  28.603  0.00  0.00    +0.292 HD
ENDBRANCH  23  26
ENDBRANCH   1  20
TORSDOF 4
ENDMDL
MODEL 7
REMARK VINA RESULT:      -6.6      5.303      8.730
REMARK  Name = 
REMARK  4 active torsions:
REMARK  status: ('A' for Active; 'I' for Inactive)
REMARK    1  A    between atoms: O_1  and  C_2
REMARK    2  A    between atoms: C_5  and  C_8
REMARK    3  A    between atoms: C_8  and  C_18
REMARK    4  A    between atoms: C_21  and  O_22
REMARK                            x       y       z     vdW  Elec       q    Type
REMARK                         _______ _______ _______ _____ _____    ______ ____
ROOT
ATOM      1  C   UNL     1       8.443   2.925  23.762  0.00  0.00    +0.124 C 
ATOM      2  C   UNL     1       8.832   1.606  23.079  0.00  0.00    -0.003 A 
ATOM      3  C   UNL     1       8.698   0.542  23.972  0.00  0.00    +0.038 A 
ATOM      4  C   UNL     1       8.925  -0.769  23.606  0.00  0.00    +0.023 A 
ATOM      5  C   UNL     1       9.273  -1.016  22.276  0.00  0.00    +0.002 A 
ATOM      6  C   UNL     1       9.423   0.042  21.365  0.00  0.00    +0.000 A 
ATOM      7  N   UNL     1       8.301   0.997  25.215  0.00  0.00    -0.284 N 
ATOM      8  H   UNL     1       8.150   0.427  26.033  0.00  0.00    +0.155 HD
ATOM      9  C   UNL     1       9.235   1.365  21.772  0.00  0.00    +0.007 A 
ATOM     10  C   UNL     1       8.117   2.377  25.220  0.00  0.00    +0.237 C 
ATOM     11  O   UNL     1       7.794   3.015  26.214  0.00  0.00    -0.274 OA
ENDROOT
BRANCH   1  15
ATOM     12  C   UNL     1       4.714   4.750  22.375  0.00  0.00    +0.117 A 
ATOM     13  C   UNL     1       5.843   5.534  22.504  0.00  0.00    +0.046 A 
ATOM     14  C   UNL     1       7.052   4.953  22.895  0.00  0.00    +0.009 A 
ATOM     15  C   UNL     1       7.150   3.578  23.188  0.00  0.00    -0.024 A 
ATOM     16  C   UNL     1       5.987   2.800  23.008  0.00  0.00    +0.009 A 
ATOM     17  C   UNL     1       4.778   3.380  22.603  0.00  0.00    +0.046 A 
BRANCH  12  18
ATOM     18  O   UNL     1       3.552   5.369  22.025  0.00  0.00    -0.507 OA
ATOM     19  H   UNL     1       2.980   5.413  22.807  0.00  0.00    +0.292 HD
ENDBRANCH  12  18
ENDBRANCH   1  15
BRANCH   1  20
ATOM     20  C   UNL     1       9.656   3.892  23.779  0.00  0.00    -0.024 A 
ATOM     21  C   UNL     1      10.925   3.471  23.332  0.00  0.00    +0.009 A 
ATOM     22  C   UNL     1      12.020   4.339  23.338  0.00  0.00    +0.046 A 
ATOM     23  C   UNL     1      11.872   5.634  23.810  0.00  0.00    +0.117 A 
ATOM     24  C   UNL     1      10.649   6.073  24.298  0.00  0.00    +0.046 A 
ATOM     25  C   UNL     1       9.551   5.204  24.289  0.00  0.00    +0.009 A 
BRANCH  23  26
ATOM     26  O   UNL     1      12.961   6.453  23.774  0.00  0.00    -0.507 OA
ATOM     27  H   UNL     1      12.663   7.369  23.901  0.00  0.00    +0.292 HD
ENDBRANCH  23  26
ENDBRANCH   1  20
TORSDOF 4
ENDMDL
MODEL 8
REMARK VINA RESULT:      -6.5      1.868      5.212
REMARK  Name = 
REMARK  4 active torsions:
REMARK  status: ('A' for Active; 'I' for Inactive)
REMARK    1  A    between atoms: O_1  and  C_2
REMARK    2  A    between atoms: C_5  and  C_8
REMARK    3  A    between atoms: C_8  and  C_18
REMARK    4  A    between atoms: C_21  and  O_22
REMARK                            x       y       z     vdW  Elec       q    Type
REMARK                         _______ _______ _______ _____ _____    ______ ____
ROOT
ATOM      1  C   UNL     1       7.837  -3.438  24.982  0.00  0.00    +0.124 C 
ATOM      2  C   UNL     1       7.281  -3.902  23.628  0.00  0.00    -0.003 A 
ATOM      3  C   UNL     1       7.750  -5.180  23.326  0.00  0.00    +0.038 A 
ATOM      4  C   UNL     1       7.360  -5.867  22.193  0.00  0.00    +0.023 A 
ATOM      5  C   UNL     1       6.437  -5.247  21.349  0.00  0.00    +0.002 A 
ATOM      6  C   UNL     1       5.960  -3.957  21.631  0.00  0.00    +0.000 A 
ATOM      7  N   UNL     1       8.612  -5.628  24.309  0.00  0.00    -0.284 N 
ATOM      8  H   UNL     1       9.094  -6.514  24.314  0.00  0.00    +0.155 HD
ATOM      9  C   UNL     1       6.406  -3.262  22.759  0.00  0.00    +0.007 A 
ATOM     10  C   UNL     1       8.745  -4.697  25.335  0.00  0.00    +0.237 C 
ATOM     11  O   UNL     1       9.477  -4.855  26.304  0.00  0.00    -0.274 OA
ENDROOT
BRANCH   1  15
ATOM     12  C   UNL     1       4.633  -3.082  27.942  0.00  0.00    +0.117 A 
ATOM     13  C   UNL     1       5.486  -4.167  27.997  0.00  0.00    +0.046 A 
ATOM     14  C   UNL     1       6.545  -4.263  27.090  0.00  0.00    +0.009 A 
ATOM     15  C   UNL     1       6.757  -3.290  26.095  0.00  0.00    -0.024 A 
ATOM     16  C   UNL     1       5.890  -2.176  26.093  0.00  0.00    +0.009 A 
ATOM     17  C   UNL     1       4.837  -2.071  27.011  0.00  0.00    +0.046 A 
BRANCH  12  18
ATOM     18  O   UNL     1       3.596  -3.050  28.825  0.00  0.00    -0.507 OA
ATOM     19  H   UNL     1       2.852  -2.587  28.408  0.00  0.00    +0.292 HD
ENDBRANCH  12  18
ENDBRANCH   1  15
BRANCH   1  20
ATOM     20  C   UNL     1       8.695  -2.158  24.793  0.00  0.00    -0.024 A 
ATOM     21  C   UNL     1       9.437  -1.951  23.612  0.00  0.00    +0.009 A 
ATOM     22  C   UNL     1      10.205  -0.797  23.432  0.00  0.00    +0.046 A 
ATOM     23  C   UNL     1      10.262   0.158  24.435  0.00  0.00    +0.117 A 
ATOM     24  C   UNL     1       9.579  -0.030  25.630  0.00  0.00    +0.046 A 
ATOM     25  C   UNL     1       8.806  -1.185  25.808  0.00  0.00    +0.009 A 
BRANCH  23  26
ATOM     26  O   UNL     1      11.004   1.278  24.207  0.00  0.00    -0.507 OA
ATOM     27  H   UNL     1      11.933   1.080  24.411  0.00  0.00    +0.292 HD
ENDBRANCH  23  26
ENDBRANCH   1  20
TORSDOF 4
ENDMDL
MODEL 9
REMARK VINA RESULT:      -6.4      4.597      8.139
REMARK  Name = 
REMARK  4 active torsions:
REMARK  status: ('A' for Active; 'I' for Inactive)
REMARK    1  A    between atoms: O_1  and  C_2
REMARK    2  A    between atoms: C_5  and  C_8
REMARK    3  A    between atoms: C_8  and  C_18
REMARK    4  A    between atoms: C_21  and  O_22
REMARK                            x       y       z     vdW  Elec       q    Type
REMARK                         _______ _______ _______ _____ _____    ______ ____
ROOT
ATOM      1  C   UNL     1       8.530   2.449  23.662  0.00  0.00    +0.124 C 
ATOM      2  C   UNL     1       7.487   2.761  24.744  0.00  0.00    -0.003 A 
ATOM      3  C   UNL     1       6.239   2.984  24.163  0.00  0.00    +0.038 A 
ATOM      4  C   UNL     1       5.103   3.229  24.908  0.00  0.00    +0.023 A 
ATOM      5  C   UNL     1       5.230   3.219  26.299  0.00  0.00    +0.002 A 
ATOM      6  C   UNL     1       6.480   3.006  26.903  0.00  0.00    +0.000 A 
ATOM      7  N   UNL     1       6.323   2.905  22.786  0.00  0.00    -0.284 N 
ATOM      8  H   UNL     1       5.562   3.042  22.137  0.00  0.00    +0.155 HD
ATOM      9  C   UNL     1       7.624   2.808  26.126  0.00  0.00    +0.007 A 
ATOM     10  C   UNL     1       7.614   2.595  22.369  0.00  0.00    +0.237 C 
ATOM     11  O   UNL     1       7.943   2.499  21.193  0.00  0.00    -0.274 OA
ENDROOT
BRANCH   1  15
ATOM     12  C   UNL     1       9.832  -1.729  23.771  0.00  0.00    +0.117 A 
ATOM     13  C   UNL     1      10.074  -0.974  22.640  0.00  0.00    +0.046 A 
ATOM     14  C   UNL     1       9.711   0.374  22.614  0.00  0.00    +0.009 A 
ATOM     15  C   UNL     1       9.075   0.990  23.710  0.00  0.00    -0.024 A 
ATOM     16  C   UNL     1       8.879   0.201  24.863  0.00  0.00    +0.009 A 
ATOM     17  C   UNL     1       9.255  -1.148  24.895  0.00  0.00    +0.046 A 
BRANCH  12  18
ATOM     18  O   UNL     1      10.172  -3.047  23.736  0.00  0.00    -0.507 OA
ATOM     19  H   UNL     1      11.118  -3.125  23.939  0.00  0.00    +0.292 HD
ENDBRANCH  12  18
ENDBRANCH   1  15
BRANCH   1  20
ATOM     20  C   UNL     1       9.654   3.519  23.683  0.00  0.00    -0.024 A 
ATOM     21  C   UNL     1      10.982   3.182  23.351  0.00  0.00    +0.009 A 
ATOM     22  C   UNL     1      11.997   4.143  23.360  0.00  0.00    +0.046 A 
ATOM     23  C   UNL     1      11.707   5.450  23.721  0.00  0.00    +0.117 A 
ATOM     24  C   UNL     1      10.420   5.811  24.096  0.00  0.00    +0.046 A 
ATOM     25  C   UNL     1       9.403   4.848  24.083  0.00  0.00    +0.009 A 
BRANCH  23  26
ATOM     26  O   UNL     1      12.724   6.358  23.693  0.00  0.00    -0.507 OA
ATOM     27  H   UNL     1      13.523   5.938  24.048  0.00  0.00    +0.292 HD
ENDBRANCH  23  26
ENDBRANCH   1  20
TORSDOF 4
ENDMDL
