MODEL 1
REMARK VINA RESULT:      -5.3      0.000      0.000
REMARK  Name = 
REMARK  3 active torsions:
REMARK  status: ('A' for Active; 'I' for Inactive)
REMARK    1  A    between atoms: C_2  and  N_12
REMARK    2  A    between atoms: C_10  and  O_11
REMARK    3  A    between atoms: C_13  and  C_14
REMARK                            x       y       z     vdW  Elec       q    Type
REMARK                         _______ _______ _______ _____ _____    ______ ____
ROOT
ATOM      1  C   UNL     1       8.392  -1.363  23.526  0.00  0.00    +0.136 C 
ATOM      2  C   UNL     1       8.733   0.083  23.730  0.00  0.00    -0.017 A 
ATOM      3  C   UNL     1       8.428   0.875  24.828  0.00  0.00    +0.006 A 
ATOM      4  C   UNL     1       8.817   2.217  24.813  0.00  0.00    +0.004 A 
ATOM      5  C   UNL     1       9.502   2.748  23.710  0.00  0.00    +0.046 A 
ATOM      6  C   UNL     1       9.802   1.936  22.618  0.00  0.00    +0.120 A 
ATOM      7  C   UNL     1       9.411   0.609  22.631  0.00  0.00    -0.001 A 
ATOM      8  C   UNL     1       9.643  -0.422  21.575  0.00  0.00    +0.041 C 
ATOM      9  C   UNL     1       8.911  -1.666  22.104  0.00  0.00    +0.036 C 
ENDROOT
BRANCH   1  10
ATOM     10  N   UNL     1       8.917  -2.296  24.531  0.00  0.00    -0.284 NA
ATOM     11  C   UNL     1       8.997  -3.536  24.203  0.00  0.00    +0.105 C 
BRANCH  11  12
ATOM     12  C   UNL     1       9.500  -4.537  25.164  0.00  0.00    +0.012 C 
ATOM     13  C   UNL     1       8.985  -4.610  26.396  0.00  0.00    +0.010 C 
ENDBRANCH  11  12
ENDBRANCH   1  10
BRANCH   6  14
ATOM     14  O   UNL     1      10.470   2.417  21.533  0.00  0.00    -0.506 OA
ATOM     15  H   UNL     1      11.257   2.895  21.845  0.00  0.00    +0.292 HD
ENDBRANCH   6  14
TORSDOF 3
ENDMDL
MODEL 2
REMARK VINA RESULT:      -5.3      2.224      3.303
REMARK  Name = 
REMARK  3 active torsions:
REMARK  status: ('A' for Active; 'I' for Inactive)
REMARK    1  A    between atoms: C_2  and  N_12
REMARK    2  A    between atoms: C_10  and  O_11
REMARK    3  A    between atoms: C_13  and  C_14
REMARK                            x       y       z     vdW  Elec       q    Type
REMARK                         _______ _______ _______ _____ _____    ______ ____
ROOT
ATOM      1  C   UNL     1       8.919  -3.039  23.703  0.00  0.00    +0.136 C 
ATOM      2  C   UNL     1       9.225  -1.647  23.236  0.00  0.00    -0.017 A 
ATOM      3  C   UNL     1       9.532  -1.238  21.945  0.00  0.00    +0.006 A 
ATOM      4  C   UNL     1       9.812   0.112  21.721  0.00  0.00    +0.004 A 
ATOM      5  C   UNL     1       9.780   1.032  22.779  0.00  0.00    +0.046 A 
ATOM      6  C   UNL     1       9.467   0.602  24.067  0.00  0.00    +0.120 A 
ATOM      7  C   UNL     1       9.196  -0.735  24.290  0.00  0.00    -0.001 A 
ATOM      8  C   UNL     1       8.832  -1.390  25.583  0.00  0.00    +0.041 C 
ATOM      9  C   UNL     1       8.741  -2.884  25.228  0.00  0.00    +0.036 C 
ENDROOT
BRANCH   1  10
ATOM     10  N   UNL     1       7.771  -3.695  23.064  0.00  0.00    -0.284 NA
ATOM     11  C   UNL     1       7.637  -4.960  23.242  0.00  0.00    +0.105 C 
BRANCH  11  12
ATOM     12  C   UNL     1       6.517  -5.693  22.620  0.00  0.00    +0.012 C 
ATOM     13  C   UNL     1       6.432  -5.794  21.289  0.00  0.00    +0.010 C 
ENDBRANCH  11  12
ENDBRANCH   1  10
BRANCH   6  14
ATOM     14  O   UNL     1       9.422   1.469  25.117  0.00  0.00    -0.506 OA
ATOM     15  H   UNL     1       9.987   2.232  24.909  0.00  0.00    +0.292 HD
ENDBRANCH   6  14
TORSDOF 3
ENDMDL
MODEL 3
REMARK VINA RESULT:      -5.2      2.048      2.912
REMARK  Name = 
REMARK  3 active torsions:
REMARK  status: ('A' for Active; 'I' for Inactive)
REMARK    1  A    between atoms: C_2  and  N_12
REMARK    2  A    between atoms: C_10  and  O_11
REMARK    3  A    between atoms: C_13  and  C_14
REMARK                            x       y       z     vdW  Elec       q    Type
REMARK                         _______ _______ _______ _____ _____    ______ ____
ROOT
ATOM      1  C   UNL     1       9.421  -1.887  23.326  0.00  0.00    +0.136 C 
ATOM      2  C   UNL     1       9.496  -0.406  23.103  0.00  0.00    -0.017 A 
ATOM      3  C   UNL     1       9.886   0.255  21.946  0.00  0.00    +0.006 A 
ATOM      4  C   UNL     1       9.911   1.651  21.950  0.00  0.00    +0.004 A 
ATOM      5  C   UNL     1       9.549   2.368  23.100  0.00  0.00    +0.046 A 
ATOM      6  C   UNL     1       9.158   1.687  24.251  0.00  0.00    +0.120 A 
ATOM      7  C   UNL     1       9.138   0.304  24.249  0.00  0.00    -0.001 A 
ATOM      8  C   UNL     1       8.743  -0.606  25.366  0.00  0.00    +0.041 C 
ATOM      9  C   UNL     1       9.009  -2.015  24.808  0.00  0.00    +0.036 C 
ENDROOT
BRANCH   1  10
ATOM     10  N   UNL     1       8.529  -2.629  22.425  0.00  0.00    -0.284 NA
ATOM     11  C   UNL     1       7.787  -3.540  22.945  0.00  0.00    +0.105 C 
BRANCH  11  12
ATOM     12  C   UNL     1       6.876  -4.339  22.103  0.00  0.00    +0.012 C 
ATOM     13  C   UNL     1       7.115  -5.638  21.892  0.00  0.00    +0.010 C 
ENDBRANCH  11  12
ENDBRANCH   1  10
BRANCH   6  14
ATOM     14  O   UNL     1       8.794   2.350  25.384  0.00  0.00    -0.506 OA
ATOM     15  H   UNL     1       8.327   3.162  25.127  0.00  0.00    +0.292 HD
ENDBRANCH   6  14
TORSDOF 3
ENDMDL
MODEL 4
REMARK VINA RESULT:      -5.1      4.965      6.262
REMARK  Name = 
REMARK  3 active torsions:
REMARK  status: ('A' for Active; 'I' for Inactive)
REMARK    1  A    between atoms: C_2  and  N_12
REMARK    2  A    between atoms: C_10  and  O_11
REMARK    3  A    between atoms: C_13  and  C_14
REMARK                            x       y       z     vdW  Elec       q    Type
REMARK                         _______ _______ _______ _____ _____    ______ ____
ROOT
ATOM      1  C   UNL     1       5.672  -4.307  22.374  0.00  0.00    +0.136 C 
ATOM      2  C   UNL     1       6.549  -4.137  23.578  0.00  0.00    -0.017 A 
ATOM      3  C   UNL     1       6.389  -3.230  24.617  0.00  0.00    +0.006 A 
ATOM      4  C   UNL     1       7.338  -3.213  25.643  0.00  0.00    +0.004 A 
ATOM      5  C   UNL     1       8.427  -4.097  25.621  0.00  0.00    +0.046 A 
ATOM      6  C   UNL     1       8.568  -5.002  24.570  0.00  0.00    +0.120 A 
ATOM      7  C   UNL     1       7.632  -5.014  23.552  0.00  0.00    -0.001 A 
ATOM      8  C   UNL     1       7.597  -5.905  22.354  0.00  0.00    +0.041 C 
ATOM      9  C   UNL     1       6.391  -5.395  21.548  0.00  0.00    +0.036 C 
ENDROOT
BRANCH   1  10
ATOM     10  N   UNL     1       4.267  -4.638  22.643  0.00  0.00    -0.284 NA
ATOM     11  C   UNL     1       4.004  -5.833  23.033  0.00  0.00    +0.105 C 
BRANCH  11  12
ATOM     12  C   UNL     1       2.614  -6.246  23.309  0.00  0.00    +0.012 C 
ATOM     13  C   UNL     1       1.616  -5.360  23.220  0.00  0.00    +0.010 C 
ENDBRANCH  11  12
ENDBRANCH   1  10
BRANCH   6  14
ATOM     14  O   UNL     1       9.610  -5.878  24.520  0.00  0.00    -0.506 OA
ATOM     15  H   UNL     1      10.254  -5.629  25.203  0.00  0.00    +0.292 HD
ENDBRANCH   6  14
TORSDOF 3
ENDMDL
MODEL 5
REMARK VINA RESULT:      -5.1      3.063      6.099
REMARK  Name = 
REMARK  3 active torsions:
REMARK  status: ('A' for Active; 'I' for Inactive)
REMARK    1  A    between atoms: C_2  and  N_12
REMARK    2  A    between atoms: C_10  and  O_11
REMARK    3  A    between atoms: C_13  and  C_14
REMARK                            x       y       z     vdW  Elec       q    Type
REMARK                         _______ _______ _______ _____ _____    ______ ____
ROOT
ATOM      1  C   UNL     1       9.471   3.185  23.410  0.00  0.00    +0.136 C 
ATOM      2  C   UNL     1       9.345   1.760  22.961  0.00  0.00    -0.017 A 
ATOM      3  C   UNL     1       9.774   1.212  21.760  0.00  0.00    +0.006 A 
ATOM      4  C   UNL     1       9.539  -0.144  21.521  0.00  0.00    +0.004 A 
ATOM      5  C   UNL     1       8.884  -0.933  22.478  0.00  0.00    +0.046 A 
ATOM      6  C   UNL     1       8.463  -0.366  23.679  0.00  0.00    +0.120 A 
ATOM      7  C   UNL     1       8.691   0.978  23.913  0.00  0.00    -0.001 A 
ATOM      8  C   UNL     1       8.331   1.768  25.129  0.00  0.00    +0.041 C 
ATOM      9  C   UNL     1       8.748   3.205  24.774  0.00  0.00    +0.036 C 
ENDROOT
BRANCH   1  10
ATOM     10  N   UNL     1      10.837   3.718  23.485  0.00  0.00    -0.284 NA
ATOM     11  C   UNL     1      10.969   4.987  23.634  0.00  0.00    +0.105 C 
BRANCH  11  12
ATOM     12  C   UNL     1      12.310   5.600  23.703  0.00  0.00    +0.012 C 
ATOM     13  C   UNL     1      13.200   5.389  22.727  0.00  0.00    +0.010 C 
ENDBRANCH  11  12
ENDBRANCH   1  10
BRANCH   6  14
ATOM     14  O   UNL     1       7.829  -1.103  24.633  0.00  0.00    -0.506 OA
ATOM     15  H   UNL     1       7.298  -0.503  25.182  0.00  0.00    +0.292 HD
ENDBRANCH   6  14
TORSDOF 3
ENDMDL
MODEL 6
REMARK VINA RESULT:      -5.0      3.046      5.847
REMARK  Name = 
REMARK  3 active torsions:
REMARK  status: ('A' for Active; 'I' for Inactive)
REMARK    1  A    between atoms: C_2  and  N_12
REMARK    2  A    between atoms: C_10  and  O_11
REMARK    3  A    between atoms: C_13  and  C_14
REMARK                            x       y       z     vdW  Elec       q    Type
REMARK                         _______ _______ _______ _____ _____    ______ ____
ROOT
ATOM      1  C   UNL     1       7.314  -1.505  23.908  0.00  0.00    +0.136 C 
ATOM      2  C   UNL     1       7.319  -2.915  23.396  0.00  0.00    -0.017 A 
ATOM      3  C   UNL     1       6.560  -3.439  22.359  0.00  0.00    +0.006 A 
ATOM      4  C   UNL     1       6.695  -4.795  22.050  0.00  0.00    +0.004 A 
ATOM      5  C   UNL     1       7.581  -5.606  22.774  0.00  0.00    +0.046 A 
ATOM      6  C   UNL     1       8.337  -5.060  23.810  0.00  0.00    +0.120 A 
ATOM      7  C   UNL     1       8.199  -3.720  24.119  0.00  0.00    -0.001 A 
ATOM      8  C   UNL     1       8.918  -2.947  25.176  0.00  0.00    +0.041 C 
ATOM      9  C   UNL     1       8.288  -1.546  25.105  0.00  0.00    +0.036 C 
ENDROOT
BRANCH   1  10
ATOM     10  N   UNL     1       7.660  -0.465  22.932  0.00  0.00    -0.284 NA
ATOM     11  C   UNL     1       8.859  -0.462  22.470  0.00  0.00    +0.105 C 
BRANCH  11  12
ATOM     12  C   UNL     1       9.287   0.562  21.497  0.00  0.00    +0.012 C 
ATOM     13  C   UNL     1       9.913   1.668  21.911  0.00  0.00    +0.010 C 
ENDBRANCH  11  12
ENDBRANCH   1  10
BRANCH   6  14
ATOM     14  O   UNL     1       9.211  -5.818  24.530  0.00  0.00    -0.506 OA
ATOM     15  H   UNL     1       9.772  -6.312  23.910  0.00  0.00    +0.292 HD
ENDBRANCH   6  14
TORSDOF 3
ENDMDL
MODEL 7
REMARK VINA RESULT:      -5.0      2.825      5.606
REMARK  Name = 
REMARK  3 active torsions:
REMARK  status: ('A' for Active; 'I' for Inactive)
REMARK    1  A    between atoms: C_2  and  N_12
REMARK    2  A    between atoms: C_10  and  O_11
REMARK    3  A    between atoms: C_13  and  C_14
REMARK                            x       y       z     vdW  Elec       q    Type
REMARK                         _______ _______ _______ _____ _____    ______ ____
ROOT
ATOM      1  C   UNL     1       9.631  -2.371  23.498  0.00  0.00    +0.136 C 
ATOM      2  C   UNL     1       8.801  -3.384  24.228  0.00  0.00    -0.017 A 
ATOM      3  C   UNL     1       9.129  -4.062  25.394  0.00  0.00    +0.006 A 
ATOM      4  C   UNL     1       8.221  -4.991  25.906  0.00  0.00    +0.004 A 
ATOM      5  C   UNL     1       7.003  -5.232  25.253  0.00  0.00    +0.046 A 
ATOM      6  C   UNL     1       6.690  -4.539  24.085  0.00  0.00    +0.120 A 
ATOM      7  C   UNL     1       7.592  -3.622  23.576  0.00  0.00    -0.001 A 
ATOM      8  C   UNL     1       7.443  -2.777  22.353  0.00  0.00    +0.041 C 
ATOM      9  C   UNL     1       8.787  -2.037  22.249  0.00  0.00    +0.036 C 
ENDROOT
BRANCH   1  10
ATOM     10  N   UNL     1      10.007  -1.174  24.262  0.00  0.00    -0.284 NA
ATOM     11  C   UNL     1      10.353  -0.131  23.597  0.00  0.00    +0.105 C 
BRANCH  11  12
ATOM     12  C   UNL     1      10.759   1.104  24.295  0.00  0.00    +0.012 C 
ATOM     13  C   UNL     1      10.548   2.299  23.731  0.00  0.00    +0.010 C 
ENDBRANCH  11  12
ENDBRANCH   1  10
BRANCH   6  14
ATOM     14  O   UNL     1       5.514  -4.743  23.428  0.00  0.00    -0.506 OA
ATOM     15  H   UNL     1       4.967  -3.946  23.524  0.00  0.00    +0.292 HD
ENDBRANCH   6  14
TORSDOF 3
ENDMDL
MODEL 8
REMARK VINA RESULT:      -4.9      2.451      5.123
REMARK  Name = 
REMARK  3 active torsions:
REMARK  status: ('A' for Active; 'I' for Inactive)
REMARK    1  A    between atoms: C_2  and  N_12
REMARK    2  A    between atoms: C_10  and  O_11
REMARK    3  A    between atoms: C_13  and  C_14
REMARK                            x       y       z     vdW  Elec       q    Type
REMARK                         _______ _______ _______ _____ _____    ______ ____
ROOT
ATOM      1  C   UNL     1       9.677   2.099  24.382  0.00  0.00    +0.136 C 
ATOM      2  C   UNL     1       9.624   0.604  24.267  0.00  0.00    -0.017 A 
ATOM      3  C   UNL     1       9.392  -0.312  25.284  0.00  0.00    +0.006 A 
ATOM      4  C   UNL     1       9.408  -1.674  24.972  0.00  0.00    +0.004 A 
ATOM      5  C   UNL     1       9.652  -2.102  23.659  0.00  0.00    +0.046 A 
ATOM      6  C   UNL     1       9.880  -1.166  22.652  0.00  0.00    +0.120 A 
ATOM      7  C   UNL     1       9.870   0.182  22.962  0.00  0.00    -0.001 A 
ATOM      8  C   UNL     1      10.080   1.334  22.034  0.00  0.00    +0.041 C 
ATOM      9  C   UNL     1      10.046   2.564  22.958  0.00  0.00    +0.036 C 
ENDROOT
BRANCH   1  10
ATOM     10  N   UNL     1       8.462   2.748  24.892  0.00  0.00    -0.284 NA
ATOM     11  C   UNL     1       7.652   3.248  24.029  0.00  0.00    +0.105 C 
BRANCH  11  12
ATOM     12  C   UNL     1       6.418   3.930  24.464  0.00  0.00    +0.012 C 
ATOM     13  C   UNL     1       5.755   4.731  23.623  0.00  0.00    +0.010 C 
ENDBRANCH  11  12
ENDBRANCH   1  10
BRANCH   6  14
ATOM     14  O   UNL     1      10.116  -1.546  21.365  0.00  0.00    -0.506 OA
ATOM     15  H   UNL     1      11.026  -1.297  21.133  0.00  0.00    +0.292 HD
ENDBRANCH   6  14
TORSDOF 3
ENDMDL
MODEL 9
REMARK VINA RESULT:      -4.9      2.565      5.534
REMARK  Name = 
REMARK  3 active torsions:
REMARK  status: ('A' for Active; 'I' for Inactive)
REMARK    1  A    between atoms: C_2  and  N_12
REMARK    2  A    between atoms: C_10  and  O_11
REMARK    3  A    between atoms: C_13  and  C_14
REMARK                            x       y       z     vdW  Elec       q    Type
REMARK                         _______ _______ _______ _____ _____    ______ ____
ROOT
ATOM      1  C   UNL     1      10.197   1.861  23.501  0.00  0.00    +0.136 C 
ATOM      2  C   UNL     1       9.602   0.568  23.972  0.00  0.00    -0.017 A 
ATOM      3  C   UNL     1       9.503   0.112  25.280  0.00  0.00    +0.006 A 
ATOM      4  C   UNL     1       8.933  -1.142  25.509  0.00  0.00    +0.004 A 
ATOM      5  C   UNL     1       8.471  -1.922  24.438  0.00  0.00    +0.046 A 
ATOM      6  C   UNL     1       8.578  -1.446  23.133  0.00  0.00    +0.120 A 
ATOM      7  C   UNL     1       9.147  -0.206  22.906  0.00  0.00    -0.001 A 
ATOM      8  C   UNL     1       9.342   0.483  21.595  0.00  0.00    +0.041 C 
ATOM      9  C   UNL     1      10.098   1.771  21.963  0.00  0.00    +0.036 C 
ENDROOT
BRANCH   1  10
ATOM     10  N   UNL     1       9.585   3.084  24.036  0.00  0.00    -0.284 NA
ATOM     11  C   UNL     1      10.162   4.201  23.770  0.00  0.00    +0.105 C 
BRANCH  11  12
ATOM     12  C   UNL     1       9.615   5.471  24.286  0.00  0.00    +0.012 C 
ATOM     13  C   UNL     1       9.148   6.397  23.443  0.00  0.00    +0.010 C 
ENDBRANCH  11  12
ENDBRANCH   1  10
BRANCH   6  14
ATOM     14  O   UNL     1       8.135  -2.174  22.070  0.00  0.00    -0.506 OA
ATOM     15  H   UNL     1       7.919  -1.561  21.347  0.00  0.00    +0.292 HD
ENDBRANCH   6  14
TORSDOF 3
ENDMDL
