MODEL 1
REMARK VINA RESULT:      -8.2      0.000      0.000
REMARK  Name = 
REMARK  0 active torsions:
REMARK  status: ('A' for Active; 'I' for Inactive)
REMARK                            x       y       z     vdW  Elec       q    Type
REMARK                         _______ _______ _______ _____ _____    ______ ____
ROOT
ATOM      1  C   UNL     1      10.109  -0.013  23.813  0.00  0.00    +0.222 C 
ATOM      2  N   UNL     1       8.765   0.121  24.386  0.00  0.00    -0.312 N 
ATOM      3  C   UNL     1       8.253   1.230  24.990  0.00  0.00    +0.077 A 
ATOM      4  C   UNL     1       8.443   2.552  24.607  0.00  0.00    +0.077 A 
ATOM      5  C   UNL     1       7.861   3.500  25.464  0.00  0.00    +0.023 A 
ATOM      6  C   UNL     1       7.220   3.345  26.719  0.00  0.00    +0.062 A 
ATOM      7  C   UNL     1       7.086   2.006  27.119  0.00  0.00    +0.062 A 
ATOM      8  C   UNL     1       6.728   1.953  28.492  0.00  0.00    +0.260 A 
ATOM      9  O   UNL     1       6.557   1.047  29.299  0.00  0.00    -0.267 OA
ATOM     10  N   UNL     1       6.683   3.281  28.832  0.00  0.00    -0.289 N 
ATOM     11  H   UNL     1       6.472   3.582  29.769  0.00  0.00    +0.172 HD
ATOM     12  C   UNL     1       6.818   4.174  27.801  0.00  0.00    +0.260 A 
ATOM     13  O   UNL     1       6.567   5.371  27.926  0.00  0.00    -0.267 OA
ATOM     14  C   UNL     1       8.619   4.648  25.139  0.00  0.00    +0.008 A 
ATOM     15  C   UNL     1       8.750   5.922  25.734  0.00  0.00    +0.010 A 
ATOM     16  C   UNL     1       9.834   6.734  25.430  0.00  0.00    +0.001 A 
ATOM     17  C   UNL     1      10.742   6.358  24.456  0.00  0.00    +0.002 A 
ATOM     18  C   UNL     1      10.582   5.169  23.735  0.00  0.00    +0.026 A 
ATOM     19  C   UNL     1       9.544   4.286  24.086  0.00  0.00    +0.052 A 
ATOM     20  N   UNL     1       9.337   2.951  23.661  0.00  0.00    -0.312 N 
ATOM     21  C   UNL     1      10.269   2.109  22.953  0.00  0.00    +0.222 C 
ATOM     22  C   UNL     1       9.692   1.193  21.860  0.00  0.00    +0.059 C 
ATOM     23  C   UNL     1       7.516   1.080  26.158  0.00  0.00    +0.023 A 
ATOM     24  C   UNL     1       7.267  -0.299  26.159  0.00  0.00    +0.008 A 
ATOM     25  C   UNL     1       6.433  -1.121  26.941  0.00  0.00    +0.010 A 
ATOM     26  C   UNL     1       6.215  -2.442  26.570  0.00  0.00    +0.001 A 
ATOM     27  C   UNL     1       6.865  -2.977  25.465  0.00  0.00    +0.002 A 
ATOM     28  C   UNL     1       7.783  -2.222  24.700  0.00  0.00    +0.026 A 
ATOM     29  C   UNL     1       7.967  -0.871  25.024  0.00  0.00    +0.052 A 
ATOM     30  O   UNL     1      10.824   1.235  23.965  0.00  0.00    -0.333 OA
ATOM     31  C   UNL     1      10.193  -0.167  22.311  0.00  0.00    +0.059 C 
ENDROOT
TORSDOF 0
ENDMDL
MODEL 2
REMARK VINA RESULT:      -8.1      3.019      7.413
REMARK  Name = 
REMARK  0 active torsions:
REMARK  status: ('A' for Active; 'I' for Inactive)
REMARK                            x       y       z     vdW  Elec       q    Type
REMARK                         _______ _______ _______ _____ _____    ______ ____
ROOT
ATOM      1  C   UNL     1       7.496   1.099  26.026  0.00  0.00    +0.222 C 
ATOM      2  N   UNL     1       7.613  -0.074  25.154  0.00  0.00    -0.312 N 
ATOM      3  C   UNL     1       7.221  -1.344  25.455  0.00  0.00    +0.077 A 
ATOM      4  C   UNL     1       6.081  -1.723  26.153  0.00  0.00    +0.077 A 
ATOM      5  C   UNL     1       5.971  -3.103  26.390  0.00  0.00    +0.023 A 
ATOM      6  C   UNL     1       6.882  -4.161  26.148  0.00  0.00    +0.062 A 
ATOM      7  C   UNL     1       8.054  -3.753  25.491  0.00  0.00    +0.062 A 
ATOM      8  C   UNL     1       9.025  -4.786  25.565  0.00  0.00    +0.260 A 
ATOM      9  O   UNL     1      10.193  -4.892  25.210  0.00  0.00    -0.267 OA
ATOM     10  N   UNL     1       8.367  -5.753  26.282  0.00  0.00    -0.289 N 
ATOM     11  H   UNL     1       8.808  -6.624  26.527  0.00  0.00    +0.172 HD
ATOM     12  C   UNL     1       7.041  -5.518  26.538  0.00  0.00    +0.260 A 
ATOM     13  O   UNL     1       6.285  -6.391  26.959  0.00  0.00    -0.267 OA
ATOM     14  C   UNL     1       5.077  -3.110  27.485  0.00  0.00    +0.008 A 
ATOM     15  C   UNL     1       4.667  -4.111  28.393  0.00  0.00    +0.010 A 
ATOM     16  C   UNL     1       4.066  -3.768  29.596  0.00  0.00    +0.001 A 
ATOM     17  C   UNL     1       3.756  -2.449  29.876  0.00  0.00    +0.002 A 
ATOM     18  C   UNL     1       4.014  -1.431  28.951  0.00  0.00    +0.026 A 
ATOM     19  C   UNL     1       4.704  -1.739  27.763  0.00  0.00    +0.052 A 
ATOM     20  N   UNL     1       5.267  -0.854  26.812  0.00  0.00    -0.312 N 
ATOM     21  C   UNL     1       5.468   0.567  26.957  0.00  0.00    +0.222 C 
ATOM     22  C   UNL     1       5.209   1.440  25.718  0.00  0.00    +0.059 C 
ATOM     23  C   UNL     1       8.051  -2.404  25.111  0.00  0.00    +0.023 A 
ATOM     24  C   UNL     1       8.945  -1.786  24.226  0.00  0.00    +0.008 A 
ATOM     25  C   UNL     1       9.937  -2.286  23.360  0.00  0.00    +0.010 A 
ATOM     26  C   UNL     1      10.527  -1.449  22.422  0.00  0.00    +0.001 A 
ATOM     27  C   UNL     1      10.190  -0.102  22.374  0.00  0.00    +0.002 A 
ATOM     28  C   UNL     1       9.270   0.471  23.281  0.00  0.00    +0.026 A 
ATOM     29  C   UNL     1       8.621  -0.372  24.192  0.00  0.00    +0.052 A 
ATOM     30  O   UNL     1       6.873   0.713  27.272  0.00  0.00    -0.333 OA
ATOM     31  C   UNL     1       6.529   2.177  25.587  0.00  0.00    +0.059 C 
ENDROOT
TORSDOF 0
ENDMDL
MODEL 3
REMARK VINA RESULT:      -8.0      3.439      6.434
REMARK  Name = 
REMARK  0 active torsions:
REMARK  status: ('A' for Active; 'I' for Inactive)
REMARK                            x       y       z     vdW  Elec       q    Type
REMARK                         _______ _______ _______ _____ _____    ______ ____
ROOT
ATOM      1  C   UNL     1       4.613   0.012  26.111  0.00  0.00    +0.222 C 
ATOM      2  N   UNL     1       5.272  -0.976  26.972  0.00  0.00    -0.312 N 
ATOM      3  C   UNL     1       6.378  -1.707  26.658  0.00  0.00    +0.077 A 
ATOM      4  C   UNL     1       7.495  -1.273  25.955  0.00  0.00    +0.077 A 
ATOM      5  C   UNL     1       8.453  -2.268  25.705  0.00  0.00    +0.023 A 
ATOM      6  C   UNL     1       8.421  -3.666  25.937  0.00  0.00    +0.062 A 
ATOM      7  C   UNL     1       7.260  -4.098  26.599  0.00  0.00    +0.062 A 
ATOM      8  C   UNL     1       7.164  -5.512  26.516  0.00  0.00    +0.260 A 
ATOM      9  O   UNL     1       6.330  -6.337  26.871  0.00  0.00    -0.267 OA
ATOM     10  N   UNL     1       8.280  -5.838  25.788  0.00  0.00    -0.289 N 
ATOM     11  H   UNL     1       8.489  -6.789  25.536  0.00  0.00    +0.172 HD
ATOM     12  C   UNL     1       9.155  -4.814  25.534  0.00  0.00    +0.260 A 
ATOM     13  O   UNL     1      10.290  -5.007  25.104  0.00  0.00    -0.267 OA
ATOM     14  C   UNL     1       9.142  -1.700  24.609  0.00  0.00    +0.008 A 
ATOM     15  C   UNL     1      10.087  -2.208  23.691  0.00  0.00    +0.010 A 
ATOM     16  C   UNL     1      10.326  -1.553  22.490  0.00  0.00    +0.001 A 
ATOM     17  C   UNL     1       9.727  -0.334  22.223  0.00  0.00    +0.002 A 
ATOM     18  C   UNL     1       8.890   0.283  23.159  0.00  0.00    +0.026 A 
ATOM     19  C   UNL     1       8.559  -0.401  24.344  0.00  0.00    +0.052 A 
ATOM     20  N   UNL     1       7.569  -0.080  25.304  0.00  0.00    -0.312 N 
ATOM     21  C   UNL     1       6.513   0.892  25.173  0.00  0.00    +0.222 C 
ATOM     22  C   UNL     1       6.168   1.723  26.420  0.00  0.00    +0.059 C 
ATOM     23  C   UNL     1       6.409  -3.055  26.992  0.00  0.00    +0.023 A 
ATOM     24  C   UNL     1       5.332  -3.150  27.884  0.00  0.00    +0.008 A 
ATOM     25  C   UNL     1       4.889  -4.172  28.746  0.00  0.00    +0.010 A 
ATOM     26  C   UNL     1       3.908  -3.904  29.693  0.00  0.00    +0.001 A 
ATOM     27  C   UNL     1       3.315  -2.650  29.754  0.00  0.00    +0.002 A 
ATOM     28  C   UNL     1       3.658  -1.617  28.852  0.00  0.00    +0.026 A 
ATOM     29  C   UNL     1       4.688  -1.851  27.932  0.00  0.00    +0.052 A 
ATOM     30  O   UNL     1       5.331   0.117  24.861  0.00  0.00    -0.333 OA
ATOM     31  C   UNL     1       4.681   1.456  26.560  0.00  0.00    +0.059 C 
ENDROOT
TORSDOF 0
ENDMDL
MODEL 4
REMARK VINA RESULT:      -7.9      2.349      5.136
REMARK  Name = 
REMARK  0 active torsions:
REMARK  status: ('A' for Active; 'I' for Inactive)
REMARK                            x       y       z     vdW  Elec       q    Type
REMARK                         _______ _______ _______ _____ _____    ______ ____
ROOT
ATOM      1  C   UNL     1       5.025  -1.811  26.308  0.00  0.00    +0.222 C 
ATOM      2  N   UNL     1       6.484  -1.964  26.289  0.00  0.00    -0.312 N 
ATOM      3  C   UNL     1       7.387  -1.026  25.886  0.00  0.00    +0.077 A 
ATOM      4  C   UNL     1       7.329   0.343  26.117  0.00  0.00    +0.077 A 
ATOM      5  C   UNL     1       8.358   1.083  25.512  0.00  0.00    +0.023 A 
ATOM      6  C   UNL     1       9.374   0.689  24.606  0.00  0.00    +0.062 A 
ATOM      7  C   UNL     1       9.386  -0.689  24.339  0.00  0.00    +0.062 A 
ATOM      8  C   UNL     1      10.208  -0.950  23.212  0.00  0.00    +0.260 A 
ATOM      9  O   UNL     1      10.486  -1.954  22.567  0.00  0.00    -0.267 OA
ATOM     10  N   UNL     1      10.632   0.308  22.864  0.00  0.00    -0.289 N 
ATOM     11  H   UNL     1      11.228   0.465  22.069  0.00  0.00    +0.172 HD
ATOM     12  C   UNL     1      10.300   1.318  23.730  0.00  0.00    +0.260 A 
ATOM     13  O   UNL     1      10.806   2.436  23.665  0.00  0.00    -0.267 OA
ATOM     14  C   UNL     1       7.772   2.369  25.478  0.00  0.00    +0.008 A 
ATOM     15  C   UNL     1       8.119   3.574  24.829  0.00  0.00    +0.010 A 
ATOM     16  C   UNL     1       7.178   4.581  24.663  0.00  0.00    +0.001 A 
ATOM     17  C   UNL     1       5.920   4.468  25.228  0.00  0.00    +0.002 A 
ATOM     18  C   UNL     1       5.569   3.356  26.000  0.00  0.00    +0.026 A 
ATOM     19  C   UNL     1       6.472   2.280  26.108  0.00  0.00    +0.052 A 
ATOM     20  N   UNL     1       6.245   0.984  26.631  0.00  0.00    -0.312 N 
ATOM     21  C   UNL     1       4.973   0.389  26.959  0.00  0.00    +0.222 C 
ATOM     22  C   UNL     1       4.915  -0.485  28.224  0.00  0.00    +0.059 C 
ATOM     23  C   UNL     1       8.460  -1.421  25.097  0.00  0.00    +0.023 A 
ATOM     24  C   UNL     1       8.420  -2.815  25.244  0.00  0.00    +0.008 A 
ATOM     25  C   UNL     1       9.308  -3.843  24.873  0.00  0.00    +0.010 A 
ATOM     26  C   UNL     1       9.113  -5.133  25.351  0.00  0.00    +0.001 A 
ATOM     27  C   UNL     1       8.011  -5.430  26.141  0.00  0.00    +0.002 A 
ATOM     28  C   UNL     1       7.040  -4.456  26.466  0.00  0.00    +0.026 A 
ATOM     29  C   UNL     1       7.253  -3.137  26.044  0.00  0.00    +0.052 A 
ATOM     30  O   UNL     1       4.673  -0.487  25.846  0.00  0.00    -0.333 OA
ATOM     31  C   UNL     1       4.364  -1.785  27.668  0.00  0.00    +0.059 C 
ENDROOT
TORSDOF 0
ENDMDL
MODEL 5
REMARK VINA RESULT:      -7.9      3.440      4.781
REMARK  Name = 
REMARK  0 active torsions:
REMARK  status: ('A' for Active; 'I' for Inactive)
REMARK                            x       y       z     vdW  Elec       q    Type
REMARK                         _______ _______ _______ _____ _____    ______ ____
ROOT
ATOM      1  C   UNL     1       8.291  -3.980  26.125  0.00  0.00    +0.222 C 
ATOM      2  N   UNL     1       6.935  -3.423  26.163  0.00  0.00    -0.312 N 
ATOM      3  C   UNL     1       6.522  -2.267  25.571  0.00  0.00    +0.077 A 
ATOM      4  C   UNL     1       6.906  -1.782  24.327  0.00  0.00    +0.077 A 
ATOM      5  C   UNL     1       6.383  -0.519  24.004  0.00  0.00    +0.023 A 
ATOM      6  C   UNL     1       5.632   0.399  24.779  0.00  0.00    +0.062 A 
ATOM      7  C   UNL     1       5.299  -0.083  26.055  0.00  0.00    +0.062 A 
ATOM      8  C   UNL     1       4.831   0.988  26.861  0.00  0.00    +0.260 A 
ATOM      9  O   UNL     1       4.485   1.091  28.032  0.00  0.00    -0.267 OA
ATOM     10  N   UNL     1       4.928   2.058  26.009  0.00  0.00    -0.289 N 
ATOM     11  H   UNL     1       4.684   2.991  26.299  0.00  0.00    +0.172 HD
ATOM     12  C   UNL     1       5.255   1.768  24.709  0.00  0.00    +0.260 A 
ATOM     13  O   UNL     1       5.148   2.590  23.802  0.00  0.00    -0.267 OA
ATOM     14  C   UNL     1       7.303  -0.100  23.015  0.00  0.00    +0.008 A 
ATOM     15  C   UNL     1       7.547   1.139  22.384  0.00  0.00    +0.010 A 
ATOM     16  C   UNL     1       8.746   1.369  21.722  0.00  0.00    +0.001 A 
ATOM     17  C   UNL     1       9.672   0.352  21.572  0.00  0.00    +0.002 A 
ATOM     18  C   UNL     1       9.420  -0.936  22.057  0.00  0.00    +0.026 A 
ATOM     19  C   UNL     1       8.254  -1.172  22.811  0.00  0.00    +0.052 A 
ATOM     20  N   UNL     1       7.914  -2.311  23.581  0.00  0.00    -0.312 N 
ATOM     21  C   UNL     1       8.784  -3.396  23.962  0.00  0.00    +0.222 C 
ATOM     22  C   UNL     1       8.183  -4.811  23.948  0.00  0.00    +0.059 C 
ATOM     23  C   UNL     1       5.682  -1.413  26.276  0.00  0.00    +0.023 A 
ATOM     24  C   UNL     1       5.262  -2.237  27.329  0.00  0.00    +0.008 A 
ATOM     25  C   UNL     1       4.273  -2.094  28.321  0.00  0.00    +0.010 A 
ATOM     26  C   UNL     1       3.919  -3.182  29.110  0.00  0.00    +0.001 A 
ATOM     27  C   UNL     1       4.580  -4.395  28.970  0.00  0.00    +0.002 A 
ATOM     28  C   UNL     1       5.643  -4.565  28.054  0.00  0.00    +0.026 A 
ATOM     29  C   UNL     1       5.971  -3.498  27.208  0.00  0.00    +0.052 A 
ATOM     30  O   UNL     1       9.144  -3.119  25.336  0.00  0.00    -0.333 OA
ATOM     31  C   UNL     1       8.472  -5.275  25.365  0.00  0.00    +0.059 C 
ENDROOT
TORSDOF 0
ENDMDL
MODEL 6
REMARK VINA RESULT:      -7.7      2.602      6.614
REMARK  Name = 
REMARK  0 active torsions:
REMARK  status: ('A' for Active; 'I' for Inactive)
REMARK                            x       y       z     vdW  Elec       q    Type
REMARK                         _______ _______ _______ _____ _____    ______ ____
ROOT
ATOM      1  C   UNL     1       8.695   0.087  22.389  0.00  0.00    +0.222 C 
ATOM      2  N   UNL     1       8.324   0.141  23.807  0.00  0.00    -0.312 N 
ATOM      3  C   UNL     1       7.579  -0.780  24.481  0.00  0.00    +0.077 A 
ATOM      4  C   UNL     1       7.627  -2.161  24.336  0.00  0.00    +0.077 A 
ATOM      5  C   UNL     1       6.683  -2.863  25.103  0.00  0.00    +0.023 A 
ATOM      6  C   UNL     1       5.610  -2.399  25.904  0.00  0.00    +0.062 A 
ATOM      7  C   UNL     1       5.541  -1.000  25.996  0.00  0.00    +0.062 A 
ATOM      8  C   UNL     1       4.287  -0.620  26.543  0.00  0.00    +0.260 A 
ATOM      9  O   UNL     1       3.736   0.453  26.761  0.00  0.00    -0.267 OA
ATOM     10  N   UNL     1       3.673  -1.832  26.734  0.00  0.00    -0.289 N 
ATOM     11  H   UNL     1       2.738  -1.901  27.099  0.00  0.00    +0.172 HD
ATOM     12  C   UNL     1       4.448  -2.942  26.518  0.00  0.00    +0.260 A 
ATOM     13  O   UNL     1       4.103  -4.067  26.871  0.00  0.00    -0.267 OA
ATOM     14  C   UNL     1       6.624  -4.084  24.393  0.00  0.00    +0.008 A 
ATOM     15  C   UNL     1       5.749  -5.191  24.443  0.00  0.00    +0.010 A 
ATOM     16  C   UNL     1       5.693  -6.093  23.389  0.00  0.00    +0.001 A 
ATOM     17  C   UNL     1       6.572  -5.986  22.325  0.00  0.00    +0.002 A 
ATOM     18  C   UNL     1       7.553  -4.989  22.292  0.00  0.00    +0.026 A 
ATOM     19  C   UNL     1       7.573  -4.009  23.302  0.00  0.00    +0.052 A 
ATOM     20  N   UNL     1       8.309  -2.800  23.347  0.00  0.00    -0.312 N 
ATOM     21  C   UNL     1       9.030  -2.179  22.264  0.00  0.00    +0.222 C 
ATOM     22  C   UNL     1      10.375  -1.517  22.608  0.00  0.00    +0.059 C 
ATOM     23  C   UNL     1       6.603  -0.337  25.365  0.00  0.00    +0.023 A 
ATOM     24  C   UNL     1       6.945   1.014  25.510  0.00  0.00    +0.008 A 
ATOM     25  C   UNL     1       6.504   2.026  26.385  0.00  0.00    +0.010 A 
ATOM     26  C   UNL     1       7.188   3.234  26.450  0.00  0.00    +0.001 A 
ATOM     27  C   UNL     1       8.267   3.475  25.610  0.00  0.00    +0.002 A 
ATOM     28  C   UNL     1       8.693   2.530  24.649  0.00  0.00    +0.026 A 
ATOM     29  C   UNL     1       8.054   1.283  24.614  0.00  0.00    +0.052 A 
ATOM     30  O   UNL     1       8.162  -1.120  21.797  0.00  0.00    -0.333 OA
ATOM     31  C   UNL     1      10.163  -0.110  22.079  0.00  0.00    +0.059 C 
ENDROOT
TORSDOF 0
ENDMDL
MODEL 7
REMARK VINA RESULT:      -7.7      2.123      2.918
REMARK  Name = 
REMARK  0 active torsions:
REMARK  status: ('A' for Active; 'I' for Inactive)
REMARK                            x       y       z     vdW  Elec       q    Type
REMARK                         _______ _______ _______ _____ _____    ______ ____
ROOT
ATOM      1  C   UNL     1       9.725  -1.589  23.608  0.00  0.00    +0.222 C 
ATOM      2  N   UNL     1       8.268  -1.758  23.625  0.00  0.00    -0.312 N 
ATOM      3  C   UNL     1       7.357  -0.853  24.079  0.00  0.00    +0.077 A 
ATOM      4  C   UNL     1       7.399   0.527  23.920  0.00  0.00    +0.077 A 
ATOM      5  C   UNL     1       6.364   1.222  24.566  0.00  0.00    +0.023 A 
ATOM      6  C   UNL     1       5.357   0.771  25.454  0.00  0.00    +0.062 A 
ATOM      7  C   UNL     1       5.361  -0.620  25.649  0.00  0.00    +0.062 A 
ATOM      8  C   UNL     1       4.547  -0.947  26.764  0.00  0.00    +0.260 A 
ATOM      9  O   UNL     1       4.282  -1.986  27.357  0.00  0.00    -0.267 OA
ATOM     10  N   UNL     1       4.111   0.286  27.178  0.00  0.00    -0.289 N 
ATOM     11  H   UNL     1       3.516   0.395  27.983  0.00  0.00    +0.172 HD
ATOM     12  C   UNL     1       4.427   1.343  26.365  0.00  0.00    +0.260 A 
ATOM     13  O   UNL     1       3.909   2.450  26.490  0.00  0.00    -0.267 OA
ATOM     14  C   UNL     1       6.937   2.511  24.664  0.00  0.00    +0.008 A 
ATOM     15  C   UNL     1       6.579   3.678  25.376  0.00  0.00    +0.010 A 
ATOM     16  C   UNL     1       7.509   4.685  25.591  0.00  0.00    +0.001 A 
ATOM     17  C   UNL     1       8.766   4.616  25.016  0.00  0.00    +0.002 A 
ATOM     18  C   UNL     1       9.126   3.549  24.186  0.00  0.00    +0.026 A 
ATOM     19  C   UNL     1       8.235   2.470  24.025  0.00  0.00    +0.052 A 
ATOM     20  N   UNL     1       8.474   1.205  23.436  0.00  0.00    -0.312 N 
ATOM     21  C   UNL     1       9.751   0.642  23.072  0.00  0.00    +0.222 C 
ATOM     22  C   UNL     1       9.812  -0.164  21.764  0.00  0.00    +0.059 C 
ATOM     23  C   UNL     1       6.292  -1.301  24.851  0.00  0.00    +0.023 A 
ATOM     24  C   UNL     1       6.347  -2.684  24.632  0.00  0.00    +0.008 A 
ATOM     25  C   UNL     1       5.472  -3.740  24.951  0.00  0.00    +0.010 A 
ATOM     26  C   UNL     1       5.678  -5.002  24.407  0.00  0.00    +0.001 A 
ATOM     27  C   UNL     1       6.781  -5.245  23.598  0.00  0.00    +0.002 A 
ATOM     28  C   UNL     1       7.740  -4.244  23.321  0.00  0.00    +0.026 A 
ATOM     29  C   UNL     1       7.513  -2.951  23.811  0.00  0.00    +0.052 A 
ATOM     30  O   UNL     1      10.065  -0.286  24.137  0.00  0.00    -0.333 OA
ATOM     31  C   UNL     1      10.381  -1.485  22.249  0.00  0.00    +0.059 C 
ENDROOT
TORSDOF 0
ENDMDL
MODEL 8
REMARK VINA RESULT:      -7.7      3.437      5.467
REMARK  Name = 
REMARK  0 active torsions:
REMARK  status: ('A' for Active; 'I' for Inactive)
REMARK                            x       y       z     vdW  Elec       q    Type
REMARK                         _______ _______ _______ _____ _____    ______ ____
ROOT
ATOM      1  C   UNL     1       6.335  -5.375  23.825  0.00  0.00    +0.222 C 
ATOM      2  N   UNL     1       5.311  -4.401  24.217  0.00  0.00    -0.312 N 
ATOM      3  C   UNL     1       5.481  -3.052  24.321  0.00  0.00    +0.077 A 
ATOM      4  C   UNL     1       6.225  -2.236  23.479  0.00  0.00    +0.077 A 
ATOM      5  C   UNL     1       6.291  -0.891  23.874  0.00  0.00    +0.023 A 
ATOM      6  C   UNL     1       5.832  -0.246  25.050  0.00  0.00    +0.062 A 
ATOM      7  C   UNL     1       5.129  -1.097  25.919  0.00  0.00    +0.062 A 
ATOM      8  C   UNL     1       4.980  -0.468  27.183  0.00  0.00    +0.260 A 
ATOM      9  O   UNL     1       4.509  -0.812  28.260  0.00  0.00    -0.267 OA
ATOM     10  N   UNL     1       5.624   0.728  26.991  0.00  0.00    -0.289 N 
ATOM     11  H   UNL     1       5.712   1.407  27.729  0.00  0.00    +0.172 HD
ATOM     12  C   UNL     1       6.028   0.998  25.709  0.00  0.00    +0.260 A 
ATOM     13  O   UNL     1       6.400   2.114  25.356  0.00  0.00    -0.267 OA
ATOM     14  C   UNL     1       7.454  -0.472  23.187  0.00  0.00    +0.008 A 
ATOM     15  C   UNL     1       8.259   0.686  23.263  0.00  0.00    +0.010 A 
ATOM     16  C   UNL     1       9.546   0.685  22.744  0.00  0.00    +0.001 A 
ATOM     17  C   UNL     1      10.021  -0.411  22.045  0.00  0.00    +0.002 A 
ATOM     18  C   UNL     1       9.215  -1.532  21.820  0.00  0.00    +0.026 A 
ATOM     19  C   UNL     1       7.939  -1.594  22.412  0.00  0.00    +0.052 A 
ATOM     20  N   UNL     1       7.063  -2.701  22.512  0.00  0.00    -0.312 N 
ATOM     21  C   UNL     1       7.372  -4.083  22.237  0.00  0.00    +0.222 C 
ATOM     22  C   UNL     1       6.284  -4.916  21.538  0.00  0.00    +0.059 C 
ATOM     23  C   UNL     1       4.928  -2.387  25.409  0.00  0.00    +0.023 A 
ATOM     24  C   UNL     1       4.053  -3.356  25.917  0.00  0.00    +0.008 A 
ATOM     25  C   UNL     1       3.042  -3.315  26.897  0.00  0.00    +0.010 A 
ATOM     26  C   UNL     1       2.170  -4.387  27.040  0.00  0.00    +0.001 A 
ATOM     27  C   UNL     1       2.327  -5.528  26.265  0.00  0.00    +0.002 A 
ATOM     28  C   UNL     1       3.381  -5.658  25.331  0.00  0.00    +0.026 A 
ATOM     29  C   UNL     1       4.231  -4.563  25.131  0.00  0.00    +0.052 A 
ATOM     30  O   UNL     1       7.572  -4.685  23.538  0.00  0.00    -0.333 OA
ATOM     31  C   UNL     1       6.129  -6.079  22.501  0.00  0.00    +0.059 C 
ENDROOT
TORSDOF 0
ENDMDL
MODEL 9
REMARK VINA RESULT:      -7.6      2.789      3.103
REMARK  Name = 
REMARK  0 active torsions:
REMARK  status: ('A' for Active; 'I' for Inactive)
REMARK                            x       y       z     vdW  Elec       q    Type
REMARK                         _______ _______ _______ _____ _____    ______ ____
ROOT
ATOM      1  C   UNL     1       9.994  -1.137  23.837  0.00  0.00    +0.222 C 
ATOM      2  N   UNL     1       8.670  -1.627  24.237  0.00  0.00    -0.312 N 
ATOM      3  C   UNL     1       7.548  -0.871  24.402  0.00  0.00    +0.077 A 
ATOM      4  C   UNL     1       7.140   0.202  23.619  0.00  0.00    +0.077 A 
ATOM      5  C   UNL     1       5.980   0.850  24.073  0.00  0.00    +0.023 A 
ATOM      6  C   UNL     1       5.225   0.677  25.259  0.00  0.00    +0.062 A 
ATOM      7  C   UNL     1       5.682  -0.375  26.068  0.00  0.00    +0.062 A 
ATOM      8  C   UNL     1       5.084  -0.284  27.351  0.00  0.00    +0.260 A 
ATOM      9  O   UNL     1       5.200  -0.910  28.398  0.00  0.00    -0.267 OA
ATOM     10  N   UNL     1       4.306   0.840  27.231  0.00  0.00    -0.289 N 
ATOM     11  H   UNL     1       3.758   1.190  27.999  0.00  0.00    +0.172 HD
ATOM     12  C   UNL     1       4.220   1.382  25.975  0.00  0.00    +0.260 A 
ATOM     13  O   UNL     1       3.386   2.236  25.681  0.00  0.00    -0.267 OA
ATOM     14  C   UNL     1       6.119   2.108  23.441  0.00  0.00    +0.008 A 
ATOM     15  C   UNL     1       5.454   3.345  23.591  0.00  0.00    +0.010 A 
ATOM     16  C   UNL     1       6.028   4.516  23.115  0.00  0.00    +0.001 A 
ATOM     17  C   UNL     1       7.204   4.476  22.386  0.00  0.00    +0.002 A 
ATOM     18  C   UNL     1       7.832   3.262  22.088  0.00  0.00    +0.026 A 
ATOM     19  C   UNL     1       7.321   2.070  22.636  0.00  0.00    +0.052 A 
ATOM     20  N   UNL     1       7.912   0.783  22.662  0.00  0.00    -0.312 N 
ATOM     21  C   UNL     1       9.277   0.446  22.339  0.00  0.00    +0.222 C 
ATOM     22  C   UNL     1       9.510  -0.866  21.571  0.00  0.00    +0.059 C 
ATOM     23  C   UNL     1       6.730  -1.114  25.499  0.00  0.00    +0.023 A 
ATOM     24  C   UNL     1       7.207  -2.356  25.937  0.00  0.00    +0.008 A 
ATOM     25  C   UNL     1       6.734  -3.284  26.885  0.00  0.00    +0.010 A 
ATOM     26  C   UNL     1       7.296  -4.553  26.955  0.00  0.00    +0.001 A 
ATOM     27  C   UNL     1       8.367  -4.892  26.138  0.00  0.00    +0.002 A 
ATOM     28  C   UNL     1       8.940  -3.968  25.235  0.00  0.00    +0.026 A 
ATOM     29  C   UNL     1       8.345  -2.706  25.108  0.00  0.00    +0.052 A 
ATOM     30  O   UNL     1       9.934   0.291  23.619  0.00  0.00    -0.333 OA
ATOM     31  C   UNL     1      10.497  -1.576  22.479  0.00  0.00    +0.059 C 
ENDROOT
TORSDOF 0
ENDMDL
