MODEL 1
REMARK VINA RESULT:      -4.7      0.000      0.000
REMARK  Name = 
REMARK  2 active torsions:
REMARK  status: ('A' for Active; 'I' for Inactive)
REMARK    1  A    between atoms: O_1  and  N_2
REMARK    2  A    between atoms: C_3  and  C_5
REMARK                            x       y       z     vdW  Elec       q    Type
REMARK                         _______ _______ _______ _____ _____    ______ ____
ROOT
ATOM      1  N   UNL     1      12.986   4.966  22.965  0.00  0.00    -0.193 N 
ATOM      2  H   UNL     1      12.663   4.154  22.450  0.00  0.00    +0.183 HD
ATOM      3  C   UNL     1      12.177   5.594  23.891  0.00  0.00    +0.267 C 
ATOM      4  O   UNL     1      12.571   6.304  24.810  0.00  0.00    -0.268 OA
ENDROOT
BRANCH   3   5
ATOM      5  C   UNL     1      10.716   5.321  23.734  0.00  0.00    +0.039 A 
ATOM      6  C   UNL     1      10.207   4.013  23.714  0.00  0.00    +0.013 A 
ATOM      7  C   UNL     1       8.834   3.797  23.582  0.00  0.00    +0.001 A 
ATOM      8  C   UNL     1       7.967   4.880  23.453  0.00  0.00    +0.000 A 
ATOM      9  C   UNL     1       8.469   6.181  23.445  0.00  0.00    +0.001 A 
ATOM     10  C   UNL     1       9.841   6.403  23.582  0.00  0.00    +0.013 A 
ENDBRANCH   3   5
BRANCH   1  11
ATOM     11  O   UNL     1      14.375   5.120  23.140  0.00  0.00    -0.295 OA
ATOM     12  H   UNL     1      14.751   4.294  22.790  0.00  0.00    +0.241 HD
ENDBRANCH   1  11
TORSDOF 2
ENDMDL
MODEL 2
REMARK VINA RESULT:      -4.7      3.179      4.270
REMARK  Name = 
REMARK  2 active torsions:
REMARK  status: ('A' for Active; 'I' for Inactive)
REMARK    1  A    between atoms: O_1  and  N_2
REMARK    2  A    between atoms: C_3  and  C_5
REMARK                            x       y       z     vdW  Elec       q    Type
REMARK                         _______ _______ _______ _____ _____    ______ ____
ROOT
ATOM      1  N   UNL     1       9.738   4.479  23.206  0.00  0.00    -0.193 N 
ATOM      2  H   UNL     1       8.866   4.177  22.784  0.00  0.00    +0.183 HD
ATOM      3  C   UNL     1      10.829   3.636  23.275  0.00  0.00    +0.267 C 
ATOM      4  O   UNL     1      11.995   3.996  23.399  0.00  0.00    -0.268 OA
ENDROOT
BRANCH   3   5
ATOM      5  C   UNL     1      10.508   2.183  23.146  0.00  0.00    +0.039 A 
ATOM      6  C   UNL     1      10.014   1.639  21.949  0.00  0.00    +0.013 A 
ATOM      7  C   UNL     1       9.739   0.273  21.860  0.00  0.00    +0.001 A 
ATOM      8  C   UNL     1       9.940  -0.552  22.965  0.00  0.00    +0.000 A 
ATOM      9  C   UNL     1      10.405  -0.014  24.165  0.00  0.00    +0.001 A 
ATOM     10  C   UNL     1      10.686   1.351  24.257  0.00  0.00    +0.013 A 
ENDBRANCH   3   5
BRANCH   1  11
ATOM     11  O   UNL     1      10.012   5.861  23.226  0.00  0.00    -0.295 OA
ATOM     12  H   UNL     1       9.256   6.245  23.704  0.00  0.00    +0.241 HD
ENDBRANCH   1  11
TORSDOF 2
ENDMDL
MODEL 3
REMARK VINA RESULT:      -4.7      6.244      7.106
REMARK  Name = 
REMARK  2 active torsions:
REMARK  status: ('A' for Active; 'I' for Inactive)
REMARK    1  A    between atoms: O_1  and  N_2
REMARK    2  A    between atoms: C_3  and  C_5
REMARK                            x       y       z     vdW  Elec       q    Type
REMARK                         _______ _______ _______ _____ _____    ______ ____
ROOT
ATOM      1  N   UNL     1       8.292  -2.421  22.515  0.00  0.00    -0.193 N 
ATOM      2  H   UNL     1       7.574  -1.728  22.330  0.00  0.00    +0.183 HD
ATOM      3  C   UNL     1       9.466  -2.083  23.156  0.00  0.00    +0.267 C 
ATOM      4  O   UNL     1      10.198  -2.865  23.754  0.00  0.00    -0.268 OA
ENDROOT
BRANCH   3   5
ATOM      5  C   UNL     1       9.805  -0.628  23.118  0.00  0.00    +0.039 A 
ATOM      6  C   UNL     1       9.647   0.137  21.951  0.00  0.00    +0.013 A 
ATOM      7  C   UNL     1       9.959   1.497  21.956  0.00  0.00    +0.001 A 
ATOM      8  C   UNL     1      10.445   2.096  23.117  0.00  0.00    +0.000 A 
ATOM      9  C   UNL     1      10.630   1.337  24.272  0.00  0.00    +0.001 A 
ATOM     10  C   UNL     1      10.314  -0.023  24.273  0.00  0.00    +0.013 A 
ENDBRANCH   3   5
BRANCH   1  11
ATOM     11  O   UNL     1       7.889  -3.768  22.614  0.00  0.00    -0.295 OA
ATOM     12  H   UNL     1       7.191  -3.757  23.293  0.00  0.00    +0.241 HD
ENDBRANCH   1  11
TORSDOF 2
ENDMDL
MODEL 4
REMARK VINA RESULT:      -4.7      5.850      6.685
REMARK  Name = 
REMARK  2 active torsions:
REMARK  status: ('A' for Active; 'I' for Inactive)
REMARK    1  A    between atoms: O_1  and  N_2
REMARK    2  A    between atoms: C_3  and  C_5
REMARK                            x       y       z     vdW  Elec       q    Type
REMARK                         _______ _______ _______ _____ _____    ______ ____
ROOT
ATOM      1  N   UNL     1       9.864  -2.389  24.211  0.00  0.00    -0.193 N 
ATOM      2  H   UNL     1      10.362  -1.965  24.987  0.00  0.00    +0.183 HD
ATOM      3  C   UNL     1       9.769  -1.754  22.989  0.00  0.00    +0.267 C 
ATOM      4  O   UNL     1       9.546  -2.308  21.919  0.00  0.00    -0.268 OA
ENDROOT
BRANCH   3   5
ATOM      5  C   UNL     1      10.003  -0.279  23.030  0.00  0.00    +0.039 A 
ATOM      6  C   UNL     1      10.481   0.362  24.184  0.00  0.00    +0.013 A 
ATOM      7  C   UNL     1      10.703   1.740  24.180  0.00  0.00    +0.001 A 
ATOM      8  C   UNL     1      10.434   2.486  23.034  0.00  0.00    +0.000 A 
ATOM      9  C   UNL     1       9.934   1.860  21.892  0.00  0.00    +0.001 A 
ATOM     10  C   UNL     1       9.716   0.481  21.890  0.00  0.00    +0.013 A 
ENDBRANCH   3   5
BRANCH   1  11
ATOM     11  O   UNL     1       9.747  -3.793  24.198  0.00  0.00    -0.295 OA
ATOM     12  H   UNL     1       9.255  -3.982  23.380  0.00  0.00    +0.241 HD
ENDBRANCH   1  11
TORSDOF 2
ENDMDL
MODEL 5
REMARK VINA RESULT:      -4.6      3.243      3.889
REMARK  Name = 
REMARK  2 active torsions:
REMARK  status: ('A' for Active; 'I' for Inactive)
REMARK    1  A    between atoms: O_1  and  N_2
REMARK    2  A    between atoms: C_3  and  C_5
REMARK                            x       y       z     vdW  Elec       q    Type
REMARK                         _______ _______ _______ _____ _____    ______ ____
ROOT
ATOM      1  N   UNL     1       9.693   2.247  21.646  0.00  0.00    -0.193 N 
ATOM      2  H   UNL     1       9.196   3.048  21.270  0.00  0.00    +0.183 HD
ATOM      3  C   UNL     1      10.301   2.299  22.884  0.00  0.00    +0.267 C 
ATOM      4  O   UNL     1      10.578   1.327  23.579  0.00  0.00    -0.268 OA
ENDROOT
BRANCH   3   5
ATOM      5  C   UNL     1      10.589   3.677  23.384  0.00  0.00    +0.039 A 
ATOM      6  C   UNL     1      11.872   4.242  23.297  0.00  0.00    +0.013 A 
ATOM      7  C   UNL     1      12.101   5.538  23.760  0.00  0.00    +0.001 A 
ATOM      8  C   UNL     1      11.058   6.270  24.326  0.00  0.00    +0.000 A 
ATOM      9  C   UNL     1       9.788   5.706  24.440  0.00  0.00    +0.001 A 
ATOM     10  C   UNL     1       9.554   4.411  23.973  0.00  0.00    +0.013 A 
ENDBRANCH   3   5
BRANCH   1  11
ATOM     11  O   UNL     1       9.317   0.969  21.186  0.00  0.00    -0.295 OA
ATOM     12  H   UNL     1       9.486   1.004  20.228  0.00  0.00    +0.241 HD
ENDBRANCH   1  11
TORSDOF 2
ENDMDL
MODEL 6
REMARK VINA RESULT:      -4.6      3.192      4.203
REMARK  Name = 
REMARK  2 active torsions:
REMARK  status: ('A' for Active; 'I' for Inactive)
REMARK    1  A    between atoms: O_1  and  N_2
REMARK    2  A    between atoms: C_3  and  C_5
REMARK                            x       y       z     vdW  Elec       q    Type
REMARK                         _______ _______ _______ _____ _____    ______ ____
ROOT
ATOM      1  N   UNL     1      11.401   4.156  23.002  0.00  0.00    -0.193 N 
ATOM      2  H   UNL     1      12.261   3.620  22.949  0.00  0.00    +0.183 HD
ATOM      3  C   UNL     1      10.221   3.575  23.422  0.00  0.00    +0.267 C 
ATOM      4  O   UNL     1       9.257   4.180  23.879  0.00  0.00    -0.268 OA
ENDROOT
BRANCH   3   5
ATOM      5  C   UNL     1      10.186   2.085  23.323  0.00  0.00    +0.039 A 
ATOM      6  C   UNL     1      10.417   1.264  24.439  0.00  0.00    +0.013 A 
ATOM      7  C   UNL     1      10.361  -0.124  24.312  0.00  0.00    +0.001 A 
ATOM      8  C   UNL     1      10.090  -0.701  23.072  0.00  0.00    +0.000 A 
ATOM      9  C   UNL     1       9.886   0.107  21.954  0.00  0.00    +0.001 A 
ATOM     10  C   UNL     1       9.936   1.497  22.077  0.00  0.00    +0.013 A 
ENDBRANCH   3   5
BRANCH   1  11
ATOM     11  O   UNL     1      11.508   5.551  23.172  0.00  0.00    -0.295 OA
ATOM     12  H   UNL     1      12.457   5.697  23.327  0.00  0.00    +0.241 HD
ENDBRANCH   1  11
TORSDOF 2
ENDMDL
MODEL 7
REMARK VINA RESULT:      -4.2      4.216      4.853
REMARK  Name = 
REMARK  2 active torsions:
REMARK  status: ('A' for Active; 'I' for Inactive)
REMARK    1  A    between atoms: O_1  and  N_2
REMARK    2  A    between atoms: C_3  and  C_5
REMARK                            x       y       z     vdW  Elec       q    Type
REMARK                         _______ _______ _______ _____ _____    ______ ____
ROOT
ATOM      1  N   UNL     1       9.688  -0.347  21.490  0.00  0.00    -0.193 N 
ATOM      2  H   UNL     1       8.828  -0.233  20.964  0.00  0.00    +0.183 HD
ATOM      3  C   UNL     1       9.969   0.446  22.584  0.00  0.00    +0.267 C 
ATOM      4  O   UNL     1      10.748   0.159  23.487  0.00  0.00    -0.268 OA
ENDROOT
BRANCH   3   5
ATOM      5  C   UNL     1       9.207   1.731  22.639  0.00  0.00    +0.039 A 
ATOM      6  C   UNL     1       8.094   1.965  21.816  0.00  0.00    +0.013 A 
ATOM      7  C   UNL     1       7.397   3.171  21.906  0.00  0.00    +0.001 A 
ATOM      8  C   UNL     1       7.816   4.153  22.802  0.00  0.00    +0.000 A 
ATOM      9  C   UNL     1       8.937   3.938  23.603  0.00  0.00    +0.001 A 
ATOM     10  C   UNL     1       9.634   2.731  23.520  0.00  0.00    +0.013 A 
ENDBRANCH   3   5
BRANCH   1  11
ATOM     11  O   UNL     1      10.313  -1.610  21.455  0.00  0.00    -0.295 OA
ATOM     12  H   UNL     1       9.628  -2.222  21.775  0.00  0.00    +0.241 HD
ENDBRANCH   1  11
TORSDOF 2
ENDMDL
MODEL 8
REMARK VINA RESULT:      -4.2     11.114     11.956
REMARK  Name = 
REMARK  2 active torsions:
REMARK  status: ('A' for Active; 'I' for Inactive)
REMARK    1  A    between atoms: O_1  and  N_2
REMARK    2  A    between atoms: C_3  and  C_5
REMARK                            x       y       z     vdW  Elec       q    Type
REMARK                         _______ _______ _______ _____ _____    ______ ____
ROOT
ATOM      1  N   UNL     1       7.575  -5.680  26.501  0.00  0.00    -0.193 N 
ATOM      2  H   UNL     1       8.429  -5.826  25.973  0.00  0.00    +0.183 HD
ATOM      3  C   UNL     1       6.343  -5.661  25.879  0.00  0.00    +0.267 C 
ATOM      4  O   UNL     1       5.268  -5.874  26.429  0.00  0.00    -0.268 OA
ENDROOT
BRANCH   3   5
ATOM      5  C   UNL     1       6.386  -5.390  24.410  0.00  0.00    +0.039 A 
ATOM      6  C   UNL     1       7.367  -4.562  23.840  0.00  0.00    +0.013 A 
ATOM      7  C   UNL     1       7.385  -4.344  22.461  0.00  0.00    +0.001 A 
ATOM      8  C   UNL     1       6.420  -4.935  21.649  0.00  0.00    +0.000 A 
ATOM      9  C   UNL     1       5.426  -5.736  22.211  0.00  0.00    +0.001 A 
ATOM     10  C   UNL     1       5.407  -5.961  23.589  0.00  0.00    +0.013 A 
ENDBRANCH   3   5
BRANCH   1  11
ATOM     11  O   UNL     1       7.582  -6.029  27.866  0.00  0.00    -0.295 OA
ATOM     12  H   UNL     1       6.753  -6.525  27.987  0.00  0.00    +0.241 HD
ENDBRANCH   1  11
TORSDOF 2
ENDMDL
MODEL 9
REMARK VINA RESULT:      -4.2      9.932     10.932
REMARK  Name = 
REMARK  2 active torsions:
REMARK  status: ('A' for Active; 'I' for Inactive)
REMARK    1  A    between atoms: O_1  and  N_2
REMARK    2  A    between atoms: C_3  and  C_5
REMARK                            x       y       z     vdW  Elec       q    Type
REMARK                         _______ _______ _______ _____ _____    ______ ____
ROOT
ATOM      1  N   UNL     1       7.339  -5.597  26.359  0.00  0.00    -0.193 N 
ATOM      2  H   UNL     1       6.398  -5.222  26.413  0.00  0.00    +0.183 HD
ATOM      3  C   UNL     1       8.181  -5.269  25.316  0.00  0.00    +0.267 C 
ATOM      4  O   UNL     1       9.405  -5.341  25.344  0.00  0.00    -0.268 OA
ENDROOT
BRANCH   3   5
ATOM      5  C   UNL     1       7.494  -4.758  24.092  0.00  0.00    +0.039 A 
ATOM      6  C   UNL     1       6.406  -5.434  23.518  0.00  0.00    +0.013 A 
ATOM      7  C   UNL     1       5.778  -4.918  22.383  0.00  0.00    +0.001 A 
ATOM      8  C   UNL     1       6.242  -3.737  21.806  0.00  0.00    +0.000 A 
ATOM      9  C   UNL     1       7.340  -3.074  22.354  0.00  0.00    +0.001 A 
ATOM     10  C   UNL     1       7.967  -3.584  23.493  0.00  0.00    +0.013 A 
ENDBRANCH   3   5
BRANCH   1  11
ATOM     11  O   UNL     1       7.956  -5.990  27.563  0.00  0.00    -0.295 OA
ATOM     12  H   UNL     1       7.311  -5.747  28.250  0.00  0.00    +0.241 HD
ENDBRANCH   1  11
TORSDOF 2
ENDMDL
