MODEL 1
REMARK VINA RESULT:      -4.5      0.000      0.000
REMARK  Name = 
REMARK  7 active torsions:
REMARK  status: ('A' for Active; 'I' for Inactive)
REMARK    1  A    between atoms: C_1  and  C_2
REMARK    2  A    between atoms: C_2  and  O_4
REMARK    3  A    between atoms: O_4  and  C_5
REMARK    4  A    between atoms: C_5  and  C_6
REMARK    5  A    between atoms: C_6  and  N_8
REMARK    6  A    between atoms: C_6  and  C_9
REMARK    7  A    between atoms: C_9  and  O_10
REMARK                            x       y       z     vdW  Elec       q    Type
REMARK                         _______ _______ _______ _____ _____    ______ ____
ROOT
ATOM      1  C   UNK     1       8.844  -5.141  25.251  0.00  0.00    +0.198 C 
ENDROOT
BRANCH   1   2
ATOM      2  N   UNK     1      10.271  -5.576  25.425  0.00  0.00    -0.316 NA
ATOM      3  H   UNK     1      10.583  -5.246  26.345  0.00  0.00    +0.119 HD
ATOM      4  H   UNK     1      10.263  -6.599  25.513  0.00  0.00    +0.119 HD
ENDBRANCH   1   2
BRANCH   1   5
ATOM      5  C   UNK     1       8.277  -4.776  26.623  0.00  0.00    +0.325 C 
ATOM      6  O   UNK     1       8.057  -3.645  27.019  0.00  0.00    -0.249 OA
BRANCH   5   7
ATOM      7  O   UNK     1       8.080  -5.889  27.382  0.00  0.00    -0.479 OA
ATOM      8  H   UNK     1       8.025  -6.650  26.753  0.00  0.00    +0.295 HD
ENDBRANCH   5   7
ENDBRANCH   1   5
BRANCH   1   9
ATOM      9  C   UNK     1       8.749  -3.906  24.346  0.00  0.00    +0.262 C 
BRANCH   9  10
ATOM     10  O   UNK     1      10.061  -3.393  24.033  0.00  0.00    -0.463 OA
BRANCH  10  12
ATOM     11  C   UNK     1       9.373  -1.182  24.408  0.00  0.00    +0.136 C 
ATOM     12  C   UNK     1      10.071  -2.145  23.496  0.00  0.00    +0.304 C 
ATOM     13  O   UNK     1      10.596  -1.835  22.439  0.00  0.00    -0.251 OA
ENDBRANCH  10  12
ENDBRANCH   9  10
ENDBRANCH   1   9
TORSDOF 6
ENDMDL
MODEL 2
REMARK VINA RESULT:      -4.3      2.598      3.398
REMARK  Name = 
REMARK  7 active torsions:
REMARK  status: ('A' for Active; 'I' for Inactive)
REMARK    1  A    between atoms: C_1  and  C_2
REMARK    2  A    between atoms: C_2  and  O_4
REMARK    3  A    between atoms: O_4  and  C_5
REMARK    4  A    between atoms: C_5  and  C_6
REMARK    5  A    between atoms: C_6  and  N_8
REMARK    6  A    between atoms: C_6  and  C_9
REMARK    7  A    between atoms: C_9  and  O_10
REMARK                            x       y       z     vdW  Elec       q    Type
REMARK                         _______ _______ _______ _____ _____    ______ ____
ROOT
ATOM      1  C   UNK     1       8.069  -4.625  25.782  0.00  0.00    +0.198 C 
ENDROOT
BRANCH   1   2
ATOM      2  N   UNK     1       7.997  -5.720  26.807  0.00  0.00    -0.316 NA
ATOM      3  H   UNK     1       8.512  -6.526  26.433  0.00  0.00    +0.119 HD
ATOM      4  H   UNK     1       8.557  -5.414  27.611  0.00  0.00    +0.119 HD
ENDBRANCH   1   2
BRANCH   1   5
ATOM      5  C   UNK     1       9.425  -4.706  25.078  0.00  0.00    +0.325 C 
ATOM      6  O   UNK     1       9.960  -3.798  24.468  0.00  0.00    -0.249 OA
BRANCH   5   7
ATOM      7  O   UNK     1       9.956  -5.955  25.183  0.00  0.00    -0.479 OA
ATOM      8  H   UNK     1      10.939  -5.840  25.196  0.00  0.00    +0.295 HD
ENDBRANCH   5   7
ENDBRANCH   1   5
BRANCH   1   9
ATOM      9  C   UNK     1       6.968  -4.783  24.726  0.00  0.00    +0.262 C 
BRANCH   9  10
ATOM     10  O   UNK     1       7.474  -5.438  23.545  0.00  0.00    -0.463 OA
BRANCH  10  12
ATOM     11  C   UNK     1       6.579  -5.829  21.413  0.00  0.00    +0.136 C 
ATOM     12  C   UNK     1       7.149  -4.831  22.374  0.00  0.00    +0.304 C 
ATOM     13  O   UNK     1       7.271  -3.640  22.138  0.00  0.00    -0.251 OA
ENDBRANCH  10  12
ENDBRANCH   9  10
ENDBRANCH   1   9
TORSDOF 6
ENDMDL
MODEL 3
REMARK VINA RESULT:      -4.0      4.388      6.210
REMARK  Name = 
REMARK  7 active torsions:
REMARK  status: ('A' for Active; 'I' for Inactive)
REMARK    1  A    between atoms: C_1  and  C_2
REMARK    2  A    between atoms: C_2  and  O_4
REMARK    3  A    between atoms: O_4  and  C_5
REMARK    4  A    between atoms: C_5  and  C_6
REMARK    5  A    between atoms: C_6  and  N_8
REMARK    6  A    between atoms: C_6  and  C_9
REMARK    7  A    between atoms: C_9  and  O_10
REMARK                            x       y       z     vdW  Elec       q    Type
REMARK                         _______ _______ _______ _____ _____    ______ ____
ROOT
ATOM      1  C   UNK     1       9.408   1.498  23.840  0.00  0.00    +0.198 C 
ENDROOT
BRANCH   1   2
ATOM      2  N   UNK     1       8.946   2.287  25.030  0.00  0.00    -0.316 NA
ATOM      3  H   UNK     1       9.096   3.280  24.818  0.00  0.00    +0.119 HD
ATOM      4  H   UNK     1       7.925   2.191  25.076  0.00  0.00    +0.119 HD
ENDBRANCH   1   2
BRANCH   1   5
ATOM      5  C   UNK     1      10.284   2.399  22.969  0.00  0.00    +0.325 C 
ATOM      6  O   UNK     1      11.030   3.270  23.380  0.00  0.00    -0.249 OA
BRANCH   5   7
ATOM      7  O   UNK     1      10.097   2.134  21.648  0.00  0.00    -0.479 OA
ATOM      8  H   UNK     1      10.143   1.151  21.550  0.00  0.00    +0.295 HD
ENDBRANCH   5   7
ENDBRANCH   1   5
BRANCH   1   9
ATOM      9  C   UNK     1      10.241   0.284  24.270  0.00  0.00    +0.262 C 
BRANCH   9  10
ATOM     10  O   UNK     1      10.723  -0.445  23.121  0.00  0.00    -0.463 OA
BRANCH  10  12
ATOM     11  C   UNK     1       9.862  -2.512  23.819  0.00  0.00    +0.136 C 
ATOM     12  C   UNK     1       9.935  -1.481  22.734  0.00  0.00    +0.304 C 
ATOM     13  O   UNK     1       9.342  -1.559  21.669  0.00  0.00    -0.251 OA
ENDBRANCH  10  12
ENDBRANCH   9  10
ENDBRANCH   1   9
TORSDOF 6
ENDMDL
MODEL 4
REMARK VINA RESULT:      -4.0      2.646      3.558
REMARK  Name = 
REMARK  7 active torsions:
REMARK  status: ('A' for Active; 'I' for Inactive)
REMARK    1  A    between atoms: C_1  and  C_2
REMARK    2  A    between atoms: C_2  and  O_4
REMARK    3  A    between atoms: O_4  and  C_5
REMARK    4  A    between atoms: C_5  and  C_6
REMARK    5  A    between atoms: C_6  and  N_8
REMARK    6  A    between atoms: C_6  and  C_9
REMARK    7  A    between atoms: C_9  and  O_10
REMARK                            x       y       z     vdW  Elec       q    Type
REMARK                         _______ _______ _______ _____ _____    ______ ____
ROOT
ATOM      1  C   UNK     1       8.869  -5.526  25.247  0.00  0.00    +0.198 C 
ENDROOT
BRANCH   1   2
ATOM      2  N   UNK     1      10.339  -5.239  25.136  0.00  0.00    -0.316 NA
ATOM      3  H   UNK     1      10.726  -5.886  24.438  0.00  0.00    +0.119 HD
ATOM      4  H   UNK     1      10.431  -4.314  24.700  0.00  0.00    +0.119 HD
ENDBRANCH   1   2
BRANCH   1   5
ATOM      5  C   UNK     1       8.338  -4.857  26.515  0.00  0.00    +0.325 C 
ATOM      6  O   UNK     1       8.257  -3.655  26.699  0.00  0.00    -0.249 OA
BRANCH   5   7
ATOM      7  O   UNK     1       7.997  -5.783  27.451  0.00  0.00    -0.479 OA
ATOM      8  H   UNK     1       7.909  -5.296  28.308  0.00  0.00    +0.295 HD
ENDBRANCH   5   7
ENDBRANCH   1   5
BRANCH   1   9
ATOM      9  C   UNK     1       8.102  -4.961  24.045  0.00  0.00    +0.262 C 
BRANCH   9  10
ATOM     10  O   UNK     1       6.698  -5.282  24.131  0.00  0.00    -0.463 OA
BRANCH  10  12
ATOM     11  C   UNK     1       7.181  -5.836  21.903  0.00  0.00    +0.136 C 
ATOM     12  C   UNK     1       6.131  -5.672  22.959  0.00  0.00    +0.304 C 
ATOM     13  O   UNK     1       4.942  -5.890  22.788  0.00  0.00    -0.251 OA
ENDBRANCH  10  12
ENDBRANCH   9  10
ENDBRANCH   1   9
TORSDOF 6
ENDMDL
MODEL 5
REMARK VINA RESULT:      -4.0      3.844      5.574
REMARK  Name = 
REMARK  7 active torsions:
REMARK  status: ('A' for Active; 'I' for Inactive)
REMARK    1  A    between atoms: C_1  and  C_2
REMARK    2  A    between atoms: C_2  and  O_4
REMARK    3  A    between atoms: O_4  and  C_5
REMARK    4  A    between atoms: C_5  and  C_6
REMARK    5  A    between atoms: C_6  and  N_8
REMARK    6  A    between atoms: C_6  and  C_9
REMARK    7  A    between atoms: C_9  and  O_10
REMARK                            x       y       z     vdW  Elec       q    Type
REMARK                         _______ _______ _______ _____ _____    ______ ____
ROOT
ATOM      1  C   UNK     1      10.182   1.026  22.335  0.00  0.00    +0.198 C 
ENDROOT
BRANCH   1   2
ATOM      2  N   UNK     1       9.512   2.136  21.577  0.00  0.00    -0.316 NA
ATOM      3  H   UNK     1       8.777   1.712  20.999  0.00  0.00    +0.119 HD
ATOM      4  H   UNK     1       8.998   2.700  22.264  0.00  0.00    +0.119 HD
ENDBRANCH   1   2
BRANCH   1   5
ATOM      5  C   UNK     1      10.246   1.415  23.812  0.00  0.00    +0.325 C 
ATOM      6  O   UNK     1       9.556   2.263  24.350  0.00  0.00    -0.249 OA
BRANCH   5   7
ATOM      7  O   UNK     1      11.215   0.714  24.461  0.00  0.00    -0.479 OA
ATOM      8  H   UNK     1      11.519   1.284  25.210  0.00  0.00    +0.295 HD
ENDBRANCH   5   7
ENDBRANCH   1   5
BRANCH   1   9
ATOM      9  C   UNK     1       9.391  -0.283  22.214  0.00  0.00    +0.262 C 
BRANCH   9  10
ATOM     10  O   UNK     1      10.209  -1.415  22.577  0.00  0.00    -0.463 OA
BRANCH  10  12
ATOM     11  C   UNK     1       8.214  -1.879  23.720  0.00  0.00    +0.136 C 
ATOM     12  C   UNK     1       9.642  -2.262  23.474  0.00  0.00    +0.304 C 
ATOM     13  O   UNK     1      10.196  -3.220  23.990  0.00  0.00    -0.251 OA
ENDBRANCH  10  12
ENDBRANCH   9  10
ENDBRANCH   1   9
TORSDOF 6
ENDMDL
MODEL 6
REMARK VINA RESULT:      -4.0      5.796      7.688
REMARK  Name = 
REMARK  7 active torsions:
REMARK  status: ('A' for Active; 'I' for Inactive)
REMARK    1  A    between atoms: C_1  and  C_2
REMARK    2  A    between atoms: C_2  and  O_4
REMARK    3  A    between atoms: O_4  and  C_5
REMARK    4  A    between atoms: C_5  and  C_6
REMARK    5  A    between atoms: C_6  and  N_8
REMARK    6  A    between atoms: C_6  and  C_9
REMARK    7  A    between atoms: C_9  and  O_10
REMARK                            x       y       z     vdW  Elec       q    Type
REMARK                         _______ _______ _______ _____ _____    ______ ____
ROOT
ATOM      1  C   UNK     1      10.505   1.865  23.817  0.00  0.00    +0.198 C 
ENDROOT
BRANCH   1   2
ATOM      2  N   UNK     1       9.537   1.447  24.886  0.00  0.00    -0.316 NA
ATOM      3  H   UNK     1       9.818   0.513  25.207  0.00  0.00    +0.119 HD
ATOM      4  H   UNK     1       9.706   2.053  25.697  0.00  0.00    +0.119 HD
ENDBRANCH   1   2
BRANCH   1   5
ATOM      5  C   UNK     1      10.043   1.275  22.484  0.00  0.00    +0.325 C 
ATOM      6  O   UNK     1       9.722   0.115  22.298  0.00  0.00    -0.249 OA
BRANCH   5   7
ATOM      7  O   UNK     1      10.070   2.213  21.499  0.00  0.00    -0.479 OA
ATOM      8  H   UNK     1       9.869   1.738  20.655  0.00  0.00    +0.295 HD
ENDBRANCH   5   7
ENDBRANCH   1   5
BRANCH   1   9
ATOM      9  C   UNK     1      10.552   3.392  23.679  0.00  0.00    +0.262 C 
BRANCH   9  10
ATOM     10  O   UNK     1      11.880   3.839  23.334  0.00  0.00    -0.463 OA
BRANCH  10  12
ATOM     11  C   UNK     1      10.783   5.873  23.734  0.00  0.00    +0.136 C 
ATOM     12  C   UNK     1      12.021   5.187  23.244  0.00  0.00    +0.304 C 
ATOM     13  O   UNK     1      13.021   5.768  22.850  0.00  0.00    -0.251 OA
ENDBRANCH  10  12
ENDBRANCH   9  10
ENDBRANCH   1   9
TORSDOF 6
ENDMDL
MODEL 7
REMARK VINA RESULT:      -4.0      2.985      4.651
REMARK  Name = 
REMARK  7 active torsions:
REMARK  status: ('A' for Active; 'I' for Inactive)
REMARK    1  A    between atoms: C_1  and  C_2
REMARK    2  A    between atoms: C_2  and  O_4
REMARK    3  A    between atoms: O_4  and  C_5
REMARK    4  A    between atoms: C_5  and  C_6
REMARK    5  A    between atoms: C_6  and  N_8
REMARK    6  A    between atoms: C_6  and  C_9
REMARK    7  A    between atoms: C_9  and  O_10
REMARK                            x       y       z     vdW  Elec       q    Type
REMARK                         _______ _______ _______ _____ _____    ______ ____
ROOT
ATOM      1  C   UNK     1       8.001  -4.794  25.814  0.00  0.00    +0.198 C 
ENDROOT
BRANCH   1   2
ATOM      2  N   UNK     1       7.962  -5.821  26.909  0.00  0.00    -0.316 NA
ATOM      3  H   UNK     1       7.998  -6.746  26.464  0.00  0.00    +0.119 HD
ATOM      4  H   UNK     1       8.850  -5.751  27.418  0.00  0.00    +0.119 HD
ENDBRANCH   1   2
BRANCH   1   5
ATOM      5  C   UNK     1       9.409  -4.773  25.218  0.00  0.00    +0.325 C 
ATOM      6  O   UNK     1       9.833  -3.941  24.436  0.00  0.00    -0.249 OA
BRANCH   5   7
ATOM      7  O   UNK     1      10.136  -5.842  25.642  0.00  0.00    -0.479 OA
ATOM      8  H   UNK     1       9.809  -6.060  26.550  0.00  0.00    +0.295 HD
ENDBRANCH   5   7
ENDBRANCH   1   5
BRANCH   1   9
ATOM      9  C   UNK     1       7.008  -5.138  24.697  0.00  0.00    +0.262 C 
BRANCH   9  10
ATOM     10  O   UNK     1       5.850  -5.817  25.226  0.00  0.00    -0.463 OA
BRANCH  10  12
ATOM     11  C   UNK     1       5.110  -5.634  23.008  0.00  0.00    +0.136 C 
ATOM     12  C   UNK     1       5.059  -6.405  24.292  0.00  0.00    +0.304 C 
ATOM     13  O   UNK     1       4.417  -7.431  24.453  0.00  0.00    -0.251 OA
ENDBRANCH  10  12
ENDBRANCH   9  10
ENDBRANCH   1   9
TORSDOF 6
ENDMDL
MODEL 8
REMARK VINA RESULT:      -3.9      2.181      2.549
REMARK  Name = 
REMARK  7 active torsions:
REMARK  status: ('A' for Active; 'I' for Inactive)
REMARK    1  A    between atoms: C_1  and  C_2
REMARK    2  A    between atoms: C_2  and  O_4
REMARK    3  A    between atoms: O_4  and  C_5
REMARK    4  A    between atoms: C_5  and  C_6
REMARK    5  A    between atoms: C_6  and  N_8
REMARK    6  A    between atoms: C_6  and  C_9
REMARK    7  A    between atoms: C_9  and  O_10
REMARK                            x       y       z     vdW  Elec       q    Type
REMARK                         _______ _______ _______ _____ _____    ______ ____
ROOT
ATOM      1  C   UNK     1       6.872  -4.095  26.805  0.00  0.00    +0.198 C 
ENDROOT
BRANCH   1   2
ATOM      2  N   UNK     1       5.930  -4.343  25.663  0.00  0.00    -0.316 NA
ATOM      3  H   UNK     1       5.034  -4.646  26.064  0.00  0.00    +0.119 HD
ATOM      4  H   UNK     1       5.721  -3.429  25.243  0.00  0.00    +0.119 HD
ENDBRANCH   1   2
BRANCH   1   5
ATOM      5  C   UNK     1       7.406  -5.441  27.295  0.00  0.00    +0.325 C 
ATOM      6  O   UNK     1       7.030  -6.030  28.293  0.00  0.00    -0.249 OA
BRANCH   5   7
ATOM      7  O   UNK     1       8.404  -5.894  26.488  0.00  0.00    -0.479 OA
ATOM      8  H   UNK     1       8.991  -6.453  27.056  0.00  0.00    +0.295 HD
ENDBRANCH   5   7
ENDBRANCH   1   5
BRANCH   1   9
ATOM      9  C   UNK     1       8.063  -3.235  26.362  0.00  0.00    +0.262 C 
BRANCH   9  10
ATOM     10  O   UNK     1       8.170  -3.201  24.924  0.00  0.00    -0.463 OA
BRANCH  10  12
ATOM     11  C   UNK     1       9.899  -2.249  23.657  0.00  0.00    +0.136 C 
ATOM     12  C   UNK     1       9.418  -3.433  24.440  0.00  0.00    +0.304 C 
ATOM     13  O   UNK     1      10.075  -4.443  24.634  0.00  0.00    -0.251 OA
ENDBRANCH  10  12
ENDBRANCH   9  10
ENDBRANCH   1   9
TORSDOF 6
ENDMDL
MODEL 9
REMARK VINA RESULT:      -3.9      3.163      3.653
REMARK  Name = 
REMARK  7 active torsions:
REMARK  status: ('A' for Active; 'I' for Inactive)
REMARK    1  A    between atoms: C_1  and  C_2
REMARK    2  A    between atoms: C_2  and  O_4
REMARK    3  A    between atoms: O_4  and  C_5
REMARK    4  A    between atoms: C_5  and  C_6
REMARK    5  A    between atoms: C_6  and  N_8
REMARK    6  A    between atoms: C_6  and  C_9
REMARK    7  A    between atoms: C_9  and  O_10
REMARK                            x       y       z     vdW  Elec       q    Type
REMARK                         _______ _______ _______ _____ _____    ______ ____
ROOT
ATOM      1  C   UNK     1       6.740  -3.906  22.569  0.00  0.00    +0.198 C 
ENDROOT
BRANCH   1   2
ATOM      2  N   UNK     1       5.776  -3.874  21.418  0.00  0.00    -0.316 NA
ATOM      3  H   UNK     1       6.312  -4.064  20.563  0.00  0.00    +0.119 HD
ATOM      4  H   UNK     1       5.163  -4.691  21.518  0.00  0.00    +0.119 HD
ENDBRANCH   1   2
BRANCH   1   5
ATOM      5  C   UNK     1       7.399  -5.285  22.613  0.00  0.00    +0.325 C 
ATOM      6  O   UNK     1       7.119  -6.226  21.891  0.00  0.00    -0.249 OA
BRANCH   5   7
ATOM      7  O   UNK     1       8.329  -5.351  23.604  0.00  0.00    -0.479 OA
ATOM      8  H   UNK     1       8.065  -4.679  24.280  0.00  0.00    +0.295 HD
ENDBRANCH   5   7
ENDBRANCH   1   5
BRANCH   1   9
ATOM      9  C   UNK     1       7.840  -2.851  22.400  0.00  0.00    +0.262 C 
BRANCH   9  10
ATOM     10  O   UNK     1       8.167  -2.238  23.664  0.00  0.00    -0.463 OA
BRANCH  10  12
ATOM     11  C   UNK     1       9.875  -0.809  24.400  0.00  0.00    +0.136 C 
ATOM     12  C   UNK     1       9.494  -2.185  23.945  0.00  0.00    +0.304 C 
ATOM     13  O   UNK     1      10.271  -3.124  23.870  0.00  0.00    -0.251 OA
ENDBRANCH  10  12
ENDBRANCH   9  10
ENDBRANCH   1   9
TORSDOF 6
ENDMDL
