MODEL 1
REMARK VINA RESULT:      -5.1      0.000      0.000
REMARK  Name = 
REMARK  4 active torsions:
REMARK  status: ('A' for Active; 'I' for Inactive)
REMARK    1  A    between atoms: O_1  and  C_2
REMARK    2  A    between atoms: C_2  and  C_4
REMARK    3  A    between atoms: C_8  and  O_9
REMARK    4  A    between atoms: C_10  and  O_11
REMARK                            x       y       z     vdW  Elec       q    Type
REMARK                         _______ _______ _______ _____ _____    ______ ____
ROOT
ATOM      1  C   UNL     1       9.743  -0.892  23.347  0.00  0.00    +0.104 A 
ATOM      2  C   UNL     1       9.750   0.006  22.278  0.00  0.00    +0.172 A 
ATOM      3  C   UNL     1      10.075   1.349  22.478  0.00  0.00    +0.159 A 
ATOM      4  C   UNL     1      10.407   1.824  23.741  0.00  0.00    +0.049 A 
ATOM      5  C   UNL     1      10.408   0.937  24.818  0.00  0.00    +0.005 A 
ATOM      6  C   UNL     1      10.077  -0.411  24.623  0.00  0.00    +0.019 A 
ENDROOT
BRANCH   1   7
ATOM      7  C   UNL     1       9.398  -2.335  23.218  0.00  0.00    +0.340 C 
ATOM      8  O   UNL     1       8.488  -2.730  22.506  0.00  0.00    -0.245 OA
BRANCH   7   9
ATOM      9  O   UNL     1      10.167  -3.178  23.942  0.00  0.00    -0.477 OA
ATOM     10  H   UNL     1      10.993  -2.751  24.264  0.00  0.00    +0.295 HD
ENDBRANCH   7   9
ENDBRANCH   1   7
BRANCH   2  11
ATOM     11  O   UNL     1       9.441  -0.398  21.001  0.00  0.00    -0.503 OA
ATOM     12  H   UNL     1       9.139   0.425  20.554  0.00  0.00    +0.292 HD
ENDBRANCH   2  11
BRANCH   3  13
ATOM     13  O   UNL     1      10.047   2.170  21.383  0.00  0.00    -0.503 OA
ATOM     14  H   UNL     1       9.228   1.991  20.887  0.00  0.00    +0.292 HD
ENDBRANCH   3  13
TORSDOF 4
ENDMDL
MODEL 2
REMARK VINA RESULT:      -4.8      1.520      3.931
REMARK  Name = 
REMARK  4 active torsions:
REMARK  status: ('A' for Active; 'I' for Inactive)
REMARK    1  A    between atoms: O_1  and  C_2
REMARK    2  A    between atoms: C_2  and  C_4
REMARK    3  A    between atoms: C_8  and  O_9
REMARK    4  A    between atoms: C_10  and  O_11
REMARK                            x       y       z     vdW  Elec       q    Type
REMARK                         _______ _______ _______ _____ _____    ______ ____
ROOT
ATOM      1  C   UNL     1       9.978   1.806  23.607  0.00  0.00    +0.104 A 
ATOM      2  C   UNL     1       9.772   1.182  22.376  0.00  0.00    +0.172 A 
ATOM      3  C   UNL     1       9.814  -0.210  22.268  0.00  0.00    +0.159 A 
ATOM      4  C   UNL     1      10.052  -1.007  23.381  0.00  0.00    +0.049 A 
ATOM      5  C   UNL     1      10.255  -0.396  24.618  0.00  0.00    +0.005 A 
ATOM      6  C   UNL     1      10.220   1.000  24.731  0.00  0.00    +0.019 A 
ENDROOT
BRANCH   1   7
ATOM      7  C   UNL     1       9.960   3.283  23.804  0.00  0.00    +0.340 C 
ATOM      8  O   UNL     1       9.169   3.833  24.554  0.00  0.00    -0.245 OA
BRANCH   7   9
ATOM      9  O   UNL     1      10.884   3.970  23.099  0.00  0.00    -0.477 OA
ATOM     10  H   UNL     1      10.487   4.492  22.365  0.00  0.00    +0.295 HD
ENDBRANCH   7   9
ENDBRANCH   1   7
BRANCH   2  11
ATOM     11  O   UNL     1       9.522   1.909  21.237  0.00  0.00    -0.503 OA
ATOM     12  H   UNL     1       9.613   2.846  21.523  0.00  0.00    +0.292 HD
ENDBRANCH   2  11
BRANCH   3  13
ATOM     13  O   UNL     1       9.615  -0.747  21.024  0.00  0.00    -0.503 OA
ATOM     14  H   UNL     1      10.448  -0.676  20.525  0.00  0.00    +0.292 HD
ENDBRANCH   3  13
TORSDOF 4
ENDMDL
MODEL 3
REMARK VINA RESULT:      -4.7      4.839      6.982
REMARK  Name = 
REMARK  4 active torsions:
REMARK  status: ('A' for Active; 'I' for Inactive)
REMARK    1  A    between atoms: O_1  and  C_2
REMARK    2  A    between atoms: C_2  and  C_4
REMARK    3  A    between atoms: C_8  and  O_9
REMARK    4  A    between atoms: C_10  and  O_11
REMARK                            x       y       z     vdW  Elec       q    Type
REMARK                         _______ _______ _______ _____ _____    ______ ____
ROOT
ATOM      1  C   UNL     1       8.148  -4.984  24.987  0.00  0.00    +0.104 A 
ATOM      2  C   UNL     1       7.556  -5.515  26.134  0.00  0.00    +0.172 A 
ATOM      3  C   UNL     1       6.195  -5.823  26.155  0.00  0.00    +0.159 A 
ATOM      4  C   UNL     1       5.398  -5.619  25.036  0.00  0.00    +0.049 A 
ATOM      5  C   UNL     1       5.977  -5.094  23.880  0.00  0.00    +0.005 A 
ATOM      6  C   UNL     1       7.342  -4.777  23.856  0.00  0.00    +0.019 A 
ENDROOT
BRANCH   1   7
ATOM      7  C   UNL     1       9.589  -4.620  24.887  0.00  0.00    +0.340 C 
ATOM      8  O   UNL     1       9.969  -3.600  24.332  0.00  0.00    -0.245 OA
BRANCH   7   9
ATOM      9  O   UNL     1      10.446  -5.494  25.458  0.00  0.00    -0.477 OA
ATOM     10  H   UNL     1      10.250  -6.427  25.215  0.00  0.00    +0.295 HD
ENDBRANCH   7   9
ENDBRANCH   1   7
BRANCH   2  11
ATOM     11  O   UNL     1       8.288  -5.751  27.274  0.00  0.00    -0.503 OA
ATOM     12  H   UNL     1       8.846  -6.528  27.046  0.00  0.00    +0.292 HD
ENDBRANCH   2  11
BRANCH   3  13
ATOM     13  O   UNL     1       5.685  -6.328  27.322  0.00  0.00    -0.503 OA
ATOM     14  H   UNL     1       4.819  -5.911  27.482  0.00  0.00    +0.292 HD
ENDBRANCH   3  13
TORSDOF 4
ENDMDL
MODEL 4
REMARK VINA RESULT:      -4.7      1.456      2.246
REMARK  Name = 
REMARK  4 active torsions:
REMARK  status: ('A' for Active; 'I' for Inactive)
REMARK    1  A    between atoms: O_1  and  C_2
REMARK    2  A    between atoms: C_2  and  C_4
REMARK    3  A    between atoms: C_8  and  O_9
REMARK    4  A    between atoms: C_10  and  O_11
REMARK                            x       y       z     vdW  Elec       q    Type
REMARK                         _______ _______ _______ _____ _____    ______ ____
ROOT
ATOM      1  C   UNL     1       9.568   0.299  22.977  0.00  0.00    +0.104 A 
ATOM      2  C   UNL     1       9.700   1.649  22.651  0.00  0.00    +0.172 A 
ATOM      3  C   UNL     1       9.316   2.641  23.555  0.00  0.00    +0.159 A 
ATOM      4  C   UNL     1       8.802   2.311  24.803  0.00  0.00    +0.049 A 
ATOM      5  C   UNL     1       8.670   0.965  25.145  0.00  0.00    +0.005 A 
ATOM      6  C   UNL     1       9.047  -0.034  24.238  0.00  0.00    +0.019 A 
ENDROOT
BRANCH   1   7
ATOM      7  C   UNL     1       9.944  -0.818  22.065  0.00  0.00    +0.340 C 
ATOM      8  O   UNL     1      10.640  -1.753  22.429  0.00  0.00    -0.245 OA
BRANCH   7   9
ATOM      9  O   UNL     1       9.455  -0.726  20.810  0.00  0.00    -0.477 OA
ATOM     10  H   UNL     1      10.135  -0.436  20.161  0.00  0.00    +0.295 HD
ENDBRANCH   7   9
ENDBRANCH   1   7
BRANCH   2  11
ATOM     11  O   UNL     1      10.209   2.047  21.437  0.00  0.00    -0.503 OA
ATOM     12  H   UNL     1      11.166   1.826  21.493  0.00  0.00    +0.292 HD
ENDBRANCH   2  11
BRANCH   3  13
ATOM     13  O   UNL     1       9.464   3.943  23.157  0.00  0.00    -0.503 OA
ATOM     14  H   UNL     1       9.416   3.972  22.185  0.00  0.00    +0.292 HD
ENDBRANCH   3  13
TORSDOF 4
ENDMDL
MODEL 5
REMARK VINA RESULT:      -4.6      1.222      3.526
REMARK  Name = 
REMARK  4 active torsions:
REMARK  status: ('A' for Active; 'I' for Inactive)
REMARK    1  A    between atoms: O_1  and  C_2
REMARK    2  A    between atoms: C_2  and  C_4
REMARK    3  A    between atoms: C_8  and  O_9
REMARK    4  A    between atoms: C_10  and  O_11
REMARK                            x       y       z     vdW  Elec       q    Type
REMARK                         _______ _______ _______ _____ _____    ______ ____
ROOT
ATOM      1  C   UNL     1       9.464   0.387  22.876  0.00  0.00    +0.104 A 
ATOM      2  C   UNL     1       9.818  -0.961  22.816  0.00  0.00    +0.172 A 
ATOM      3  C   UNL     1       9.832  -1.746  23.971  0.00  0.00    +0.159 A 
ATOM      4  C   UNL     1       9.484  -1.209  25.204  0.00  0.00    +0.049 A 
ATOM      5  C   UNL     1       9.123   0.137  25.278  0.00  0.00    +0.005 A 
ATOM      6  C   UNL     1       9.115   0.930  24.123  0.00  0.00    +0.019 A 
ENDROOT
BRANCH   1   7
ATOM      7  C   UNL     1       9.436   1.293  21.693  0.00  0.00    +0.340 C 
ATOM      8  O   UNL     1       8.650   1.141  20.771  0.00  0.00    -0.245 OA
BRANCH   7   9
ATOM      9  O   UNL     1      10.337   2.299  21.717  0.00  0.00    -0.477 OA
ATOM     10  H   UNL     1      10.100   3.003  22.362  0.00  0.00    +0.295 HD
ENDBRANCH   7   9
ENDBRANCH   1   7
BRANCH   2  11
ATOM     11  O   UNL     1      10.164  -1.559  21.628  0.00  0.00    -0.503 OA
ATOM     12  H   UNL     1       9.379  -1.420  21.050  0.00  0.00    +0.292 HD
ENDBRANCH   2  11
BRANCH   3  13
ATOM     13  O   UNL     1      10.203  -3.057  23.833  0.00  0.00    -0.503 OA
ATOM     14  H   UNL     1      10.150  -3.291  22.890  0.00  0.00    +0.292 HD
ENDBRANCH   3  13
TORSDOF 4
ENDMDL
MODEL 6
REMARK VINA RESULT:      -4.6      1.757      4.332
REMARK  Name = 
REMARK  4 active torsions:
REMARK  status: ('A' for Active; 'I' for Inactive)
REMARK    1  A    between atoms: O_1  and  C_2
REMARK    2  A    between atoms: C_2  and  C_4
REMARK    3  A    between atoms: C_8  and  O_9
REMARK    4  A    between atoms: C_10  and  O_11
REMARK                            x       y       z     vdW  Elec       q    Type
REMARK                         _______ _______ _______ _____ _____    ______ ____
ROOT
ATOM      1  C   UNL     1       9.898   0.493  22.967  0.00  0.00    +0.104 A 
ATOM      2  C   UNL     1       9.653  -0.102  24.206  0.00  0.00    +0.172 A 
ATOM      3  C   UNL     1       9.228  -1.429  24.286  0.00  0.00    +0.159 A 
ATOM      4  C   UNL     1       9.047  -2.193  23.140  0.00  0.00    +0.049 A 
ATOM      5  C   UNL     1       9.292  -1.613  21.896  0.00  0.00    +0.005 A 
ATOM      6  C   UNL     1       9.713  -0.279  21.809  0.00  0.00    +0.019 A 
ENDROOT
BRANCH   1   7
ATOM      7  C   UNL     1      10.343   1.904  22.795  0.00  0.00    +0.340 C 
ATOM      8  O   UNL     1      10.788   2.567  23.719  0.00  0.00    -0.245 OA
BRANCH   7   9
ATOM      9  O   UNL     1      10.225   2.397  21.543  0.00  0.00    -0.477 OA
ATOM     10  H   UNL     1       9.346   2.205  21.144  0.00  0.00    +0.295 HD
ENDBRANCH   7   9
ENDBRANCH   1   7
BRANCH   2  11
ATOM     11  O   UNL     1       9.822   0.593  25.380  0.00  0.00    -0.503 OA
ATOM     12  H   UNL     1      10.232   1.443  25.101  0.00  0.00    +0.292 HD
ENDBRANCH   2  11
BRANCH   3  13
ATOM     13  O   UNL     1       8.996  -1.937  25.537  0.00  0.00    -0.503 OA
ATOM     14  H   UNL     1       9.182  -1.239  26.189  0.00  0.00    +0.292 HD
ENDBRANCH   3  13
TORSDOF 4
ENDMDL
MODEL 7
REMARK VINA RESULT:      -4.4      3.360      4.672
REMARK  Name = 
REMARK  4 active torsions:
REMARK  status: ('A' for Active; 'I' for Inactive)
REMARK    1  A    between atoms: O_1  and  C_2
REMARK    2  A    between atoms: C_2  and  C_4
REMARK    3  A    between atoms: C_8  and  O_9
REMARK    4  A    between atoms: C_10  and  O_11
REMARK                            x       y       z     vdW  Elec       q    Type
REMARK                         _______ _______ _______ _____ _____    ______ ____
ROOT
ATOM      1  C   UNL     1       8.382  -4.255  24.691  0.00  0.00    +0.104 A 
ATOM      2  C   UNL     1       8.900  -3.337  23.777  0.00  0.00    +0.172 A 
ATOM      3  C   UNL     1       8.095  -2.807  22.767  0.00  0.00    +0.159 A 
ATOM      4  C   UNL     1       6.759  -3.171  22.652  0.00  0.00    +0.049 A 
ATOM      5  C   UNL     1       6.227  -4.085  23.562  0.00  0.00    +0.005 A 
ATOM      6  C   UNL     1       7.033  -4.625  24.573  0.00  0.00    +0.019 A 
ENDROOT
BRANCH   1   7
ATOM      7  C   UNL     1       9.177  -4.875  25.789  0.00  0.00    +0.340 C 
ATOM      8  O   UNL     1       8.864  -4.767  26.964  0.00  0.00    -0.245 OA
BRANCH   7   9
ATOM      9  O   UNL     1      10.266  -5.568  25.391  0.00  0.00    -0.477 OA
ATOM     10  H   UNL     1      10.331  -6.449  25.827  0.00  0.00    +0.295 HD
ENDBRANCH   7   9
ENDBRANCH   1   7
BRANCH   2  11
ATOM     11  O   UNL     1      10.210  -2.925  23.839  0.00  0.00    -0.503 OA
ATOM     12  H   UNL     1      10.729  -3.759  23.774  0.00  0.00    +0.292 HD
ENDBRANCH   2  11
BRANCH   3  13
ATOM     13  O   UNL     1       8.678  -1.921  21.901  0.00  0.00    -0.503 OA
ATOM     14  H   UNL     1       9.561  -2.259  21.668  0.00  0.00    +0.292 HD
ENDBRANCH   3  13
TORSDOF 4
ENDMDL
MODEL 8
REMARK VINA RESULT:      -4.4      2.085      3.050
REMARK  Name = 
REMARK  4 active torsions:
REMARK  status: ('A' for Active; 'I' for Inactive)
REMARK    1  A    between atoms: O_1  and  C_2
REMARK    2  A    between atoms: C_2  and  C_4
REMARK    3  A    between atoms: C_8  and  O_9
REMARK    4  A    between atoms: C_10  and  O_11
REMARK                            x       y       z     vdW  Elec       q    Type
REMARK                         _______ _______ _______ _____ _____    ______ ____
ROOT
ATOM      1  C   UNL     1       9.295  -0.585  25.157  0.00  0.00    +0.104 A 
ATOM      2  C   UNL     1       9.712  -1.391  24.097  0.00  0.00    +0.172 A 
ATOM      3  C   UNL     1      10.126  -0.823  22.891  0.00  0.00    +0.159 A 
ATOM      4  C   UNL     1      10.143   0.555  22.717  0.00  0.00    +0.049 A 
ATOM      5  C   UNL     1       9.733   1.373  23.770  0.00  0.00    +0.005 A 
ATOM      6  C   UNL     1       9.310   0.808  24.980  0.00  0.00    +0.019 A 
ENDROOT
BRANCH   1   7
ATOM      7  C   UNL     1       8.828  -1.112  26.470  0.00  0.00    +0.340 C 
ATOM      8  O   UNL     1       8.095  -2.084  26.561  0.00  0.00    -0.245 OA
BRANCH   7   9
ATOM      9  O   UNL     1       9.279  -0.442  27.552  0.00  0.00    -0.477 OA
ATOM     10  H   UNL     1       8.732  -0.609  28.353  0.00  0.00    +0.295 HD
ENDBRANCH   7   9
ENDBRANCH   1   7
BRANCH   2  11
ATOM     11  O   UNL     1       9.730  -2.762  24.203  0.00  0.00    -0.503 OA
ATOM     12  H   UNL     1       9.544  -3.077  23.290  0.00  0.00    +0.292 HD
ENDBRANCH   2  11
BRANCH   3  13
ATOM     13  O   UNL     1      10.509  -1.681  21.893  0.00  0.00    -0.503 OA
ATOM     14  H   UNL     1       9.744  -1.829  21.309  0.00  0.00    +0.292 HD
ENDBRANCH   3  13
TORSDOF 4
ENDMDL
MODEL 9
REMARK VINA RESULT:      -4.3      2.179      2.556
REMARK  Name = 
REMARK  4 active torsions:
REMARK  status: ('A' for Active; 'I' for Inactive)
REMARK    1  A    between atoms: O_1  and  C_2
REMARK    2  A    between atoms: C_2  and  C_4
REMARK    3  A    between atoms: C_8  and  O_9
REMARK    4  A    between atoms: C_10  and  O_11
REMARK                            x       y       z     vdW  Elec       q    Type
REMARK                         _______ _______ _______ _____ _____    ______ ____
ROOT
ATOM      1  C   UNL     1       8.696  -0.862  22.581  0.00  0.00    +0.104 A 
ATOM      2  C   UNL     1       7.462  -0.221  22.709  0.00  0.00    +0.172 A 
ATOM      3  C   UNL     1       7.322   1.127  22.374  0.00  0.00    +0.159 A 
ATOM      4  C   UNL     1       8.401   1.861  21.897  0.00  0.00    +0.049 A 
ATOM      5  C   UNL     1       9.639   1.232  21.759  0.00  0.00    +0.005 A 
ATOM      6  C   UNL     1       9.786  -0.119  22.101  0.00  0.00    +0.019 A 
ENDROOT
BRANCH   1   7
ATOM      7  C   UNL     1       8.930  -2.292  22.927  0.00  0.00    +0.340 C 
ATOM      8  O   UNL     1       8.082  -3.153  22.759  0.00  0.00    -0.245 OA
BRANCH   7   9
ATOM      9  O   UNL     1      10.151  -2.569  23.435  0.00  0.00    -0.477 OA
ATOM     10  H   UNL     1      10.798  -1.845  23.276  0.00  0.00    +0.295 HD
ENDBRANCH   7   9
ENDBRANCH   1   7
BRANCH   2  11
ATOM     11  O   UNL     1       6.352  -0.890  23.166  0.00  0.00    -0.503 OA
ATOM     12  H   UNL     1       5.602  -0.293  22.942  0.00  0.00    +0.292 HD
ENDBRANCH   2  11
BRANCH   3  13
ATOM     13  O   UNL     1       6.084   1.688  22.539  0.00  0.00    -0.503 OA
ATOM     14  H   UNL     1       6.094   2.213  23.360  0.00  0.00    +0.292 HD
ENDBRANCH   3  13
TORSDOF 4
ENDMDL
