MODEL 1
REMARK VINA RESULT:      -6.8      0.000      0.000
REMARK  Name = 
REMARK  5 active torsions:
REMARK  status: ('A' for Active; 'I' for Inactive)
REMARK    1  A    between atoms: O_1  and  C_2
REMARK    2  A    between atoms: C_2  and  C_4
REMARK    3  A    between atoms: C_4  and  C_5
REMARK    4  A    between atoms: C_5  and  C_6
REMARK    5  A    between atoms: C_6  and  N_7
REMARK                            x       y       z     vdW  Elec       q    Type
REMARK                         _______ _______ _______ _____ _____    ______ ____
ROOT
ATOM      1  N   UNL     1       8.425  -2.477  23.861  0.00  0.00    -0.307 N 
ATOM      2  C   UNL     1       9.364  -1.834  23.010  0.00  0.00    +0.260 A 
ATOM      3  O   UNL     1      10.384  -2.371  22.595  0.00  0.00    -0.267 OA
ATOM      4  C   UNL     1       9.085  -0.428  22.623  0.00  0.00    +0.047 A 
ATOM      5  C   UNL     1       7.776   0.027  22.709  0.00  0.00    +0.000 A 
ATOM      6  C   UNL     1       7.426   1.262  22.177  0.00  0.00    +0.009 A 
ATOM      7  C   UNL     1       8.431   2.199  21.996  0.00  0.00    +0.001 A 
ATOM      8  C   UNL     1       9.769   1.810  22.075  0.00  0.00    +0.001 A 
ATOM      9  C   UNL     1       6.937  -0.631  23.698  0.00  0.00    +0.054 A 
ATOM     10  C   UNL     1       5.943   0.051  24.555  0.00  0.00    +0.196 C 
ATOM     11  C   UNL     1       5.653  -0.869  25.636  0.00  0.00    +0.031 A 
ATOM     12  C   UNL     1       6.399  -2.033  25.427  0.00  0.00    +0.010 A 
ATOM     13  C   UNL     1       6.205  -3.069  26.326  0.00  0.00    +0.011 A 
ATOM     14  C   UNL     1       5.301  -2.899  27.396  0.00  0.00    +0.001 A 
ATOM     15  C   UNL     1       4.609  -1.695  27.587  0.00  0.00    +0.001 A 
ATOM     16  C   UNL     1       4.789  -0.648  26.697  0.00  0.00    +0.012 A 
ATOM     17  O   UNL     1       5.499   1.177  24.450  0.00  0.00    -0.287 OA
ATOM     18  C   UNL     1      10.097   0.462  22.264  0.00  0.00    +0.014 A 
ATOM     19  C   UNL     1       7.270  -1.803  24.275  0.00  0.00    +0.064 A 
ENDROOT
BRANCH   1  20
ATOM     20  C   UNL     1       8.734  -3.844  24.264  0.00  0.00    +0.126 C 
BRANCH  20  21
ATOM     21  C   UNL     1       7.693  -4.856  23.775  0.00  0.00    +0.033 C 
BRANCH  21  22
ATOM     22  C   UNL     1       7.416  -4.734  22.278  0.00  0.00    +0.122 C 
BRANCH  22  23
ATOM     23  C   UNL     1       5.936  -4.812  21.970  0.00  0.00    +0.305 C 
ATOM     24  O   UNL     1       5.176  -3.855  21.939  0.00  0.00    -0.251 OA
BRANCH  23  25
ATOM     25  O   UNL     1       5.535  -6.084  21.721  0.00  0.00    -0.481 OA
ATOM     26  H   UNL     1       5.835  -6.427  20.854  0.00  0.00    +0.295 HD
ENDBRANCH  23  25
ENDBRANCH  22  23
ENDBRANCH  21  22
ENDBRANCH  20  21
ENDBRANCH   1  20
TORSDOF 5
ENDMDL
MODEL 2
REMARK VINA RESULT:      -6.7      2.067      4.850
REMARK  Name = 
REMARK  5 active torsions:
REMARK  status: ('A' for Active; 'I' for Inactive)
REMARK    1  A    between atoms: O_1  and  C_2
REMARK    2  A    between atoms: C_2  and  C_4
REMARK    3  A    between atoms: C_4  and  C_5
REMARK    4  A    between atoms: C_5  and  C_6
REMARK    5  A    between atoms: C_6  and  N_7
REMARK                            x       y       z     vdW  Elec       q    Type
REMARK                         _______ _______ _______ _____ _____    ______ ____
ROOT
ATOM      1  N   UNL     1       8.316  -1.711  24.118  0.00  0.00    -0.307 N 
ATOM      2  C   UNL     1       8.516  -0.741  25.136  0.00  0.00    +0.260 A 
ATOM      3  O   UNL     1       9.589  -0.187  25.346  0.00  0.00    -0.267 OA
ATOM      4  C   UNL     1       7.354  -0.399  25.994  0.00  0.00    +0.047 A 
ATOM      5  C   UNL     1       6.081  -0.666  25.507  0.00  0.00    +0.000 A 
ATOM      6  C   UNL     1       4.960  -0.191  26.176  0.00  0.00    +0.009 A 
ATOM      7  C   UNL     1       5.091   0.124  27.520  0.00  0.00    +0.001 A 
ATOM      8  C   UNL     1       6.360   0.232  28.089  0.00  0.00    +0.001 A 
ATOM      9  C   UNL     1       5.981  -1.761  24.554  0.00  0.00    +0.054 A 
ATOM     10  C   UNL     1       4.880  -2.749  24.510  0.00  0.00    +0.196 C 
ATOM     11  C   UNL     1       5.373  -3.857  23.718  0.00  0.00    +0.031 A 
ATOM     12  C   UNL     1       6.668  -3.543  23.292  0.00  0.00    +0.010 A 
ATOM     13  C   UNL     1       7.289  -4.458  22.457  0.00  0.00    +0.011 A 
ATOM     14  C   UNL     1       6.612  -5.642  22.099  0.00  0.00    +0.001 A 
ATOM     15  C   UNL     1       5.331  -5.931  22.589  0.00  0.00    +0.001 A 
ATOM     16  C   UNL     1       4.692  -5.028  23.424  0.00  0.00    +0.012 A 
ATOM     17  O   UNL     1       3.804  -2.708  25.073  0.00  0.00    -0.287 OA
ATOM     18  C   UNL     1       7.501   0.094  27.290  0.00  0.00    +0.014 A 
ATOM     19  C   UNL     1       7.053  -2.282  23.926  0.00  0.00    +0.064 A 
ENDROOT
BRANCH   1  20
ATOM     20  C   UNL     1       9.478  -2.064  23.310  0.00  0.00    +0.126 C 
BRANCH  20  21
ATOM     21  C   UNL     1       9.429  -1.457  21.903  0.00  0.00    +0.033 C 
BRANCH  21  22
ATOM     22  C   UNL     1      10.083  -0.079  21.837  0.00  0.00    +0.122 C 
BRANCH  22  23
ATOM     23  C   UNL     1       9.055   1.030  21.779  0.00  0.00    +0.305 C 
ATOM     24  O   UNL     1       7.868   0.900  22.041  0.00  0.00    -0.251 OA
BRANCH  23  25
ATOM     25  O   UNL     1       9.603   2.212  21.400  0.00  0.00    -0.481 OA
ATOM     26  H   UNL     1       9.259   2.982  21.900  0.00  0.00    +0.295 HD
ENDBRANCH  23  25
ENDBRANCH  22  23
ENDBRANCH  21  22
ENDBRANCH  20  21
ENDBRANCH   1  20
TORSDOF 5
ENDMDL
MODEL 3
REMARK VINA RESULT:      -6.6      1.886      2.342
REMARK  Name = 
REMARK  5 active torsions:
REMARK  status: ('A' for Active; 'I' for Inactive)
REMARK    1  A    between atoms: O_1  and  C_2
REMARK    2  A    between atoms: C_2  and  C_4
REMARK    3  A    between atoms: C_4  and  C_5
REMARK    4  A    between atoms: C_5  and  C_6
REMARK    5  A    between atoms: C_6  and  N_7
REMARK                            x       y       z     vdW  Elec       q    Type
REMARK                         _______ _______ _______ _____ _____    ______ ____
ROOT
ATOM      1  N   UNL     1       7.613  -2.130  23.222  0.00  0.00    -0.307 N 
ATOM      2  C   UNL     1       8.646  -1.584  22.413  0.00  0.00    +0.260 A 
ATOM      3  O   UNL     1       9.474  -2.263  21.818  0.00  0.00    -0.267 OA
ATOM      4  C   UNL     1       8.719  -0.105  22.304  0.00  0.00    +0.047 A 
ATOM      5  C   UNL     1       7.576   0.630  22.588  0.00  0.00    +0.000 A 
ATOM      6  C   UNL     1       7.531   1.991  22.314  0.00  0.00    +0.009 A 
ATOM      7  C   UNL     1       8.733   2.672  22.208  0.00  0.00    +0.001 A 
ATOM      8  C   UNL     1       9.928   1.961  22.094  0.00  0.00    +0.001 A 
ATOM      9  C   UNL     1       6.642   0.018  23.522  0.00  0.00    +0.054 A 
ATOM     10  C   UNL     1       5.896   0.745  24.573  0.00  0.00    +0.196 C 
ATOM     11  C   UNL     1       5.429  -0.267  25.498  0.00  0.00    +0.031 A 
ATOM     12  C   UNL     1       5.842  -1.515  25.022  0.00  0.00    +0.010 A 
ATOM     13  C   UNL     1       5.429  -2.625  25.741  0.00  0.00    +0.011 A 
ATOM     14  C   UNL     1       4.649  -2.449  26.902  0.00  0.00    +0.001 A 
ATOM     15  C   UNL     1       4.299  -1.172  27.363  0.00  0.00    +0.001 A 
ATOM     16  C   UNL     1       4.700  -0.050  26.657  0.00  0.00    +0.012 A 
ATOM     17  O   UNL     1       5.751   1.944  24.706  0.00  0.00    -0.287 OA
ATOM     18  C   UNL     1       9.908   0.563  22.014  0.00  0.00    +0.014 A 
ATOM     19  C   UNL     1       6.690  -1.287  23.852  0.00  0.00    +0.064 A 
ENDROOT
BRANCH   1  20
ATOM     20  C   UNL     1       7.579  -3.583  23.350  0.00  0.00    +0.126 C 
BRANCH  20  21
ATOM     21  C   UNL     1       8.504  -4.102  24.456  0.00  0.00    +0.033 C 
BRANCH  21  22
ATOM     22  C   UNL     1       7.855  -5.203  25.292  0.00  0.00    +0.122 C 
BRANCH  22  23
ATOM     23  C   UNL     1       8.149  -5.037  26.768  0.00  0.00    +0.305 C 
ATOM     24  O   UNL     1       7.316  -5.104  27.659  0.00  0.00    -0.251 OA
BRANCH  23  25
ATOM     25  O   UNL     1       9.465  -4.806  27.001  0.00  0.00    -0.481 OA
ATOM     26  H   UNL     1       9.782  -3.949  26.646  0.00  0.00    +0.295 HD
ENDBRANCH  23  25
ENDBRANCH  22  23
ENDBRANCH  21  22
ENDBRANCH  20  21
ENDBRANCH   1  20
TORSDOF 5
ENDMDL
MODEL 4
REMARK VINA RESULT:      -6.5      2.693      4.879
REMARK  Name = 
REMARK  5 active torsions:
REMARK  status: ('A' for Active; 'I' for Inactive)
REMARK    1  A    between atoms: O_1  and  C_2
REMARK    2  A    between atoms: C_2  and  C_4
REMARK    3  A    between atoms: C_4  and  C_5
REMARK    4  A    between atoms: C_5  and  C_6
REMARK    5  A    between atoms: C_6  and  N_7
REMARK                            x       y       z     vdW  Elec       q    Type
REMARK                         _______ _______ _______ _____ _____    ______ ____
ROOT
ATOM      1  N   UNL     1       6.152  -2.401  26.157  0.00  0.00    -0.307 N 
ATOM      2  C   UNL     1       6.501  -1.076  26.535  0.00  0.00    +0.260 A 
ATOM      3  O   UNL     1       5.889  -0.425  27.373  0.00  0.00    -0.267 OA
ATOM      4  C   UNL     1       7.668  -0.457  25.858  0.00  0.00    +0.047 A 
ATOM      5  C   UNL     1       8.602  -1.296  25.265  0.00  0.00    +0.000 A 
ATOM      6  C   UNL     1       9.805  -0.785  24.793  0.00  0.00    +0.009 A 
ATOM      7  C   UNL     1       9.863   0.568  24.497  0.00  0.00    +0.001 A 
ATOM      8  C   UNL     1       8.848   1.420  24.931  0.00  0.00    +0.001 A 
ATOM      9  C   UNL     1       8.102  -2.585  24.811  0.00  0.00    +0.054 A 
ATOM     10  C   UNL     1       8.507  -3.257  23.557  0.00  0.00    +0.196 C 
ATOM     11  C   UNL     1       7.498  -4.266  23.305  0.00  0.00    +0.031 A 
ATOM     12  C   UNL     1       6.568  -4.221  24.349  0.00  0.00    +0.010 A 
ATOM     13  C   UNL     1       5.555  -5.165  24.324  0.00  0.00    +0.011 A 
ATOM     14  C   UNL     1       5.495  -6.091  23.262  0.00  0.00    +0.001 A 
ATOM     15  C   UNL     1       6.426  -6.066  22.214  0.00  0.00    +0.001 A 
ATOM     16  C   UNL     1       7.449  -5.131  22.223  0.00  0.00    +0.012 A 
ATOM     17  O   UNL     1       9.439  -2.994  22.824  0.00  0.00    -0.287 OA
ATOM     18  C   UNL     1       7.808   0.924  25.726  0.00  0.00    +0.014 A 
ATOM     19  C   UNL     1       6.916  -3.088  25.207  0.00  0.00    +0.064 A 
ENDROOT
BRANCH   1  20
ATOM     20  C   UNL     1       4.980  -2.980  26.803  0.00  0.00    +0.126 C 
BRANCH  20  21
ATOM     21  C   UNL     1       5.336  -3.824  28.031  0.00  0.00    +0.033 C 
BRANCH  21  22
ATOM     22  C   UNL     1       4.842  -5.264  27.915  0.00  0.00    +0.122 C 
BRANCH  22  23
ATOM     23  C   UNL     1       5.962  -6.262  28.116  0.00  0.00    +0.305 C 
ATOM     24  O   UNL     1       7.154  -5.999  28.055  0.00  0.00    -0.251 OA
BRANCH  23  25
ATOM     25  O   UNL     1       5.492  -7.507  28.382  0.00  0.00    -0.481 OA
ATOM     26  H   UNL     1       4.796  -7.524  29.071  0.00  0.00    +0.295 HD
ENDBRANCH  23  25
ENDBRANCH  22  23
ENDBRANCH  21  22
ENDBRANCH  20  21
ENDBRANCH   1  20
TORSDOF 5
ENDMDL
MODEL 5
REMARK VINA RESULT:      -6.4      2.065      4.990
REMARK  Name = 
REMARK  5 active torsions:
REMARK  status: ('A' for Active; 'I' for Inactive)
REMARK    1  A    between atoms: O_1  and  C_2
REMARK    2  A    between atoms: C_2  and  C_4
REMARK    3  A    between atoms: C_4  and  C_5
REMARK    4  A    between atoms: C_5  and  C_6
REMARK    5  A    between atoms: C_6  and  N_7
REMARK                            x       y       z     vdW  Elec       q    Type
REMARK                         _______ _______ _______ _____ _____    ______ ____
ROOT
ATOM      1  N   UNL     1       9.015  -1.215  24.612  0.00  0.00    -0.307 N 
ATOM      2  C   UNL     1       9.172  -2.582  24.256  0.00  0.00    +0.260 A 
ATOM      3  O   UNL     1      10.223  -3.063  23.851  0.00  0.00    -0.267 OA
ATOM      4  C   UNL     1       7.980  -3.460  24.376  0.00  0.00    +0.047 A 
ATOM      5  C   UNL     1       6.953  -3.058  25.220  0.00  0.00    +0.000 A 
ATOM      6  C   UNL     1       5.912  -3.927  25.521  0.00  0.00    +0.009 A 
ATOM      7  C   UNL     1       5.663  -4.971  24.644  0.00  0.00    +0.001 A 
ATOM      8  C   UNL     1       6.603  -5.295  23.664  0.00  0.00    +0.001 A 
ATOM      9  C   UNL     1       6.818  -1.623  25.418  0.00  0.00    +0.054 A 
ATOM     10  C   UNL     1       5.532  -0.897  25.505  0.00  0.00    +0.196 C 
ATOM     11  C   UNL     1       5.850   0.500  25.290  0.00  0.00    +0.031 A 
ATOM     12  C   UNL     1       7.233   0.608  25.115  0.00  0.00    +0.010 A 
ATOM     13  C   UNL     1       7.745   1.887  24.964  0.00  0.00    +0.011 A 
ATOM     14  C   UNL     1       6.868   2.991  24.972  0.00  0.00    +0.001 A 
ATOM     15  C   UNL     1       5.483   2.826  25.106  0.00  0.00    +0.001 A 
ATOM     16  C   UNL     1       4.951   1.555  25.261  0.00  0.00    +0.012 A 
ATOM     17  O   UNL     1       4.414  -1.352  25.647  0.00  0.00    -0.287 OA
ATOM     18  C   UNL     1       7.825  -4.616  23.612  0.00  0.00    +0.014 A 
ATOM     19  C   UNL     1       7.786  -0.746  25.089  0.00  0.00    +0.064 A 
ENDROOT
BRANCH   1  20
ATOM     20  C   UNL     1      10.185  -0.358  24.450  0.00  0.00    +0.126 C 
BRANCH  20  21
ATOM     21  C   UNL     1      10.518  -0.080  22.981  0.00  0.00    +0.033 C 
BRANCH  21  22
ATOM     22  C   UNL     1       9.270   0.018  22.106  0.00  0.00    +0.122 C 
BRANCH  22  23
ATOM     23  C   UNL     1       9.007   1.439  21.656  0.00  0.00    +0.305 C 
ATOM     24  O   UNL     1       7.903   1.901  21.407  0.00  0.00    -0.251 OA
BRANCH  23  25
ATOM     25  O   UNL     1      10.150   2.162  21.562  0.00  0.00    -0.481 OA
ATOM     26  H   UNL     1      10.102   2.887  20.904  0.00  0.00    +0.295 HD
ENDBRANCH  23  25
ENDBRANCH  22  23
ENDBRANCH  21  22
ENDBRANCH  20  21
ENDBRANCH   1  20
TORSDOF 5
ENDMDL
MODEL 6
REMARK VINA RESULT:      -6.2      3.472      4.688
REMARK  Name = 
REMARK  5 active torsions:
REMARK  status: ('A' for Active; 'I' for Inactive)
REMARK    1  A    between atoms: O_1  and  C_2
REMARK    2  A    between atoms: C_2  and  C_4
REMARK    3  A    between atoms: C_4  and  C_5
REMARK    4  A    between atoms: C_5  and  C_6
REMARK    5  A    between atoms: C_6  and  N_7
REMARK                            x       y       z     vdW  Elec       q    Type
REMARK                         _______ _______ _______ _____ _____    ______ ____
ROOT
ATOM      1  N   UNL     1       8.720   1.745  24.202  0.00  0.00    -0.307 N 
ATOM      2  C   UNL     1       9.815   2.187  23.411  0.00  0.00    +0.260 A 
ATOM      3  O   UNL     1      10.401   1.477  22.603  0.00  0.00    -0.267 OA
ATOM      4  C   UNL     1      10.269   3.589  23.595  0.00  0.00    +0.047 A 
ATOM      5  C   UNL     1       9.377   4.499  24.147  0.00  0.00    +0.000 A 
ATOM      6  C   UNL     1       9.677   5.855  24.160  0.00  0.00    +0.009 A 
ATOM      7  C   UNL     1      11.009   6.226  24.061  0.00  0.00    +0.001 A 
ATOM      8  C   UNL     1      11.966   5.288  23.674  0.00  0.00    +0.001 A 
ATOM      9  C   UNL     1       8.368   3.942  25.034  0.00  0.00    +0.054 A 
ATOM     10  C   UNL     1       7.898   4.576  26.286  0.00  0.00    +0.196 C 
ATOM     11  C   UNL     1       7.232   3.529  27.035  0.00  0.00    +0.031 A 
ATOM     12  C   UNL     1       7.275   2.357  26.273  0.00  0.00    +0.010 A 
ATOM     13  C   UNL     1       6.624   1.250  26.794  0.00  0.00    +0.011 A 
ATOM     14  C   UNL     1       5.983   1.348  28.046  0.00  0.00    +0.001 A 
ATOM     15  C   UNL     1       6.007   2.535  28.791  0.00  0.00    +0.001 A 
ATOM     16  C   UNL     1       6.651   3.653  28.287  0.00  0.00    +0.012 A 
ATOM     17  O   UNL     1       8.082   5.712  26.674  0.00  0.00    -0.287 OA
ATOM     18  C   UNL     1      11.574   3.993  23.316  0.00  0.00    +0.014 A 
ATOM     19  C   UNL     1       8.088   2.625  25.087  0.00  0.00    +0.064 A 
ENDROOT
BRANCH   1  20
ATOM     20  C   UNL     1       8.312   0.354  24.037  0.00  0.00    +0.126 C 
BRANCH  20  21
ATOM     21  C   UNL     1       9.151  -0.614  24.877  0.00  0.00    +0.033 C 
BRANCH  21  22
ATOM     22  C   UNL     1       9.137  -2.035  24.320  0.00  0.00    +0.122 C 
BRANCH  22  23
ATOM     23  C   UNL     1       9.520  -2.071  22.855  0.00  0.00    +0.305 C 
ATOM     24  O   UNL     1      10.635  -1.832  22.417  0.00  0.00    -0.251 OA
BRANCH  23  25
ATOM     25  O   UNL     1       8.470  -2.407  22.064  0.00  0.00    -0.481 OA
ATOM     26  H   UNL     1       7.798  -2.957  22.517  0.00  0.00    +0.295 HD
ENDBRANCH  23  25
ENDBRANCH  22  23
ENDBRANCH  21  22
ENDBRANCH  20  21
ENDBRANCH   1  20
TORSDOF 5
ENDMDL
MODEL 7
REMARK VINA RESULT:      -6.2      2.328      5.478
REMARK  Name = 
REMARK  5 active torsions:
REMARK  status: ('A' for Active; 'I' for Inactive)
REMARK    1  A    between atoms: O_1  and  C_2
REMARK    2  A    between atoms: C_2  and  C_4
REMARK    3  A    between atoms: C_4  and  C_5
REMARK    4  A    between atoms: C_5  and  C_6
REMARK    5  A    between atoms: C_6  and  N_7
REMARK                            x       y       z     vdW  Elec       q    Type
REMARK                         _______ _______ _______ _____ _____    ______ ____
ROOT
ATOM      1  N   UNL     1       7.195  -2.979  23.460  0.00  0.00    -0.307 N 
ATOM      2  C   UNL     1       6.814  -4.251  22.954  0.00  0.00    +0.260 A 
ATOM      3  O   UNL     1       7.033  -4.620  21.807  0.00  0.00    -0.267 OA
ATOM      4  C   UNL     1       6.099  -5.168  23.877  0.00  0.00    +0.047 A 
ATOM      5  C   UNL     1       6.234  -4.958  25.243  0.00  0.00    +0.000 A 
ATOM      6  C   UNL     1       5.752  -5.895  26.149  0.00  0.00    +0.009 A 
ATOM      7  C   UNL     1       4.762  -6.764  25.718  0.00  0.00    +0.001 A 
ATOM      8  C   UNL     1       4.477  -6.875  24.357  0.00  0.00    +0.001 A 
ATOM      9  C   UNL     1       6.510  -3.589  25.652  0.00  0.00    +0.054 A 
ATOM     10  C   UNL     1       5.931  -2.926  26.842  0.00  0.00    +0.196 C 
ATOM     11  C   UNL     1       6.134  -1.506  26.642  0.00  0.00    +0.031 A 
ATOM     12  C   UNL     1       6.812  -1.330  25.431  0.00  0.00    +0.010 A 
ATOM     13  C   UNL     1       7.162  -0.033  25.095  0.00  0.00    +0.011 A 
ATOM     14  C   UNL     1       6.810   1.027  25.956  0.00  0.00    +0.001 A 
ATOM     15  C   UNL     1       6.090   0.802  27.138  0.00  0.00    +0.001 A 
ATOM     16  C   UNL     1       5.733  -0.489  27.493  0.00  0.00    +0.012 A 
ATOM     17  O   UNL     1       5.334  -3.430  27.772  0.00  0.00    -0.287 OA
ATOM     18  C   UNL     1       5.238  -6.165  23.421  0.00  0.00    +0.014 A 
ATOM     19  C   UNL     1       6.928  -2.640  24.791  0.00  0.00    +0.064 A 
ENDROOT
BRANCH   1  20
ATOM     20  C   UNL     1       7.861  -2.076  22.528  0.00  0.00    +0.126 C 
BRANCH  20  21
ATOM     21  C   UNL     1       9.357  -1.922  22.819  0.00  0.00    +0.033 C 
BRANCH  21  22
ATOM     22  C   UNL     1      10.049  -0.974  21.842  0.00  0.00    +0.122 C 
BRANCH  22  23
ATOM     23  C   UNL     1       9.663   0.469  22.089  0.00  0.00    +0.305 C 
ATOM     24  O   UNL     1       9.909   1.095  23.110  0.00  0.00    -0.251 OA
BRANCH  23  25
ATOM     25  O   UNL     1       9.005   1.008  21.032  0.00  0.00    -0.481 OA
ATOM     26  H   UNL     1       8.922   0.398  20.270  0.00  0.00    +0.295 HD
ENDBRANCH  23  25
ENDBRANCH  22  23
ENDBRANCH  21  22
ENDBRANCH  20  21
ENDBRANCH   1  20
TORSDOF 5
ENDMDL
MODEL 8
REMARK VINA RESULT:      -6.1      2.001      5.175
REMARK  Name = 
REMARK  5 active torsions:
REMARK  status: ('A' for Active; 'I' for Inactive)
REMARK    1  A    between atoms: O_1  and  C_2
REMARK    2  A    between atoms: C_2  and  C_4
REMARK    3  A    between atoms: C_4  and  C_5
REMARK    4  A    between atoms: C_5  and  C_6
REMARK    5  A    between atoms: C_6  and  N_7
REMARK                            x       y       z     vdW  Elec       q    Type
REMARK                         _______ _______ _______ _____ _____    ______ ____
ROOT
ATOM      1  N   UNL     1       6.582  -2.704  24.337  0.00  0.00    -0.307 N 
ATOM      2  C   UNL     1       5.505  -2.866  25.249  0.00  0.00    +0.260 A 
ATOM      3  O   UNL     1       4.762  -3.840  25.257  0.00  0.00    -0.267 OA
ATOM      4  C   UNL     1       5.273  -1.779  26.233  0.00  0.00    +0.047 A 
ATOM      5  C   UNL     1       6.326  -0.922  26.522  0.00  0.00    +0.000 A 
ATOM      6  C   UNL     1       6.226  -0.017  27.572  0.00  0.00    +0.009 A 
ATOM      7  C   UNL     1       4.958   0.341  28.001  0.00  0.00    +0.001 A 
ATOM      8  C   UNL     1       3.849  -0.398  27.589  0.00  0.00    +0.001 A 
ATOM      9  C   UNL     1       7.310  -0.744  25.466  0.00  0.00    +0.054 A 
ATOM     10  C   UNL     1       7.961   0.539  25.121  0.00  0.00    +0.196 C 
ATOM     11  C   UNL     1       8.525   0.355  23.799  0.00  0.00    +0.031 A 
ATOM     12  C   UNL     1       8.256  -0.955  23.391  0.00  0.00    +0.010 A 
ATOM     13  C   UNL     1       8.779  -1.348  22.170  0.00  0.00    +0.011 A 
ATOM     14  C   UNL     1       9.522  -0.426  21.404  0.00  0.00    +0.001 A 
ATOM     15  C   UNL     1       9.727   0.891  21.838  0.00  0.00    +0.001 A 
ATOM     16  C   UNL     1       9.213   1.302  23.058  0.00  0.00    +0.012 A 
ATOM     17  O   UNL     1       7.974   1.575  25.755  0.00  0.00    -0.287 OA
ATOM     18  C   UNL     1       4.022  -1.542  26.801  0.00  0.00    +0.014 A 
ATOM     19  C   UNL     1       7.401  -1.571  24.406  0.00  0.00    +0.064 A 
ENDROOT
BRANCH   1  20
ATOM     20  C   UNL     1       6.772  -3.763  23.351  0.00  0.00    +0.126 C 
BRANCH  20  21
ATOM     21  C   UNL     1       8.005  -4.626  23.639  0.00  0.00    +0.033 C 
BRANCH  21  22
ATOM     22  C   UNL     1       7.941  -5.301  25.006  0.00  0.00    +0.122 C 
BRANCH  22  23
ATOM     23  C   UNL     1       9.126  -4.932  25.874  0.00  0.00    +0.305 C 
ATOM     24  O   UNL     1       9.071  -4.229  26.872  0.00  0.00    -0.251 OA
BRANCH  23  25
ATOM     25  O   UNL     1      10.280  -5.481  25.418  0.00  0.00    -0.481 OA
ATOM     26  H   UNL     1      10.671  -6.137  26.032  0.00  0.00    +0.295 HD
ENDBRANCH  23  25
ENDBRANCH  22  23
ENDBRANCH  21  22
ENDBRANCH  20  21
ENDBRANCH   1  20
TORSDOF 5
ENDMDL
MODEL 9
REMARK VINA RESULT:      -6.1      1.670      4.719
REMARK  Name = 
REMARK  5 active torsions:
REMARK  status: ('A' for Active; 'I' for Inactive)
REMARK    1  A    between atoms: O_1  and  C_2
REMARK    2  A    between atoms: C_2  and  C_4
REMARK    3  A    between atoms: C_4  and  C_5
REMARK    4  A    between atoms: C_5  and  C_6
REMARK    5  A    between atoms: C_6  and  N_7
REMARK                            x       y       z     vdW  Elec       q    Type
REMARK                         _______ _______ _______ _____ _____    ______ ____
ROOT
ATOM      1  N   UNL     1       7.924  -2.503  24.835  0.00  0.00    -0.307 N 
ATOM      2  C   UNL     1       6.979  -2.942  25.802  0.00  0.00    +0.260 A 
ATOM      3  O   UNL     1       6.623  -4.107  25.924  0.00  0.00    -0.267 OA
ATOM      4  C   UNL     1       6.393  -1.915  26.700  0.00  0.00    +0.047 A 
ATOM      5  C   UNL     1       7.084  -0.723  26.871  0.00  0.00    +0.000 A 
ATOM      6  C   UNL     1       6.686   0.186  27.844  0.00  0.00    +0.009 A 
ATOM      7  C   UNL     1       5.377   0.121  28.295  0.00  0.00    +0.001 A 
ATOM      8  C   UNL     1       4.590  -0.991  27.993  0.00  0.00    +0.001 A 
ATOM      9  C   UNL     1       7.934  -0.315  25.763  0.00  0.00    +0.054 A 
ATOM     10  C   UNL     1       8.094   1.076  25.285  0.00  0.00    +0.196 C 
ATOM     11  C   UNL     1       8.673   0.975  23.961  0.00  0.00    +0.031 A 
ATOM     12  C   UNL     1       8.873  -0.380  23.676  0.00  0.00    +0.010 A 
ATOM     13  C   UNL     1       9.488  -0.680  22.471  0.00  0.00    +0.011 A 
ATOM     14  C   UNL     1       9.856   0.366  21.600  0.00  0.00    +0.001 A 
ATOM     15  C   UNL     1       9.593   1.707  21.913  0.00  0.00    +0.001 A 
ATOM     16  C   UNL     1       8.981   2.028  23.114  0.00  0.00    +0.012 A 
ATOM     17  O   UNL     1       7.751   2.107  25.828  0.00  0.00    -0.287 OA
ATOM     18  C   UNL     1       5.143  -2.073  27.298  0.00  0.00    +0.014 A 
ATOM     19  C   UNL     1       8.297  -1.155  24.774  0.00  0.00    +0.064 A 
ENDROOT
BRANCH   1  20
ATOM     20  C   UNL     1       8.461  -3.518  23.936  0.00  0.00    +0.126 C 
BRANCH  20  21
ATOM     21  C   UNL     1       7.606  -3.708  22.679  0.00  0.00    +0.033 C 
BRANCH  21  22
ATOM     22  C   UNL     1       7.126  -5.148  22.510  0.00  0.00    +0.122 C 
BRANCH  22  23
ATOM     23  C   UNL     1       5.682  -5.213  22.061  0.00  0.00    +0.305 C 
ATOM     24  O   UNL     1       4.831  -4.375  22.320  0.00  0.00    -0.251 OA
BRANCH  23  25
ATOM     25  O   UNL     1       5.429  -6.321  21.320  0.00  0.00    -0.481 OA
ATOM     26  H   UNL     1       5.122  -7.085  21.851  0.00  0.00    +0.295 HD
ENDBRANCH  23  25
ENDBRANCH  22  23
ENDBRANCH  21  22
ENDBRANCH  20  21
ENDBRANCH   1  20
TORSDOF 5
ENDMDL
