MODEL 1
REMARK VINA RESULT:      -4.8      0.000      0.000
REMARK  Name = 
REMARK  29 active torsions:
REMARK  status: ('A' for Active; 'I' for Inactive)
REMARK    1  A    between atoms: C_1  and  C_2
REMARK    2  A    between atoms: C_2  and  C_3
REMARK    3  A    between atoms: C_3  and  C_4
REMARK    4  A    between atoms: C_4  and  C_5
REMARK    5  A    between atoms: C_5  and  C_6
REMARK    6  A    between atoms: C_6  and  C_7
REMARK    7  A    between atoms: C_7  and  C_8
REMARK    8  A    between atoms: C_8  and  C_9
REMARK    9  A    between atoms: C_9  and  C_10
REMARK   10  A    between atoms: C_10  and  C_11
REMARK   11  A    between atoms: C_11  and  C_12
REMARK   12  A    between atoms: C_12  and  C_13
REMARK   13  A    between atoms: C_13  and  C_14
REMARK   14  A    between atoms: C_14  and  C_15
REMARK   15  A    between atoms: C_15  and  O_17
REMARK   16  A    between atoms: C_15  and  O_18
REMARK   17  A    between atoms: O_18  and  C_19
REMARK   18  A    between atoms: C_19  and  C_20
REMARK   19  A    between atoms: C_20  and  O_22
REMARK   20  A    between atoms: C_20  and  C_23
REMARK   21  A    between atoms: C_23  and  O_24
REMARK   22  A    between atoms: O_24  and  P_25
REMARK   23  A    between atoms: P_25  and  O_26
REMARK   24  A    between atoms: P_25  and  O_28
REMARK   25  A    between atoms: O_28  and  C_29
REMARK   26  A    between atoms: C_29  and  C_30
REMARK   27  A    between atoms: C_30  and  N_32
REMARK   28  A    between atoms: C_30  and  C_33
REMARK   29  A    between atoms: C_33  and  O_34
REMARK                            x       y       z     vdW  Elec       q    Type
REMARK                         _______ _______ _______ _____ _____    ______ ____
ROOT
ATOM      1  C   UNK     1       8.678  -5.208  25.331  0.00  0.00    +0.196 C 
ENDROOT
BRANCH   1   2
ATOM      2  O   UNK     1       8.133  -4.274  24.408  0.00  0.00    -0.349 OA
BRANCH   2   3
ATOM      3  C   UNK     1       7.611  -4.876  23.229  0.00  0.00    +0.247 C 
BRANCH   3   4
ATOM      4  O   UNK     1       6.509  -5.707  23.551  0.00  0.00    -0.367 OA
ATOM      5  H   UNK     1       6.572  -6.484  22.976  0.00  0.00    +0.212 HD
ENDBRANCH   3   4
BRANCH   3   6
ATOM      6  C   UNK     1       7.117  -3.738  22.338  0.00  0.00    +0.061 C 
BRANCH   6   7
ATOM      7  C   UNK     1       7.716  -2.372  22.684  0.00  0.00    +0.005 C 
BRANCH   7   8
ATOM      8  C   UNK     1       6.588  -1.367  22.914  0.00  0.00    +0.000 C 
BRANCH   8   9
ATOM      9  C   UNK     1       6.984  -0.206  23.824  0.00  0.00    +0.000 C 
BRANCH   9  10
ATOM     10  C   UNK     1       7.521  -0.762  25.142  0.00  0.00    +0.000 C 
BRANCH  10  11
ATOM     11  C   UNK     1       8.884  -0.187  25.511  0.00  0.00    -0.000 C 
BRANCH  11  12
ATOM     12  C   UNK     1       9.980  -0.861  24.683  0.00  0.00    -0.000 C 
BRANCH  12  13
ATOM     13  C   UNK     1      10.685   0.138  23.775  0.00  0.00    -0.000 C 
BRANCH  13  14
ATOM     14  C   UNK     1      10.452   1.571  24.249  0.00  0.00    -0.000 C 
BRANCH  14  15
ATOM     15  C   UNK     1      10.027   2.464  23.086  0.00  0.00    -0.000 C 
BRANCH  15  16
ATOM     16  C   UNK     1       9.614   1.635  21.872  0.00  0.00    -0.000 C 
BRANCH  16  17
ATOM     17  C   UNK     1       8.204   2.002  21.419  0.00  0.00    -0.000 C 
BRANCH  17  19
ATOM     18  C   UNK     1       6.125   3.077  22.333  0.00  0.00    +0.004 C 
ATOM     19  C   UNK     1       7.639   3.160  22.237  0.00  0.00    -0.003 C 
ENDBRANCH  17  19
ENDBRANCH  16  17
ENDBRANCH  15  16
ENDBRANCH  14  15
ENDBRANCH  13  14
ENDBRANCH  12  13
ENDBRANCH  11  12
ENDBRANCH  10  11
ENDBRANCH   9  10
ENDBRANCH   8   9
ENDBRANCH   7   8
ENDBRANCH   6   7
ENDBRANCH   3   6
ENDBRANCH   2   3
ENDBRANCH   1   2
BRANCH   1  20
ATOM     20  C   UNK     1       8.305  -4.805  26.759  0.00  0.00    +0.166 C 
BRANCH  20  21
ATOM     21  O   UNK     1       7.944  -5.979  27.495  0.00  0.00    -0.387 OA
ATOM     22  H   UNK     1       7.993  -6.717  26.855  0.00  0.00    +0.210 HD
ENDBRANCH  20  21
BRANCH  20  23
ATOM     23  C   UNK     1       7.137  -3.818  26.770  0.00  0.00    +0.206 C 
BRANCH  23  24
ATOM     24  O   UNK     1       6.071  -4.355  27.555  0.00  0.00    -0.284 OA
BRANCH  24  25
ATOM     25  P   UNK     1       4.657  -4.624  26.596  0.00  0.00    +0.475 P 
ATOM     26  O   UNK     1       5.165  -6.030  26.271  0.00  0.00    -0.227 OA
BRANCH  25  27
ATOM     27  O   UNK     1       5.289  -3.705  25.405  0.00  0.00    -0.302 OA
ATOM     28  H   UNK     1       4.533  -3.245  24.989  0.00  0.00    +0.222 HD
ENDBRANCH  25  27
BRANCH  25  29
ATOM     29  O   UNK     1       3.244  -4.893  25.636  0.00  0.00    -0.285 OA
BRANCH  29  30
ATOM     30  C   UNK     1       2.874  -6.281  25.607  0.00  0.00    +0.202 C 
BRANCH  30  31
ATOM     31  C   UNK     1       2.888  -6.818  24.175  0.00  0.00    +0.187 C 
BRANCH  31  32
ATOM     32  N   UNK     1       4.192  -7.482  23.841  0.00  0.00    -0.317 NA
ATOM     33  H   UNK     1       4.355  -8.176  24.580  0.00  0.00    +0.119 HD
ATOM     34  H   UNK     1       4.033  -8.057  23.006  0.00  0.00    +0.119 HD
ENDBRANCH  31  32
BRANCH  31  35
ATOM     35  C   UNK     1       2.663  -5.645  23.214  0.00  0.00    +0.324 C 
ATOM     36  O   UNK     1       1.584  -5.306  22.756  0.00  0.00    -0.249 OA
BRANCH  35  37
ATOM     37  O   UNK     1       3.822  -4.986  22.951  0.00  0.00    -0.479 OA
ATOM     38  H   UNK     1       4.063  -5.215  22.018  0.00  0.00    +0.295 HD
ENDBRANCH  35  37
ENDBRANCH  31  35
ENDBRANCH  30  31
ENDBRANCH  29  30
ENDBRANCH  25  29
ENDBRANCH  24  25
ENDBRANCH  23  24
ENDBRANCH  20  23
ENDBRANCH   1  20
TORSDOF 28
ENDMDL
MODEL 2
REMARK VINA RESULT:      -4.6      1.448      2.339
REMARK  Name = 
REMARK  29 active torsions:
REMARK  status: ('A' for Active; 'I' for Inactive)
REMARK    1  A    between atoms: C_1  and  C_2
REMARK    2  A    between atoms: C_2  and  C_3
REMARK    3  A    between atoms: C_3  and  C_4
REMARK    4  A    between atoms: C_4  and  C_5
REMARK    5  A    between atoms: C_5  and  C_6
REMARK    6  A    between atoms: C_6  and  C_7
REMARK    7  A    between atoms: C_7  and  C_8
REMARK    8  A    between atoms: C_8  and  C_9
REMARK    9  A    between atoms: C_9  and  C_10
REMARK   10  A    between atoms: C_10  and  C_11
REMARK   11  A    between atoms: C_11  and  C_12
REMARK   12  A    between atoms: C_12  and  C_13
REMARK   13  A    between atoms: C_13  and  C_14
REMARK   14  A    between atoms: C_14  and  C_15
REMARK   15  A    between atoms: C_15  and  O_17
REMARK   16  A    between atoms: C_15  and  O_18
REMARK   17  A    between atoms: O_18  and  C_19
REMARK   18  A    between atoms: C_19  and  C_20
REMARK   19  A    between atoms: C_20  and  O_22
REMARK   20  A    between atoms: C_20  and  C_23
REMARK   21  A    between atoms: C_23  and  O_24
REMARK   22  A    between atoms: O_24  and  P_25
REMARK   23  A    between atoms: P_25  and  O_26
REMARK   24  A    between atoms: P_25  and  O_28
REMARK   25  A    between atoms: O_28  and  C_29
REMARK   26  A    between atoms: C_29  and  C_30
REMARK   27  A    between atoms: C_30  and  N_32
REMARK   28  A    between atoms: C_30  and  C_33
REMARK   29  A    between atoms: C_33  and  O_34
REMARK                            x       y       z     vdW  Elec       q    Type
REMARK                         _______ _______ _______ _____ _____    ______ ____
ROOT
ATOM      1  C   UNK     1       9.007  -3.751  24.801  0.00  0.00    +0.196 C 
ENDROOT
BRANCH   1   2
ATOM      2  O   UNK     1       8.511  -4.467  23.676  0.00  0.00    -0.349 OA
BRANCH   2   3
ATOM      3  C   UNK     1       7.881  -3.637  22.706  0.00  0.00    +0.247 C 
BRANCH   3   4
ATOM      4  O   UNK     1       6.523  -4.014  22.550  0.00  0.00    -0.367 OA
ATOM      5  H   UNK     1       6.012  -3.469  23.168  0.00  0.00    +0.212 HD
ENDBRANCH   3   4
BRANCH   3   6
ATOM      6  C   UNK     1       7.930  -2.211  23.251  0.00  0.00    +0.061 C 
BRANCH   6   7
ATOM      7  C   UNK     1       6.650  -1.407  23.003  0.00  0.00    +0.005 C 
BRANCH   7   8
ATOM      8  C   UNK     1       6.043  -0.995  24.344  0.00  0.00    +0.000 C 
BRANCH   8   9
ATOM      9  C   UNK     1       6.150   0.502  24.626  0.00  0.00    +0.000 C 
BRANCH   9  10
ATOM     10  C   UNK     1       7.420   0.772  25.433  0.00  0.00    +0.000 C 
BRANCH  10  11
ATOM     11  C   UNK     1       7.405   2.135  26.115  0.00  0.00    -0.000 C 
BRANCH  11  12
ATOM     12  C   UNK     1       7.235   3.243  25.074  0.00  0.00    -0.000 C 
BRANCH  12  13
ATOM     13  C   UNK     1       8.537   4.000  24.849  0.00  0.00    -0.000 C 
BRANCH  13  14
ATOM     14  C   UNK     1       8.991   3.892  23.394  0.00  0.00    -0.000 C 
BRANCH  14  15
ATOM     15  C   UNK     1       7.946   3.163  22.553  0.00  0.00    -0.000 C 
BRANCH  15  16
ATOM     16  C   UNK     1       8.536   1.922  21.887  0.00  0.00    -0.000 C 
BRANCH  16  17
ATOM     17  C   UNK     1      10.009   1.759  22.252  0.00  0.00    -0.000 C 
BRANCH  17  19
ATOM     18  C   UNK     1      10.943   0.754  24.356  0.00  0.00    +0.004 C 
ATOM     19  C   UNK     1      10.251   0.471  23.034  0.00  0.00    -0.003 C 
ENDBRANCH  17  19
ENDBRANCH  16  17
ENDBRANCH  15  16
ENDBRANCH  14  15
ENDBRANCH  13  14
ENDBRANCH  12  13
ENDBRANCH  11  12
ENDBRANCH  10  11
ENDBRANCH   9  10
ENDBRANCH   8   9
ENDBRANCH   7   8
ENDBRANCH   6   7
ENDBRANCH   3   6
ENDBRANCH   2   3
ENDBRANCH   1   2
BRANCH   1  20
ATOM     20  C   UNK     1       9.421  -4.733  25.899  0.00  0.00    +0.166 C 
BRANCH  20  21
ATOM     21  O   UNK     1      10.088  -5.849  25.298  0.00  0.00    -0.387 OA
ATOM     22  H   UNK     1       9.484  -6.172  24.599  0.00  0.00    +0.210 HD
ENDBRANCH  20  21
BRANCH  20  23
ATOM     23  C   UNK     1       8.209  -5.230  26.687  0.00  0.00    +0.206 C 
BRANCH  23  24
ATOM     24  O   UNK     1       7.110  -4.342  26.474  0.00  0.00    -0.284 OA
BRANCH  24  25
ATOM     25  P   UNK     1       5.627  -5.211  26.285  0.00  0.00    +0.475 P 
ATOM     26  O   UNK     1       6.198  -6.340  27.146  0.00  0.00    -0.227 OA
BRANCH  25  27
ATOM     27  O   UNK     1       6.062  -5.628  24.769  0.00  0.00    -0.302 OA
ATOM     28  H   UNK     1       6.947  -5.238  24.625  0.00  0.00    +0.222 HD
ENDBRANCH  25  27
BRANCH  25  29
ATOM     29  O   UNK     1       4.143  -6.081  26.097  0.00  0.00    -0.285 OA
BRANCH  29  30
ATOM     30  C   UNK     1       4.163  -6.925  24.934  0.00  0.00    +0.202 C 
BRANCH  30  31
ATOM     31  C   UNK     1       2.785  -6.975  24.275  0.00  0.00    +0.187 C 
BRANCH  31  32
ATOM     32  N   UNK     1       2.496  -8.326  23.686  0.00  0.00    -0.317 NA
ATOM     33  H   UNK     1       1.487  -8.477  23.803  0.00  0.00    +0.119 HD
ATOM     34  H   UNK     1       2.606  -8.242  22.669  0.00  0.00    +0.119 HD
ENDBRANCH  31  32
BRANCH  31  35
ATOM     35  C   UNK     1       2.742  -5.925  23.159  0.00  0.00    +0.324 C 
ATOM     36  O   UNK     1       1.733  -5.379  22.744  0.00  0.00    -0.249 OA
BRANCH  35  37
ATOM     37  O   UNK     1       3.986  -5.635  22.697  0.00  0.00    -0.479 OA
ATOM     38  H   UNK     1       3.966  -5.810  21.722  0.00  0.00    +0.295 HD
ENDBRANCH  35  37
ENDBRANCH  31  35
ENDBRANCH  30  31
ENDBRANCH  29  30
ENDBRANCH  25  29
ENDBRANCH  24  25
ENDBRANCH  23  24
ENDBRANCH  20  23
ENDBRANCH   1  20
TORSDOF 28
ENDMDL
MODEL 3
REMARK VINA RESULT:      -4.5      5.084      8.878
REMARK  Name = 
REMARK  29 active torsions:
REMARK  status: ('A' for Active; 'I' for Inactive)
REMARK    1  A    between atoms: C_1  and  C_2
REMARK    2  A    between atoms: C_2  and  C_3
REMARK    3  A    between atoms: C_3  and  C_4
REMARK    4  A    between atoms: C_4  and  C_5
REMARK    5  A    between atoms: C_5  and  C_6
REMARK    6  A    between atoms: C_6  and  C_7
REMARK    7  A    between atoms: C_7  and  C_8
REMARK    8  A    between atoms: C_8  and  C_9
REMARK    9  A    between atoms: C_9  and  C_10
REMARK   10  A    between atoms: C_10  and  C_11
REMARK   11  A    between atoms: C_11  and  C_12
REMARK   12  A    between atoms: C_12  and  C_13
REMARK   13  A    between atoms: C_13  and  C_14
REMARK   14  A    between atoms: C_14  and  C_15
REMARK   15  A    between atoms: C_15  and  O_17
REMARK   16  A    between atoms: C_15  and  O_18
REMARK   17  A    between atoms: O_18  and  C_19
REMARK   18  A    between atoms: C_19  and  C_20
REMARK   19  A    between atoms: C_20  and  O_22
REMARK   20  A    between atoms: C_20  and  C_23
REMARK   21  A    between atoms: C_23  and  O_24
REMARK   22  A    between atoms: O_24  and  P_25
REMARK   23  A    between atoms: P_25  and  O_26
REMARK   24  A    between atoms: P_25  and  O_28
REMARK   25  A    between atoms: O_28  and  C_29
REMARK   26  A    between atoms: C_29  and  C_30
REMARK   27  A    between atoms: C_30  and  N_32
REMARK   28  A    between atoms: C_30  and  C_33
REMARK   29  A    between atoms: C_33  and  O_34
REMARK                            x       y       z     vdW  Elec       q    Type
REMARK                         _______ _______ _______ _____ _____    ______ ____
ROOT
ATOM      1  C   UNK     1       9.399  -2.321  24.158  0.00  0.00    +0.196 C 
ENDROOT
BRANCH   1   2
ATOM      2  O   UNK     1      10.140  -3.529  24.283  0.00  0.00    -0.349 OA
BRANCH   2   3
ATOM      3  C   UNK     1       9.368  -4.622  24.768  0.00  0.00    +0.247 C 
BRANCH   3   4
ATOM      4  O   UNK     1      10.221  -5.664  25.211  0.00  0.00    -0.367 OA
ATOM      5  H   UNK     1       9.826  -6.494  24.904  0.00  0.00    +0.212 HD
ENDBRANCH   3   4
BRANCH   3   6
ATOM      6  C   UNK     1       8.575  -4.102  25.965  0.00  0.00    +0.061 C 
BRANCH   6   7
ATOM      7  C   UNK     1       7.938  -5.205  26.815  0.00  0.00    +0.005 C 
BRANCH   7   8
ATOM      8  C   UNK     1       6.632  -4.689  27.419  0.00  0.00    +0.000 C 
BRANCH   8   9
ATOM      9  C   UNK     1       5.417  -5.543  27.062  0.00  0.00    +0.000 C 
BRANCH   9  10
ATOM     10  C   UNK     1       4.206  -4.634  26.857  0.00  0.00    +0.000 C 
BRANCH  10  11
ATOM     11  C   UNK     1       4.582  -3.157  26.804  0.00  0.00    -0.000 C 
BRANCH  11  12
ATOM     12  C   UNK     1       4.267  -2.583  25.421  0.00  0.00    -0.000 C 
BRANCH  12  13
ATOM     13  C   UNK     1       5.526  -2.442  24.577  0.00  0.00    -0.000 C 
BRANCH  13  14
ATOM     14  C   UNK     1       5.411  -3.242  23.280  0.00  0.00    -0.000 C 
BRANCH  14  15
ATOM     15  C   UNK     1       5.887  -4.677  23.486  0.00  0.00    -0.000 C 
BRANCH  15  16
ATOM     16  C   UNK     1       4.925  -5.678  22.850  0.00  0.00    -0.000 C 
BRANCH  16  17
ATOM     17  C   UNK     1       3.485  -5.381  23.258  0.00  0.00    -0.000 C 
BRANCH  17  19
ATOM     18  C   UNK     1       3.160  -7.426  24.680  0.00  0.00    +0.004 C 
ATOM     19  C   UNK     1       2.684  -6.666  23.454  0.00  0.00    -0.003 C 
ENDBRANCH  17  19
ENDBRANCH  16  17
ENDBRANCH  15  16
ENDBRANCH  14  15
ENDBRANCH  13  14
ENDBRANCH  12  13
ENDBRANCH  11  12
ENDBRANCH  10  11
ENDBRANCH   9  10
ENDBRANCH   8   9
ENDBRANCH   7   8
ENDBRANCH   6   7
ENDBRANCH   3   6
ENDBRANCH   2   3
ENDBRANCH   1   2
BRANCH   1  20
ATOM     20  C   UNK     1       9.142  -2.021  22.679  0.00  0.00    +0.166 C 
BRANCH  20  21
ATOM     21  O   UNK     1      10.394  -1.767  22.031  0.00  0.00    -0.387 OA
ATOM     22  H   UNK     1      10.748  -2.647  21.790  0.00  0.00    +0.210 HD
ENDBRANCH  20  21
BRANCH  20  23
ATOM     23  C   UNK     1       8.227  -0.809  22.509  0.00  0.00    +0.206 C 
BRANCH  23  24
ATOM     24  O   UNK     1       8.887   0.175  21.711  0.00  0.00    -0.284 OA
BRANCH  24  25
ATOM     25  P   UNK     1       8.899   1.716  22.495  0.00  0.00    +0.475 P 
ATOM     26  O   UNK     1       7.721   2.152  21.621  0.00  0.00    -0.227 OA
BRANCH  25  27
ATOM     27  O   UNK     1      10.205   2.153  21.621  0.00  0.00    -0.302 OA
ATOM     28  H   UNK     1      10.168   1.626  20.798  0.00  0.00    +0.222 HD
ENDBRANCH  25  27
BRANCH  25  29
ATOM     29  O   UNK     1       8.911   3.259  23.278  0.00  0.00    -0.285 OA
BRANCH  29  30
ATOM     30  C   UNK     1      10.245   3.686  23.599  0.00  0.00    +0.202 C 
BRANCH  30  31
ATOM     31  C   UNK     1      10.291   5.195  23.837  0.00  0.00    +0.187 C 
BRANCH  31  32
ATOM     32  N   UNK     1       9.375   5.935  22.906  0.00  0.00    -0.317 NA
ATOM     33  H   UNK     1       8.450   5.500  23.012  0.00  0.00    +0.119 HD
ATOM     34  H   UNK     1       9.241   6.874  23.297  0.00  0.00    +0.119 HD
ENDBRANCH  31  32
BRANCH  31  35
ATOM     35  C   UNK     1      11.729   5.678  23.611  0.00  0.00    +0.324 C 
ATOM     36  O   UNK     1      12.354   6.404  24.367  0.00  0.00    -0.249 OA
BRANCH  35  37
ATOM     37  O   UNK     1      12.254   5.169  22.466  0.00  0.00    -0.479 OA
ATOM     38  H   UNK     1      12.976   4.552  22.745  0.00  0.00    +0.295 HD
ENDBRANCH  35  37
ENDBRANCH  31  35
ENDBRANCH  30  31
ENDBRANCH  29  30
ENDBRANCH  25  29
ENDBRANCH  24  25
ENDBRANCH  23  24
ENDBRANCH  20  23
ENDBRANCH   1  20
TORSDOF 28
ENDMDL
MODEL 4
REMARK VINA RESULT:      -4.5      1.975      4.285
REMARK  Name = 
REMARK  29 active torsions:
REMARK  status: ('A' for Active; 'I' for Inactive)
REMARK    1  A    between atoms: C_1  and  C_2
REMARK    2  A    between atoms: C_2  and  C_3
REMARK    3  A    between atoms: C_3  and  C_4
REMARK    4  A    between atoms: C_4  and  C_5
REMARK    5  A    between atoms: C_5  and  C_6
REMARK    6  A    between atoms: C_6  and  C_7
REMARK    7  A    between atoms: C_7  and  C_8
REMARK    8  A    between atoms: C_8  and  C_9
REMARK    9  A    between atoms: C_9  and  C_10
REMARK   10  A    between atoms: C_10  and  C_11
REMARK   11  A    between atoms: C_11  and  C_12
REMARK   12  A    between atoms: C_12  and  C_13
REMARK   13  A    between atoms: C_13  and  C_14
REMARK   14  A    between atoms: C_14  and  C_15
REMARK   15  A    between atoms: C_15  and  O_17
REMARK   16  A    between atoms: C_15  and  O_18
REMARK   17  A    between atoms: O_18  and  C_19
REMARK   18  A    between atoms: C_19  and  C_20
REMARK   19  A    between atoms: C_20  and  O_22
REMARK   20  A    between atoms: C_20  and  C_23
REMARK   21  A    between atoms: C_23  and  O_24
REMARK   22  A    between atoms: O_24  and  P_25
REMARK   23  A    between atoms: P_25  and  O_26
REMARK   24  A    between atoms: P_25  and  O_28
REMARK   25  A    between atoms: O_28  and  C_29
REMARK   26  A    between atoms: C_29  and  C_30
REMARK   27  A    between atoms: C_30  and  N_32
REMARK   28  A    between atoms: C_30  and  C_33
REMARK   29  A    between atoms: C_33  and  O_34
REMARK                            x       y       z     vdW  Elec       q    Type
REMARK                         _______ _______ _______ _____ _____    ______ ____
ROOT
ATOM      1  C   UNK     1       7.369  -4.658  22.516  0.00  0.00    +0.196 C 
ENDROOT
BRANCH   1   2
ATOM      2  O   UNK     1       7.235  -5.264  23.796  0.00  0.00    -0.349 OA
BRANCH   2   3
ATOM      3  C   UNK     1       8.252  -4.883  24.715  0.00  0.00    +0.247 C 
BRANCH   3   4
ATOM      4  O   UNK     1       9.470  -5.531  24.393  0.00  0.00    -0.367 OA
ATOM      5  H   UNK     1       9.326  -5.987  23.549  0.00  0.00    +0.212 HD
ENDBRANCH   3   4
BRANCH   3   6
ATOM      6  C   UNK     1       8.446  -3.376  24.556  0.00  0.00    +0.061 C 
BRANCH   6   7
ATOM      7  C   UNK     1       9.889  -2.964  24.251  0.00  0.00    +0.005 C 
BRANCH   7   8
ATOM      8  C   UNK     1       9.902  -1.540  23.696  0.00  0.00    +0.000 C 
BRANCH   8   9
ATOM      9  C   UNK     1      10.051  -0.469  24.776  0.00  0.00    +0.000 C 
BRANCH   9  10
ATOM     10  C   UNK     1      10.872   0.694  24.219  0.00  0.00    +0.000 C 
BRANCH  10  11
ATOM     11  C   UNK     1      10.002   1.818  23.669  0.00  0.00    -0.000 C 
BRANCH  11  12
ATOM     12  C   UNK     1       9.980   1.768  22.141  0.00  0.00    -0.000 C 
BRANCH  12  13
ATOM     13  C   UNK     1       8.630   1.296  21.618  0.00  0.00    -0.000 C 
BRANCH  13  14
ATOM     14  C   UNK     1       7.556   1.400  22.699  0.00  0.00    -0.000 C 
BRANCH  14  15
ATOM     15  C   UNK     1       6.871   0.053  22.914  0.00  0.00    -0.000 C 
BRANCH  15  16
ATOM     16  C   UNK     1       6.402  -0.108  24.358  0.00  0.00    -0.000 C 
BRANCH  16  17
ATOM     17  C   UNK     1       6.674   1.161  25.161  0.00  0.00    -0.000 C 
BRANCH  17  19
ATOM     18  C   UNK     1       7.038  -0.661  26.853  0.00  0.00    +0.004 C 
ATOM     19  C   UNK     1       7.069   0.836  26.599  0.00  0.00    -0.003 C 
ENDBRANCH  17  19
ENDBRANCH  16  17
ENDBRANCH  15  16
ENDBRANCH  14  15
ENDBRANCH  13  14
ENDBRANCH  12  13
ENDBRANCH  11  12
ENDBRANCH  10  11
ENDBRANCH   9  10
ENDBRANCH   8   9
ENDBRANCH   7   8
ENDBRANCH   6   7
ENDBRANCH   3   6
ENDBRANCH   2   3
ENDBRANCH   1   2
BRANCH   1  20
ATOM     20  C   UNK     1       6.025  -4.688  21.785  0.00  0.00    +0.166 C 
BRANCH  20  21
ATOM     21  O   UNK     1       5.470  -3.368  21.776  0.00  0.00    -0.387 OA
ATOM     22  H   UNK     1       4.640  -3.427  22.289  0.00  0.00    +0.210 HD
ENDBRANCH  20  21
BRANCH  20  23
ATOM     23  C   UNK     1       5.045  -5.646  22.463  0.00  0.00    +0.206 C 
BRANCH  23  24
ATOM     24  O   UNK     1       3.863  -4.933  22.831  0.00  0.00    -0.284 OA
BRANCH  24  25
ATOM     25  P   UNK     1       3.576  -5.026  24.534  0.00  0.00    +0.475 P 
ATOM     26  O   UNK     1       4.430  -3.771  24.730  0.00  0.00    -0.227 OA
BRANCH  25  27
ATOM     27  O   UNK     1       4.656  -6.244  24.651  0.00  0.00    -0.302 OA
ATOM     28  H   UNK     1       5.385  -5.906  25.208  0.00  0.00    +0.222 HD
ENDBRANCH  25  27
BRANCH  25  29
ATOM     29  O   UNK     1       3.291  -5.119  26.237  0.00  0.00    -0.285 OA
BRANCH  29  30
ATOM     30  C   UNK     1       4.223  -5.997  26.889  0.00  0.00    +0.202 C 
BRANCH  30  31
ATOM     31  C   UNK     1       4.962  -5.269  28.012  0.00  0.00    +0.187 C 
BRANCH  31  32
ATOM     32  N   UNK     1       5.948  -4.271  27.477  0.00  0.00    -0.317 NA
ATOM     33  H   UNK     1       5.518  -3.348  27.613  0.00  0.00    +0.119 HD
ATOM     34  H   UNK     1       6.746  -4.258  28.122  0.00  0.00    +0.119 HD
ENDBRANCH  31  32
BRANCH  31  35
ATOM     35  C   UNK     1       5.713  -6.309  28.853  0.00  0.00    +0.324 C 
ATOM     36  O   UNK     1       6.476  -6.055  29.770  0.00  0.00    -0.249 OA
BRANCH  35  37
ATOM     37  O   UNK     1       5.398  -7.577  28.477  0.00  0.00    -0.479 OA
ATOM     38  H   UNK     1       5.187  -8.067  29.311  0.00  0.00    +0.295 HD
ENDBRANCH  35  37
ENDBRANCH  31  35
ENDBRANCH  30  31
ENDBRANCH  29  30
ENDBRANCH  25  29
ENDBRANCH  24  25
ENDBRANCH  23  24
ENDBRANCH  20  23
ENDBRANCH   1  20
TORSDOF 28
ENDMDL
MODEL 5
REMARK VINA RESULT:      -4.4      1.507      2.843
REMARK  Name = 
REMARK  29 active torsions:
REMARK  status: ('A' for Active; 'I' for Inactive)
REMARK    1  A    between atoms: C_1  and  C_2
REMARK    2  A    between atoms: C_2  and  C_3
REMARK    3  A    between atoms: C_3  and  C_4
REMARK    4  A    between atoms: C_4  and  C_5
REMARK    5  A    between atoms: C_5  and  C_6
REMARK    6  A    between atoms: C_6  and  C_7
REMARK    7  A    between atoms: C_7  and  C_8
REMARK    8  A    between atoms: C_8  and  C_9
REMARK    9  A    between atoms: C_9  and  C_10
REMARK   10  A    between atoms: C_10  and  C_11
REMARK   11  A    between atoms: C_11  and  C_12
REMARK   12  A    between atoms: C_12  and  C_13
REMARK   13  A    between atoms: C_13  and  C_14
REMARK   14  A    between atoms: C_14  and  C_15
REMARK   15  A    between atoms: C_15  and  O_17
REMARK   16  A    between atoms: C_15  and  O_18
REMARK   17  A    between atoms: O_18  and  C_19
REMARK   18  A    between atoms: C_19  and  C_20
REMARK   19  A    between atoms: C_20  and  O_22
REMARK   20  A    between atoms: C_20  and  C_23
REMARK   21  A    between atoms: C_23  and  O_24
REMARK   22  A    between atoms: O_24  and  P_25
REMARK   23  A    between atoms: P_25  and  O_26
REMARK   24  A    between atoms: P_25  and  O_28
REMARK   25  A    between atoms: O_28  and  C_29
REMARK   26  A    between atoms: C_29  and  C_30
REMARK   27  A    between atoms: C_30  and  N_32
REMARK   28  A    between atoms: C_30  and  C_33
REMARK   29  A    between atoms: C_33  and  O_34
REMARK                            x       y       z     vdW  Elec       q    Type
REMARK                         _______ _______ _______ _____ _____    ______ ____
ROOT
ATOM      1  C   UNK     1       8.126  -5.264  23.644  0.00  0.00    +0.196 C 
ENDROOT
BRANCH   1   2
ATOM      2  O   UNK     1       6.725  -5.031  23.705  0.00  0.00    -0.349 OA
BRANCH   2   3
ATOM      3  C   UNK     1       6.194  -4.443  22.523  0.00  0.00    +0.247 C 
BRANCH   3   4
ATOM      4  O   UNK     1       5.337  -5.359  21.863  0.00  0.00    -0.367 OA
ATOM      5  H   UNK     1       4.856  -4.853  21.191  0.00  0.00    +0.212 HD
ENDBRANCH   3   4
BRANCH   3   6
ATOM      6  C   UNK     1       5.366  -3.238  22.966  0.00  0.00    +0.061 C 
BRANCH   6   7
ATOM      7  C   UNK     1       6.206  -2.057  23.463  0.00  0.00    +0.005 C 
BRANCH   7   8
ATOM      8  C   UNK     1       5.688  -1.607  24.829  0.00  0.00    +0.000 C 
BRANCH   8   9
ATOM      9  C   UNK     1       5.772  -0.096  25.044  0.00  0.00    +0.000 C 
BRANCH   9  10
ATOM     10  C   UNK     1       6.403   0.551  23.811  0.00  0.00    +0.000 C 
BRANCH  10  11
ATOM     11  C   UNK     1       6.824   1.995  24.057  0.00  0.00    -0.000 C 
BRANCH  11  12
ATOM     12  C   UNK     1       8.134   2.294  23.325  0.00  0.00    -0.000 C 
BRANCH  12  13
ATOM     13  C   UNK     1       8.097   1.787  21.890  0.00  0.00    -0.000 C 
BRANCH  13  14
ATOM     14  C   UNK     1       9.442   1.186  21.485  0.00  0.00    -0.000 C 
BRANCH  14  15
ATOM     15  C   UNK     1       9.440  -0.327  21.681  0.00  0.00    -0.000 C 
BRANCH  15  16
ATOM     16  C   UNK     1      10.393  -0.744  22.799  0.00  0.00    -0.000 C 
BRANCH  16  17
ATOM     17  C   UNK     1       9.617  -1.231  24.019  0.00  0.00    -0.000 C 
BRANCH  17  19
ATOM     18  C   UNK     1       9.006  -0.761  26.410  0.00  0.00    +0.004 C 
ATOM     19  C   UNK     1       9.863  -0.336  25.231  0.00  0.00    -0.003 C 
ENDBRANCH  17  19
ENDBRANCH  16  17
ENDBRANCH  15  16
ENDBRANCH  14  15
ENDBRANCH  13  14
ENDBRANCH  12  13
ENDBRANCH  11  12
ENDBRANCH  10  11
ENDBRANCH   9  10
ENDBRANCH   8   9
ENDBRANCH   7   8
ENDBRANCH   6   7
ENDBRANCH   3   6
ENDBRANCH   2   3
ENDBRANCH   1   2
BRANCH   1  20
ATOM     20  C   UNK     1       8.801  -4.700  24.896  0.00  0.00    +0.166 C 
BRANCH  20  21
ATOM     21  O   UNK     1      10.194  -5.031  24.864  0.00  0.00    -0.387 OA
ATOM     22  H   UNK     1      10.639  -4.259  24.461  0.00  0.00    +0.210 HD
ENDBRANCH  20  21
BRANCH  20  23
ATOM     23  C   UNK     1       8.173  -5.267  26.169  0.00  0.00    +0.206 C 
BRANCH  23  24
ATOM     24  O   UNK     1       7.422  -4.242  26.823  0.00  0.00    -0.284 OA
BRANCH  24  25
ATOM     25  P   UNK     1       5.792  -4.744  27.112  0.00  0.00    +0.475 P 
ATOM     26  O   UNK     1       6.121  -4.901  28.598  0.00  0.00    -0.227 OA
BRANCH  25  27
ATOM     27  O   UNK     1       6.131  -6.213  26.489  0.00  0.00    -0.302 OA
ATOM     28  H   UNK     1       6.036  -6.124  25.520  0.00  0.00    +0.222 HD
ENDBRANCH  25  27
BRANCH  25  29
ATOM     29  O   UNK     1       4.162  -5.246  27.401  0.00  0.00    -0.285 OA
BRANCH  29  30
ATOM     30  C   UNK     1       3.325  -5.034  26.252  0.00  0.00    +0.202 C 
BRANCH  30  31
ATOM     31  C   UNK     1       2.836  -6.365  25.682  0.00  0.00    +0.187 C 
BRANCH  31  32
ATOM     32  N   UNK     1       3.166  -7.515  26.589  0.00  0.00    -0.317 NA
ATOM     33  H   UNK     1       3.343  -8.319  25.973  0.00  0.00    +0.119 HD
ATOM     34  H   UNK     1       4.087  -7.323  26.998  0.00  0.00    +0.119 HD
ENDBRANCH  31  32
BRANCH  31  35
ATOM     35  C   UNK     1       3.511  -6.589  24.324  0.00  0.00    +0.324 C 
ATOM     36  O   UNK     1       4.456  -7.334  24.123  0.00  0.00    -0.249 OA
BRANCH  35  37
ATOM     37  O   UNK     1       2.904  -5.877  23.340  0.00  0.00    -0.479 OA
ATOM     38  H   UNK     1       2.805  -4.955  23.687  0.00  0.00    +0.295 HD
ENDBRANCH  35  37
ENDBRANCH  31  35
ENDBRANCH  30  31
ENDBRANCH  29  30
ENDBRANCH  25  29
ENDBRANCH  24  25
ENDBRANCH  23  24
ENDBRANCH  20  23
ENDBRANCH   1  20
TORSDOF 28
ENDMDL
MODEL 6
REMARK VINA RESULT:      -4.4      5.176      9.159
REMARK  Name = 
REMARK  29 active torsions:
REMARK  status: ('A' for Active; 'I' for Inactive)
REMARK    1  A    between atoms: C_1  and  C_2
REMARK    2  A    between atoms: C_2  and  C_3
REMARK    3  A    between atoms: C_3  and  C_4
REMARK    4  A    between atoms: C_4  and  C_5
REMARK    5  A    between atoms: C_5  and  C_6
REMARK    6  A    between atoms: C_6  and  C_7
REMARK    7  A    between atoms: C_7  and  C_8
REMARK    8  A    between atoms: C_8  and  C_9
REMARK    9  A    between atoms: C_9  and  C_10
REMARK   10  A    between atoms: C_10  and  C_11
REMARK   11  A    between atoms: C_11  and  C_12
REMARK   12  A    between atoms: C_12  and  C_13
REMARK   13  A    between atoms: C_13  and  C_14
REMARK   14  A    between atoms: C_14  and  C_15
REMARK   15  A    between atoms: C_15  and  O_17
REMARK   16  A    between atoms: C_15  and  O_18
REMARK   17  A    between atoms: O_18  and  C_19
REMARK   18  A    between atoms: C_19  and  C_20
REMARK   19  A    between atoms: C_20  and  O_22
REMARK   20  A    between atoms: C_20  and  C_23
REMARK   21  A    between atoms: C_23  and  O_24
REMARK   22  A    between atoms: O_24  and  P_25
REMARK   23  A    between atoms: P_25  and  O_26
REMARK   24  A    between atoms: P_25  and  O_28
REMARK   25  A    between atoms: O_28  and  C_29
REMARK   26  A    between atoms: C_29  and  C_30
REMARK   27  A    between atoms: C_30  and  N_32
REMARK   28  A    between atoms: C_30  and  C_33
REMARK   29  A    between atoms: C_33  and  O_34
REMARK                            x       y       z     vdW  Elec       q    Type
REMARK                         _______ _______ _______ _____ _____    ______ ____
ROOT
ATOM      1  C   UNK     1       8.691  -3.081  24.157  0.00  0.00    +0.196 C 
ENDROOT
BRANCH   1   2
ATOM      2  O   UNK     1       9.621  -4.147  24.296  0.00  0.00    -0.349 OA
BRANCH   2   3
ATOM      3  C   UNK     1       9.185  -5.172  25.182  0.00  0.00    +0.247 C 
BRANCH   3   4
ATOM      4  O   UNK     1       9.998  -5.191  26.344  0.00  0.00    -0.367 OA
ATOM      5  H   UNK     1       9.479  -5.629  27.036  0.00  0.00    +0.212 HD
ENDBRANCH   3   4
BRANCH   3   6
ATOM      6  C   UNK     1       7.758  -4.817  25.594  0.00  0.00    +0.061 C 
BRANCH   6   7
ATOM      7  C   UNK     1       7.373  -5.312  26.991  0.00  0.00    +0.005 C 
BRANCH   7   8
ATOM      8  C   UNK     1       6.225  -4.459  27.532  0.00  0.00    +0.000 C 
BRANCH   8   9
ATOM      9  C   UNK     1       5.611  -3.531  26.485  0.00  0.00    +0.000 C 
BRANCH   9  10
ATOM     10  C   UNK     1       4.106  -3.426  26.729  0.00  0.00    +0.000 C 
BRANCH  10  11
ATOM     11  C   UNK     1       3.581  -4.522  27.649  0.00  0.00    -0.000 C 
BRANCH  11  12
ATOM     12  C   UNK     1       2.730  -5.514  26.854  0.00  0.00    -0.000 C 
BRANCH  12  13
ATOM     13  C   UNK     1       3.466  -6.828  26.633  0.00  0.00    -0.000 C 
BRANCH  13  14
ATOM     14  C   UNK     1       3.485  -7.205  25.152  0.00  0.00    -0.000 C 
BRANCH  14  15
ATOM     15  C   UNK     1       4.626  -6.496  24.428  0.00  0.00    -0.000 C 
BRANCH  15  16
ATOM     16  C   UNK     1       4.105  -5.377  23.530  0.00  0.00    -0.000 C 
BRANCH  16  17
ATOM     17  C   UNK     1       5.241  -4.754  22.724  0.00  0.00    -0.000 C 
BRANCH  17  19
ATOM     18  C   UNK     1       7.344  -5.921  21.999  0.00  0.00    +0.004 C 
ATOM     19  C   UNK     1       5.854  -5.760  21.754  0.00  0.00    -0.003 C 
ENDBRANCH  17  19
ENDBRANCH  16  17
ENDBRANCH  15  16
ENDBRANCH  14  15
ENDBRANCH  13  14
ENDBRANCH  12  13
ENDBRANCH  11  12
ENDBRANCH  10  11
ENDBRANCH   9  10
ENDBRANCH   8   9
ENDBRANCH   7   8
ENDBRANCH   6   7
ENDBRANCH   3   6
ENDBRANCH   2   3
ENDBRANCH   1   2
BRANCH   1  20
ATOM     20  C   UNK     1       9.209  -2.071  23.131  0.00  0.00    +0.166 C 
BRANCH  20  21
ATOM     21  O   UNK     1      10.580  -2.365  22.840  0.00  0.00    -0.387 OA
ATOM     22  H   UNK     1      11.042  -1.502  22.846  0.00  0.00    +0.210 HD
ENDBRANCH  20  21
BRANCH  20  23
ATOM     23  C   UNK     1       9.096  -0.639  23.655  0.00  0.00    +0.206 C 
BRANCH  23  24
ATOM     24  O   UNK     1       9.035   0.266  22.551  0.00  0.00    -0.284 OA
BRANCH  24  25
ATOM     25  P   UNK     1       9.597   1.840  22.995  0.00  0.00    +0.475 P 
ATOM     26  O   UNK     1       8.144   2.306  23.117  0.00  0.00    -0.227 OA
BRANCH  25  27
ATOM     27  O   UNK     1       9.967   2.150  21.436  0.00  0.00    -0.302 OA
ATOM     28  H   UNK     1      10.912   1.924  21.333  0.00  0.00    +0.222 HD
ENDBRANCH  25  27
BRANCH  25  29
ATOM     29  O   UNK     1      10.158   3.415  23.439  0.00  0.00    -0.285 OA
BRANCH  29  30
ATOM     30  C   UNK     1      11.593   3.485  23.457  0.00  0.00    +0.202 C 
BRANCH  30  31
ATOM     31  C   UNK     1      12.075   4.880  23.057  0.00  0.00    +0.187 C 
BRANCH  31  32
ATOM     32  N   UNK     1      13.500   5.117  23.465  0.00  0.00    -0.317 NA
ATOM     33  H   UNK     1      13.467   5.816  24.218  0.00  0.00    +0.119 HD
ATOM     34  H   UNK     1      13.822   4.269  23.944  0.00  0.00    +0.119 HD
ENDBRANCH  31  32
BRANCH  31  35
ATOM     35  C   UNK     1      11.180   5.918  23.745  0.00  0.00    +0.324 C 
ATOM     36  O   UNK     1      11.461   6.525  24.765  0.00  0.00    -0.249 OA
BRANCH  35  37
ATOM     37  O   UNK     1      10.026   6.119  23.056  0.00  0.00    -0.479 OA
ATOM     38  H   UNK     1      10.126   6.992  22.600  0.00  0.00    +0.295 HD
ENDBRANCH  35  37
ENDBRANCH  31  35
ENDBRANCH  30  31
ENDBRANCH  29  30
ENDBRANCH  25  29
ENDBRANCH  24  25
ENDBRANCH  23  24
ENDBRANCH  20  23
ENDBRANCH   1  20
TORSDOF 28
ENDMDL
MODEL 7
REMARK VINA RESULT:      -4.4      1.414      2.373
REMARK  Name = 
REMARK  29 active torsions:
REMARK  status: ('A' for Active; 'I' for Inactive)
REMARK    1  A    between atoms: C_1  and  C_2
REMARK    2  A    between atoms: C_2  and  C_3
REMARK    3  A    between atoms: C_3  and  C_4
REMARK    4  A    between atoms: C_4  and  C_5
REMARK    5  A    between atoms: C_5  and  C_6
REMARK    6  A    between atoms: C_6  and  C_7
REMARK    7  A    between atoms: C_7  and  C_8
REMARK    8  A    between atoms: C_8  and  C_9
REMARK    9  A    between atoms: C_9  and  C_10
REMARK   10  A    between atoms: C_10  and  C_11
REMARK   11  A    between atoms: C_11  and  C_12
REMARK   12  A    between atoms: C_12  and  C_13
REMARK   13  A    between atoms: C_13  and  C_14
REMARK   14  A    between atoms: C_14  and  C_15
REMARK   15  A    between atoms: C_15  and  O_17
REMARK   16  A    between atoms: C_15  and  O_18
REMARK   17  A    between atoms: O_18  and  C_19
REMARK   18  A    between atoms: C_19  and  C_20
REMARK   19  A    between atoms: C_20  and  O_22
REMARK   20  A    between atoms: C_20  and  C_23
REMARK   21  A    between atoms: C_23  and  O_24
REMARK   22  A    between atoms: O_24  and  P_25
REMARK   23  A    between atoms: P_25  and  O_26
REMARK   24  A    between atoms: P_25  and  O_28
REMARK   25  A    between atoms: O_28  and  C_29
REMARK   26  A    between atoms: C_29  and  C_30
REMARK   27  A    between atoms: C_30  and  N_32
REMARK   28  A    between atoms: C_30  and  C_33
REMARK   29  A    between atoms: C_33  and  O_34
REMARK                            x       y       z     vdW  Elec       q    Type
REMARK                         _______ _______ _______ _____ _____    ______ ____
ROOT
ATOM      1  C   UNK     1       8.955  -3.642  25.050  0.00  0.00    +0.196 C 
ENDROOT
BRANCH   1   2
ATOM      2  O   UNK     1       8.693  -4.325  23.831  0.00  0.00    -0.349 OA
BRANCH   2   3
ATOM      3  C   UNK     1       7.643  -3.743  23.066  0.00  0.00    +0.247 C 
BRANCH   3   4
ATOM      4  O   UNK     1       6.466  -4.524  23.178  0.00  0.00    -0.367 OA
ATOM      5  H   UNK     1       6.002  -4.448  22.330  0.00  0.00    +0.212 HD
ENDBRANCH   3   4
BRANCH   3   6
ATOM      6  C   UNK     1       7.373  -2.366  23.669  0.00  0.00    +0.061 C 
BRANCH   6   7
ATOM      7  C   UNK     1       7.641  -1.204  22.709  0.00  0.00    +0.005 C 
BRANCH   7   8
ATOM      8  C   UNK     1       8.984  -1.422  22.012  0.00  0.00    +0.000 C 
BRANCH   8   9
ATOM      9  C   UNK     1       9.447  -0.217  21.194  0.00  0.00    +0.000 C 
BRANCH   9  10
ATOM     10  C   UNK     1       8.994   1.066  21.890  0.00  0.00    +0.000 C 
BRANCH  10  11
ATOM     11  C   UNK     1      10.162   1.937  22.336  0.00  0.00    -0.000 C 
BRANCH  11  12
ATOM     12  C   UNK     1       9.845   2.593  23.681  0.00  0.00    -0.000 C 
BRANCH  12  13
ATOM     13  C   UNK     1       9.220   1.600  24.652  0.00  0.00    -0.000 C 
BRANCH  13  14
ATOM     14  C   UNK     1       7.973   2.188  25.311  0.00  0.00    -0.000 C 
BRANCH  14  15
ATOM     15  C   UNK     1       6.766   1.279  25.092  0.00  0.00    -0.000 C 
BRANCH  15  16
ATOM     16  C   UNK     1       5.620   2.031  24.419  0.00  0.00    -0.000 C 
BRANCH  16  17
ATOM     17  C   UNK     1       6.005   2.449  23.002  0.00  0.00    -0.000 C 
BRANCH  17  19
ATOM     18  C   UNK     1       7.142   4.546  22.214  0.00  0.00    +0.004 C 
ATOM     19  C   UNK     1       5.876   3.958  22.812  0.00  0.00    -0.003 C 
ENDBRANCH  17  19
ENDBRANCH  16  17
ENDBRANCH  15  16
ENDBRANCH  14  15
ENDBRANCH  13  14
ENDBRANCH  12  13
ENDBRANCH  11  12
ENDBRANCH  10  11
ENDBRANCH   9  10
ENDBRANCH   8   9
ENDBRANCH   7   8
ENDBRANCH   6   7
ENDBRANCH   3   6
ENDBRANCH   2   3
ENDBRANCH   1   2
BRANCH   1  20
ATOM     20  C   UNK     1       9.443  -4.635  26.107  0.00  0.00    +0.166 C 
BRANCH  20  21
ATOM     21  O   UNK     1      10.267  -5.620  25.475  0.00  0.00    -0.387 OA
ATOM     22  H   UNK     1      10.005  -6.476  25.869  0.00  0.00    +0.210 HD
ENDBRANCH  20  21
BRANCH  20  23
ATOM     23  C   UNK     1       8.271  -5.324  26.805  0.00  0.00    +0.206 C 
BRANCH  23  24
ATOM     24  O   UNK     1       7.182  -4.406  26.920  0.00  0.00    -0.284 OA
BRANCH  24  25
ATOM     25  P   UNK     1       5.662  -5.204  26.714  0.00  0.00    +0.475 P 
ATOM     26  O   UNK     1       6.308  -6.135  25.685  0.00  0.00    -0.227 OA
BRANCH  25  27
ATOM     27  O   UNK     1       5.125  -3.954  25.814  0.00  0.00    -0.302 OA
ATOM     28  H   UNK     1       5.185  -4.246  24.883  0.00  0.00    +0.222 HD
ENDBRANCH  25  27
BRANCH  25  29
ATOM     29  O   UNK     1       4.141  -6.003  26.507  0.00  0.00    -0.285 OA
BRANCH  29  30
ATOM     30  C   UNK     1       4.206  -7.021  25.495  0.00  0.00    +0.202 C 
BRANCH  30  31
ATOM     31  C   UNK     1       2.947  -7.007  24.627  0.00  0.00    +0.187 C 
BRANCH  31  32
ATOM     32  N   UNK     1       2.626  -8.370  24.086  0.00  0.00    -0.317 NA
ATOM     33  H   UNK     1       3.450  -8.662  23.546  0.00  0.00    +0.119 HD
ATOM     34  H   UNK     1       2.623  -9.017  24.882  0.00  0.00    +0.119 HD
ENDBRANCH  31  32
BRANCH  31  35
ATOM     35  C   UNK     1       3.178  -6.046  23.454  0.00  0.00    +0.324 C 
ATOM     36  O   UNK     1       3.618  -4.912  23.549  0.00  0.00    -0.249 OA
BRANCH  35  37
ATOM     37  O   UNK     1       2.864  -6.624  22.265  0.00  0.00    -0.479 OA
ATOM     38  H   UNK     1       3.309  -6.080  21.568  0.00  0.00    +0.295 HD
ENDBRANCH  35  37
ENDBRANCH  31  35
ENDBRANCH  30  31
ENDBRANCH  29  30
ENDBRANCH  25  29
ENDBRANCH  24  25
ENDBRANCH  23  24
ENDBRANCH  20  23
ENDBRANCH   1  20
TORSDOF 28
ENDMDL
MODEL 8
REMARK VINA RESULT:      -4.4      5.079      8.758
REMARK  Name = 
REMARK  29 active torsions:
REMARK  status: ('A' for Active; 'I' for Inactive)
REMARK    1  A    between atoms: C_1  and  C_2
REMARK    2  A    between atoms: C_2  and  C_3
REMARK    3  A    between atoms: C_3  and  C_4
REMARK    4  A    between atoms: C_4  and  C_5
REMARK    5  A    between atoms: C_5  and  C_6
REMARK    6  A    between atoms: C_6  and  C_7
REMARK    7  A    between atoms: C_7  and  C_8
REMARK    8  A    between atoms: C_8  and  C_9
REMARK    9  A    between atoms: C_9  and  C_10
REMARK   10  A    between atoms: C_10  and  C_11
REMARK   11  A    between atoms: C_11  and  C_12
REMARK   12  A    between atoms: C_12  and  C_13
REMARK   13  A    between atoms: C_13  and  C_14
REMARK   14  A    between atoms: C_14  and  C_15
REMARK   15  A    between atoms: C_15  and  O_17
REMARK   16  A    between atoms: C_15  and  O_18
REMARK   17  A    between atoms: O_18  and  C_19
REMARK   18  A    between atoms: C_19  and  C_20
REMARK   19  A    between atoms: C_20  and  O_22
REMARK   20  A    between atoms: C_20  and  C_23
REMARK   21  A    between atoms: C_23  and  O_24
REMARK   22  A    between atoms: O_24  and  P_25
REMARK   23  A    between atoms: P_25  and  O_26
REMARK   24  A    between atoms: P_25  and  O_28
REMARK   25  A    between atoms: O_28  and  C_29
REMARK   26  A    between atoms: C_29  and  C_30
REMARK   27  A    between atoms: C_30  and  N_32
REMARK   28  A    between atoms: C_30  and  C_33
REMARK   29  A    between atoms: C_33  and  O_34
REMARK                            x       y       z     vdW  Elec       q    Type
REMARK                         _______ _______ _______ _____ _____    ______ ____
ROOT
ATOM      1  C   UNK     1       8.340  -1.617  22.647  0.00  0.00    +0.196 C 
ENDROOT
BRANCH   1   2
ATOM      2  O   UNK     1       9.031  -2.397  23.614  0.00  0.00    -0.349 OA
BRANCH   2   3
ATOM      3  C   UNK     1       9.023  -1.827  24.918  0.00  0.00    +0.247 C 
BRANCH   3   4
ATOM      4  O   UNK     1       8.116  -0.739  24.970  0.00  0.00    -0.367 OA
ATOM      5  H   UNK     1       7.713  -0.757  25.851  0.00  0.00    +0.212 HD
ENDBRANCH   3   4
BRANCH   3   6
ATOM      6  C   UNK     1       8.531  -2.915  25.870  0.00  0.00    +0.061 C 
BRANCH   6   7
ATOM      7  C   UNK     1       8.845  -4.339  25.401  0.00  0.00    +0.005 C 
BRANCH   7   8
ATOM      8  C   UNK     1       8.075  -5.338  26.265  0.00  0.00    +0.000 C 
BRANCH   8   9
ATOM      9  C   UNK     1       6.893  -4.717  27.007  0.00  0.00    +0.000 C 
BRANCH   9  10
ATOM     10  C   UNK     1       6.370  -5.713  28.041  0.00  0.00    +0.000 C 
BRANCH  10  11
ATOM     11  C   UNK     1       4.847  -5.772  28.082  0.00  0.00    -0.000 C 
BRANCH  11  12
ATOM     12  C   UNK     1       4.263  -5.183  26.797  0.00  0.00    -0.000 C 
BRANCH  12  13
ATOM     13  C   UNK     1       3.489  -6.229  26.006  0.00  0.00    -0.000 C 
BRANCH  13  14
ATOM     14  C   UNK     1       4.416  -7.012  25.078  0.00  0.00    -0.000 C 
BRANCH  14  15
ATOM     15  C   UNK     1       4.527  -6.327  23.719  0.00  0.00    -0.000 C 
BRANCH  15  16
ATOM     16  C   UNK     1       5.952  -5.851  23.451  0.00  0.00    -0.000 C 
BRANCH  16  17
ATOM     17  C   UNK     1       5.950  -4.479  22.784  0.00  0.00    -0.000 C 
BRANCH  17  19
ATOM     18  C   UNK     1       5.220  -2.684  24.383  0.00  0.00    +0.004 C 
ATOM     19  C   UNK     1       4.784  -3.623  23.272  0.00  0.00    -0.003 C 
ENDBRANCH  17  19
ENDBRANCH  16  17
ENDBRANCH  15  16
ENDBRANCH  14  15
ENDBRANCH  13  14
ENDBRANCH  12  13
ENDBRANCH  11  12
ENDBRANCH  10  11
ENDBRANCH   9  10
ENDBRANCH   8   9
ENDBRANCH   7   8
ENDBRANCH   6   7
ENDBRANCH   3   6
ENDBRANCH   2   3
ENDBRANCH   1   2
BRANCH   1  20
ATOM     20  C   UNK     1       9.338  -1.019  21.654  0.00  0.00    +0.166 C 
BRANCH  20  21
ATOM     21  O   UNK     1      10.609  -1.653  21.832  0.00  0.00    -0.387 OA
ATOM     22  H   UNK     1      10.449  -2.394  22.451  0.00  0.00    +0.210 HD
ENDBRANCH  20  21
BRANCH  20  23
ATOM     23  C   UNK     1       9.489   0.489  21.857  0.00  0.00    +0.206 C 
BRANCH  23  24
ATOM     24  O   UNK     1      10.221   0.733  23.060  0.00  0.00    -0.284 OA
BRANCH  24  25
ATOM     25  P   UNK     1       9.813   2.268  23.744  0.00  0.00    +0.475 P 
ATOM     26  O   UNK     1       8.341   1.847  23.768  0.00  0.00    -0.227 OA
BRANCH  25  27
ATOM     27  O   UNK     1       9.985   2.968  22.281  0.00  0.00    -0.302 OA
ATOM     28  H   UNK     1      10.936   2.904  22.061  0.00  0.00    +0.222 HD
ENDBRANCH  25  27
BRANCH  25  29
ATOM     29  O   UNK     1       9.403   3.803  24.428  0.00  0.00    -0.285 OA
BRANCH  29  30
ATOM     30  C   UNK     1       8.039   4.163  24.156  0.00  0.00    +0.202 C 
BRANCH  30  31
ATOM     31  C   UNK     1       7.965   5.501  23.421  0.00  0.00    +0.187 C 
BRANCH  31  32
ATOM     32  N   UNK     1       7.809   5.316  21.939  0.00  0.00    -0.317 NA
ATOM     33  H   UNK     1       7.107   6.004  21.640  0.00  0.00    +0.119 HD
ATOM     34  H   UNK     1       8.673   5.654  21.500  0.00  0.00    +0.119 HD
ENDBRANCH  31  32
BRANCH  31  35
ATOM     35  C   UNK     1       9.259   6.277  23.694  0.00  0.00    +0.324 C 
ATOM     36  O   UNK     1       9.409   7.106  24.576  0.00  0.00    -0.249 OA
BRANCH  35  37
ATOM     37  O   UNK     1      10.254   5.905  22.847  0.00  0.00    -0.479 OA
ATOM     38  H   UNK     1       9.809   5.605  22.015  0.00  0.00    +0.295 HD
ENDBRANCH  35  37
ENDBRANCH  31  35
ENDBRANCH  30  31
ENDBRANCH  29  30
ENDBRANCH  25  29
ENDBRANCH  24  25
ENDBRANCH  23  24
ENDBRANCH  20  23
ENDBRANCH   1  20
TORSDOF 28
ENDMDL
MODEL 9
REMARK VINA RESULT:      -4.3      1.966      4.172
REMARK  Name = 
REMARK  29 active torsions:
REMARK  status: ('A' for Active; 'I' for Inactive)
REMARK    1  A    between atoms: C_1  and  C_2
REMARK    2  A    between atoms: C_2  and  C_3
REMARK    3  A    between atoms: C_3  and  C_4
REMARK    4  A    between atoms: C_4  and  C_5
REMARK    5  A    between atoms: C_5  and  C_6
REMARK    6  A    between atoms: C_6  and  C_7
REMARK    7  A    between atoms: C_7  and  C_8
REMARK    8  A    between atoms: C_8  and  C_9
REMARK    9  A    between atoms: C_9  and  C_10
REMARK   10  A    between atoms: C_10  and  C_11
REMARK   11  A    between atoms: C_11  and  C_12
REMARK   12  A    between atoms: C_12  and  C_13
REMARK   13  A    between atoms: C_13  and  C_14
REMARK   14  A    between atoms: C_14  and  C_15
REMARK   15  A    between atoms: C_15  and  O_17
REMARK   16  A    between atoms: C_15  and  O_18
REMARK   17  A    between atoms: O_18  and  C_19
REMARK   18  A    between atoms: C_19  and  C_20
REMARK   19  A    between atoms: C_20  and  O_22
REMARK   20  A    between atoms: C_20  and  C_23
REMARK   21  A    between atoms: C_23  and  O_24
REMARK   22  A    between atoms: O_24  and  P_25
REMARK   23  A    between atoms: P_25  and  O_26
REMARK   24  A    between atoms: P_25  and  O_28
REMARK   25  A    between atoms: O_28  and  C_29
REMARK   26  A    between atoms: C_29  and  C_30
REMARK   27  A    between atoms: C_30  and  N_32
REMARK   28  A    between atoms: C_30  and  C_33
REMARK   29  A    between atoms: C_33  and  O_34
REMARK                            x       y       z     vdW  Elec       q    Type
REMARK                         _______ _______ _______ _____ _____    ______ ____
ROOT
ATOM      1  C   UNK     1       7.396  -4.298  22.610  0.00  0.00    +0.196 C 
ENDROOT
BRANCH   1   2
ATOM      2  O   UNK     1       7.609  -5.457  23.407  0.00  0.00    -0.349 OA
BRANCH   2   3
ATOM      3  C   UNK     1       8.348  -5.202  24.596  0.00  0.00    +0.247 C 
BRANCH   3   4
ATOM      4  O   UNK     1       9.629  -5.804  24.514  0.00  0.00    -0.367 OA
ATOM      5  H   UNK     1       9.963  -5.622  23.622  0.00  0.00    +0.212 HD
ENDBRANCH   3   4
BRANCH   3   6
ATOM      6  C   UNK     1       8.527  -3.688  24.685  0.00  0.00    +0.061 C 
BRANCH   6   7
ATOM      7  C   UNK     1       8.525  -3.145  26.117  0.00  0.00    +0.005 C 
BRANCH   7   8
ATOM      8  C   UNK     1       7.261  -2.315  26.342  0.00  0.00    +0.000 C 
BRANCH   8   9
ATOM      9  C   UNK     1       6.786  -1.580  25.090  0.00  0.00    +0.000 C 
BRANCH   9  10
ATOM     10  C   UNK     1       6.360  -0.162  25.471  0.00  0.00    +0.000 C 
BRANCH  10  11
ATOM     11  C   UNK     1       6.059   0.708  24.256  0.00  0.00    -0.000 C 
BRANCH  11  12
ATOM     12  C   UNK     1       7.091   1.831  24.145  0.00  0.00    -0.000 C 
BRANCH  12  13
ATOM     13  C   UNK     1       6.940   2.598  22.838  0.00  0.00    -0.000 C 
BRANCH  13  14
ATOM     14  C   UNK     1       8.246   2.599  22.047  0.00  0.00    -0.000 C 
BRANCH  14  15
ATOM     15  C   UNK     1       8.547   1.206  21.498  0.00  0.00    -0.000 C 
BRANCH  15  16
ATOM     16  C   UNK     1       9.893   0.690  22.002  0.00  0.00    -0.000 C 
BRANCH  16  17
ATOM     17  C   UNK     1       9.713  -0.586  22.819  0.00  0.00    -0.000 C 
BRANCH  17  19
ATOM     18  C   UNK     1      10.802   0.978  24.456  0.00  0.00    +0.004 C 
ATOM     19  C   UNK     1      10.238  -0.416  24.242  0.00  0.00    -0.003 C 
ENDBRANCH  17  19
ENDBRANCH  16  17
ENDBRANCH  15  16
ENDBRANCH  14  15
ENDBRANCH  13  14
ENDBRANCH  12  13
ENDBRANCH  11  12
ENDBRANCH  10  11
ENDBRANCH   9  10
ENDBRANCH   8   9
ENDBRANCH   7   8
ENDBRANCH   6   7
ENDBRANCH   3   6
ENDBRANCH   2   3
ENDBRANCH   1   2
BRANCH   1  20
ATOM     20  C   UNK     1       6.139  -4.480  21.756  0.00  0.00    +0.166 C 
BRANCH  20  21
ATOM     21  O   UNK     1       5.270  -3.361  21.963  0.00  0.00    -0.387 OA
ATOM     22  H   UNK     1       4.454  -3.731  22.356  0.00  0.00    +0.210 HD
ENDBRANCH  20  21
BRANCH  20  23
ATOM     23  C   UNK     1       5.403  -5.770  22.119  0.00  0.00    +0.206 C 
BRANCH  23  24
ATOM     24  O   UNK     1       4.096  -5.450  22.600  0.00  0.00    -0.284 OA
BRANCH  24  25
ATOM     25  P   UNK     1       3.849  -6.054  24.201  0.00  0.00    +0.475 P 
ATOM     26  O   UNK     1       4.646  -4.870  24.753  0.00  0.00    -0.227 OA
BRANCH  25  27
ATOM     27  O   UNK     1       4.988  -7.195  23.948  0.00  0.00    -0.302 OA
ATOM     28  H   UNK     1       5.791  -6.716  23.664  0.00  0.00    +0.222 HD
ENDBRANCH  25  27
BRANCH  25  29
ATOM     29  O   UNK     1       3.603  -6.658  25.803  0.00  0.00    -0.285 OA
BRANCH  29  30
ATOM     30  C   UNK     1       4.842  -6.800  26.517  0.00  0.00    +0.202 C 
BRANCH  30  31
ATOM     31  C   UNK     1       4.626  -6.629  28.021  0.00  0.00    +0.187 C 
BRANCH  31  32
ATOM     32  N   UNK     1       3.787  -5.423  28.331  0.00  0.00    -0.317 NA
ATOM     33  H   UNK     1       4.289  -4.619  27.934  0.00  0.00    +0.119 HD
ATOM     34  H   UNK     1       2.943  -5.485  27.750  0.00  0.00    +0.119 HD
ENDBRANCH  31  32
BRANCH  31  35
ATOM     35  C   UNK     1       5.995  -6.470  28.693  0.00  0.00    +0.324 C 
ATOM     36  O   UNK     1       6.568  -7.334  29.336  0.00  0.00    -0.249 OA
BRANCH  35  37
ATOM     37  O   UNK     1       6.528  -5.242  28.457  0.00  0.00    -0.479 OA
ATOM     38  H   UNK     1       5.955  -4.596  28.940  0.00  0.00    +0.295 HD
ENDBRANCH  35  37
ENDBRANCH  31  35
ENDBRANCH  30  31
ENDBRANCH  29  30
ENDBRANCH  25  29
ENDBRANCH  24  25
ENDBRANCH  23  24
ENDBRANCH  20  23
ENDBRANCH   1  20
TORSDOF 28
ENDMDL
