MODEL 1
REMARK VINA RESULT:     124.5      0.000      0.000
REMARK  Name = 
REMARK  25 active torsions:
REMARK  status: ('A' for Active; 'I' for Inactive)
REMARK    1  A    between atoms: C_1  and  C_2
REMARK    2  A    between atoms: C_2  and  C_3
REMARK    3  A    between atoms: C_2  and  C_72
REMARK    4  A    between atoms: C_3  and  C_4
REMARK    5  A    between atoms: C_4  and  C_5
REMARK    6  A    between atoms: C_4  and  C_6
REMARK    7  A    between atoms: C_19  and  O_20
REMARK    8  A    between atoms: C_22  and  O_23
REMARK    9  A    between atoms: C_25  and  O_26
REMARK   10  A    between atoms: C_28  and  O_29
REMARK   11  A    between atoms: C_31  and  O_32
REMARK   12  A    between atoms: C_33  and  C_69
REMARK   13  A    between atoms: C_36  and  O_37
REMARK   14  A    between atoms: O_37  and  C_38
REMARK   15  A    between atoms: C_40  and  C_42
REMARK   16  A    between atoms: C_43  and  O_45
REMARK   17  A    between atoms: C_46  and  N_48
REMARK   18  A    between atoms: C_49  and  O_51
REMARK   19  A    between atoms: C_66  and  C_67
REMARK   20  A    between atoms: C_69  and  O_70
REMARK   21  A    between atoms: C_72  and  O_73
REMARK   22  A    between atoms: C_72  and  C_74
REMARK   23  A    between atoms: C_74  and  C_75
REMARK   24  A    between atoms: C_75  and  C_77
REMARK   25  A    between atoms: C_80  and  N_81
REMARK                            x       y       z     vdW  Elec       q    Type
REMARK                         _______ _______ _______ _____ _____    ______ ____
ROOT
ATOM      1  C   UNL     1       1.629  -4.044  27.275  0.00  0.00    +0.186 C 
ATOM      2  C   UNL     1       1.373  -2.291  28.048  0.00  0.00    +0.050 C 
ATOM      3  C   UNL     1       0.453  -2.663  29.259  0.00  0.00    +0.015 C 
ATOM      4  C   UNL     1       0.759  -0.547  27.696  0.00  0.00    -0.020 C 
ATOM      5  C   UNL     1       0.789   0.909  27.476  0.00  0.00    -0.004 C 
ATOM      6  C   UNL     1       1.577   2.432  27.313  0.00  0.00    -0.000 C 
ATOM      7  C   UNL     1       1.362   3.663  26.611  0.00  0.00    -0.000 C 
ATOM      8  C   UNL     1       2.362   4.881  26.567  0.00  0.00    -0.000 C 
ATOM      9  C   UNL     1       2.661   5.844  25.626  0.00  0.00    -0.000 C 
ATOM     10  C   UNL     1       4.111   6.218  25.492  0.00  0.00    +0.000 C 
ATOM     11  C   UNL     1       4.804   6.643  24.402  0.00  0.00    +0.000 C 
ATOM     12  C   UNL     1       6.201   6.155  24.215  0.00  0.00    -0.000 C 
ATOM     13  C   UNL     1       6.959   6.217  23.102  0.00  0.00    -0.000 C 
ATOM     14  C   UNL     1       8.188   5.413  22.937  0.00  0.00    -0.000 C 
ATOM     15  C   UNL     1       8.952   5.382  21.823  0.00  0.00    -0.000 C 
ATOM     16  C   UNL     1      10.170   4.583  21.675  0.00  0.00    -0.002 C 
ATOM     17  C   UNL     1      11.040   4.649  20.634  0.00  0.00    +0.004 C 
ATOM     18  C   UNL     1      12.401   3.930  20.644  0.00  0.00    +0.147 C 
ATOM     19  C   UNL     1      13.291   4.105  19.377  0.00  0.00    +0.068 C 
ATOM     20  C   UNL     1      14.616   3.249  19.222  0.00  0.00    +0.141 C 
ATOM     21  O   UNL     1      15.547   3.353  20.308  0.00  0.00    -0.344 OA
ATOM     22  C   UNL     1      16.762   2.565  20.241  0.00  0.00    +0.172 C 
ATOM     23  C   UNL     1      17.538   2.886  18.957  0.00  0.00    +0.097 C 
ATOM     24  C   UNL     1      16.607   2.746  17.747  0.00  0.00    +0.136 C 
ATOM     25  C   UNL     1      16.596   1.024  20.414  0.00  0.00    +0.096 C 
ATOM     26  C   UNL     1      15.482   0.667  21.397  0.00  0.00    +0.122 C 
ATOM     27  C   UNL     1      15.118  -0.835  21.467  0.00  0.00    +0.063 C 
ATOM     28  C   UNL     1      13.768  -0.993  22.217  0.00  0.00    +0.119 C 
ATOM     29  C   UNL     1      13.224  -2.424  22.321  0.00  0.00    +0.063 C 
ATOM     30  C   UNL     1      11.831  -2.479  23.015  0.00  0.00    +0.124 C 
ATOM     31  C   UNL     1      11.347  -3.923  23.206  0.00  0.00    +0.105 C 
ATOM     32  C   UNL     1       9.935  -3.984  23.778  0.00  0.00    +0.136 C 
ATOM     33  O   UNL     1       9.220  -2.982  23.830  0.00  0.00    -0.297 OA
ATOM     34  C   UNL     1       9.392  -5.365  24.211  0.00  0.00    +0.075 C 
ATOM     35  C   UNL     1       8.061  -5.132  24.945  0.00  0.00    +0.015 C 
ATOM     36  C   UNL     1       7.197  -6.260  25.553  0.00  0.00    +0.075 C 
ATOM     37  C   UNL     1       6.135  -5.546  26.462  0.00  0.00    +0.144 C 
ATOM     38  O   UNL     1       6.376  -4.441  26.938  0.00  0.00    -0.297 OA
ATOM     39  C   UNL     1       4.831  -6.178  26.845  0.00  0.00    +0.194 C 
ATOM     40  C   UNL     1       3.641  -5.261  26.518  0.00  0.00    +0.315 C 
ATOM     41  O   UNL     1       3.211  -5.233  25.374  0.00  0.00    -0.250 OA
ATOM     42  C   UNL     1      15.371   3.622  17.915  0.00  0.00    +0.155 C 
ATOM     43  O   UNL     1       3.044  -4.558  27.551  0.00  0.00    -0.460 OA
ENDROOT
BRANCH  42  44
ATOM     44  C   UNL     1      15.710   5.061  17.827  0.00  0.00    +0.313 C 
ATOM     45  O   UNL     1      15.637   5.764  18.837  0.00  0.00    -0.251 OA
BRANCH  44  46
ATOM     46  O   UNL     1      15.840   5.597  16.605  0.00  0.00    -0.480 OA
ATOM     47  H   UNL     1      16.117   6.545  16.588  0.00  0.00    +0.295 HD
ENDBRANCH  44  46
ENDBRANCH  42  44
BRANCH  30  48
ATOM     48  O   UNL     1      11.845  -1.886  24.312  0.00  0.00    -0.391 OA
ATOM     49  H   UNL     1      12.542  -2.288  24.851  0.00  0.00    +0.210 HD
ENDBRANCH  30  48
BRANCH  28  50
ATOM     50  O   UNL     1      13.897  -0.507  23.548  0.00  0.00    -0.392 OA
ATOM     51  H   UNL     1      14.336  -1.184  24.087  0.00  0.00    +0.210 HD
ENDBRANCH  28  50
BRANCH  26  52
ATOM     52  O   UNL     1      15.859   1.073  22.710  0.00  0.00    -0.392 OA
ATOM     53  H   UNL     1      16.569   1.737  22.665  0.00  0.00    +0.210 HD
ENDBRANCH  26  52
BRANCH  22  54
ATOM     54  O   UNL     1      17.562   2.998  21.346  0.00  0.00    -0.364 OA
ATOM     55  H   UNL     1      17.091   2.785  22.171  0.00  0.00    +0.213 HD
ENDBRANCH  22  54
BRANCH  24  56
ATOM     56  O   UNL     1      17.333   2.968  16.545  0.00  0.00    -0.391 OA
ATOM     57  H   UNL     1      17.991   3.683  16.668  0.00  0.00    +0.210 HD
ENDBRANCH  24  56
BRANCH   1  58
ATOM     58  C   UNL     1       0.742  -5.652  27.419  0.00  0.00    +0.028 C 
ATOM     59  C   UNL     1       1.000  -6.512  28.749  0.00  0.00    +0.011 C 
BRANCH  58  60
ATOM     60  C   UNL     1       0.906  -7.028  26.313  0.00  0.00    +0.012 C 
BRANCH  60  62
ATOM     61  C   UNL     1       3.387  -8.103  26.020  0.00  0.00    +0.010 C 
ATOM     62  C   UNL     1       1.928  -8.026  25.521  0.00  0.00    +0.015 C 
BRANCH  62  63
ATOM     63  C   UNL     1       1.826  -8.124  23.984  0.00  0.00    +0.125 C 
BRANCH  63  64
ATOM     64  O   UNL     1       0.448  -8.039  23.626  0.00  0.00    -0.391 OA
ATOM     65  H   UNL     1       0.126  -7.149  23.863  0.00  0.00    +0.210 HD
ENDBRANCH  63  64
BRANCH  63  66
ATOM     66  C   UNL     1       2.571  -7.056  23.130  0.00  0.00    +0.111 C 
BRANCH  66  67
ATOM     67  C   UNL     1       4.087  -7.012  23.221  0.00  0.00    +0.166 C 
ATOM     68  O   UNL     1       4.722  -7.776  23.939  0.00  0.00    -0.292 OA
BRANCH  67  69
ATOM     69  C   UNL     1       4.819  -5.940  22.449  0.00  0.00    +0.018 A 
ATOM     70  C   UNL     1       4.238  -5.284  21.358  0.00  0.00    +0.013 A 
ATOM     71  C   UNL     1       4.938  -4.267  20.682  0.00  0.00    +0.023 A 
ATOM     72  C   UNL     1       6.211  -3.866  21.099  0.00  0.00    +0.025 A 
ATOM     73  C   UNL     1       6.824  -4.581  22.126  0.00  0.00    +0.023 A 
ATOM     74  C   UNL     1       6.140  -5.607  22.802  0.00  0.00    +0.013 A 
BRANCH  72  75
ATOM     75  N   UNL     1       6.932  -2.918  20.364  0.00  0.00    -0.358 N 
ATOM     76  H   UNL     1       7.678  -2.469  20.886  0.00  0.00    +0.142 HD
ATOM     77  H   UNL     1       7.252  -3.255  19.460  0.00  0.00    +0.142 HD
ENDBRANCH  72  75
ENDBRANCH  67  69
ENDBRANCH  66  67
ENDBRANCH  63  66
ENDBRANCH  62  63
ENDBRANCH  60  62
ENDBRANCH  58  60
ENDBRANCH   1  58
BRANCH  18  78
ATOM     78  O   UNL     1      13.009   4.281  21.873  0.00  0.00    -0.341 OA
BRANCH  78  79
ATOM     79  C   UNL     1      13.007   5.655  22.263  0.00  0.00    +0.281 C 
ATOM     80  C   UNL     1      14.124   5.770  23.309  0.00  0.00    +0.189 C 
ATOM     81  C   UNL     1      13.587   5.384  24.688  0.00  0.00    +0.116 C 
ATOM     82  C   UNL     1      12.372   6.262  25.032  0.00  0.00    +0.162 C 
ATOM     83  C   UNL     1      11.282   6.020  23.974  0.00  0.00    +0.148 C 
ATOM     84  C   UNL     1      10.091   6.958  24.213  0.00  0.00    +0.041 C 
ATOM     85  O   UNL     1      11.743   6.218  22.636  0.00  0.00    -0.343 OA
BRANCH  81  86
ATOM     86  N   UNL     1      14.633   5.474  25.733  0.00  0.00    -0.323 NA
ATOM     87  H   UNL     1      14.346   4.901  26.525  0.00  0.00    +0.119 HD
ATOM     88  H   UNL     1      15.455   4.986  25.365  0.00  0.00    +0.119 HD
ENDBRANCH  81  86
BRANCH  82  89
ATOM     89  O   UNL     1      11.902   5.935  26.349  0.00  0.00    -0.388 OA
ATOM     90  H   UNL     1      11.317   5.161  26.268  0.00  0.00    +0.210 HD
ENDBRANCH  82  89
BRANCH  80  91
ATOM     91  O   UNL     1      14.665   7.100  23.325  0.00  0.00    -0.385 OA
ATOM     92  H   UNL     1      15.457   7.037  23.888  0.00  0.00    +0.210 HD
ENDBRANCH  80  91
ENDBRANCH  78  79
ENDBRANCH  18  78
TORSDOF 21
ENDMDL
MODEL 2
REMARK VINA RESULT:     126.6      2.177      2.724
REMARK  Name = 
REMARK  25 active torsions:
REMARK  status: ('A' for Active; 'I' for Inactive)
REMARK    1  A    between atoms: C_1  and  C_2
REMARK    2  A    between atoms: C_2  and  C_3
REMARK    3  A    between atoms: C_2  and  C_72
REMARK    4  A    between atoms: C_3  and  C_4
REMARK    5  A    between atoms: C_4  and  C_5
REMARK    6  A    between atoms: C_4  and  C_6
REMARK    7  A    between atoms: C_19  and  O_20
REMARK    8  A    between atoms: C_22  and  O_23
REMARK    9  A    between atoms: C_25  and  O_26
REMARK   10  A    between atoms: C_28  and  O_29
REMARK   11  A    between atoms: C_31  and  O_32
REMARK   12  A    between atoms: C_33  and  C_69
REMARK   13  A    between atoms: C_36  and  O_37
REMARK   14  A    between atoms: O_37  and  C_38
REMARK   15  A    between atoms: C_40  and  C_42
REMARK   16  A    between atoms: C_43  and  O_45
REMARK   17  A    between atoms: C_46  and  N_48
REMARK   18  A    between atoms: C_49  and  O_51
REMARK   19  A    between atoms: C_66  and  C_67
REMARK   20  A    between atoms: C_69  and  O_70
REMARK   21  A    between atoms: C_72  and  O_73
REMARK   22  A    between atoms: C_72  and  C_74
REMARK   23  A    between atoms: C_74  and  C_75
REMARK   24  A    between atoms: C_75  and  C_77
REMARK   25  A    between atoms: C_80  and  N_81
REMARK                            x       y       z     vdW  Elec       q    Type
REMARK                         _______ _______ _______ _____ _____    ______ ____
ROOT
ATOM      1  C   UNL     1       1.968  -4.866  28.039  0.00  0.00    +0.186 C 
ATOM      2  C   UNL     1       1.462  -3.181  28.838  0.00  0.00    +0.050 C 
ATOM      3  C   UNL     1       0.587  -3.700  30.028  0.00  0.00    +0.015 C 
ATOM      4  C   UNL     1       0.617  -1.532  28.506  0.00  0.00    -0.020 C 
ATOM      5  C   UNL     1       0.448  -0.082  28.311  0.00  0.00    -0.004 C 
ATOM      6  C   UNL     1       1.018   1.537  28.186  0.00  0.00    -0.000 C 
ATOM      7  C   UNL     1       0.644   2.740  27.502  0.00  0.00    -0.000 C 
ATOM      8  C   UNL     1       1.465   4.086  27.494  0.00  0.00    -0.000 C 
ATOM      9  C   UNL     1       1.640   5.098  26.573  0.00  0.00    -0.000 C 
ATOM     10  C   UNL     1       3.025   5.672  26.468  0.00  0.00    +0.000 C 
ATOM     11  C   UNL     1       3.666   6.210  25.396  0.00  0.00    +0.000 C 
ATOM     12  C   UNL     1       5.119   5.923  25.221  0.00  0.00    -0.000 C 
ATOM     13  C   UNL     1       5.875   6.110  24.121  0.00  0.00    -0.000 C 
ATOM     14  C   UNL     1       7.205   5.487  23.961  0.00  0.00    -0.000 C 
ATOM     15  C   UNL     1       7.981   5.584  22.859  0.00  0.00    -0.000 C 
ATOM     16  C   UNL     1       9.300   4.964  22.715  0.00  0.00    -0.002 C 
ATOM     17  C   UNL     1      10.165   5.169  21.688  0.00  0.00    +0.004 C 
ATOM     18  C   UNL     1      11.612   4.646  21.706  0.00  0.00    +0.147 C 
ATOM     19  C   UNL     1      12.485   4.967  20.456  0.00  0.00    +0.068 C 
ATOM     20  C   UNL     1      13.918   4.305  20.306  0.00  0.00    +0.141 C 
ATOM     21  O   UNL     1      14.811   4.517  21.407  0.00  0.00    -0.344 OA
ATOM     22  C   UNL     1      16.125   3.905  21.345  0.00  0.00    +0.172 C 
ATOM     23  C   UNL     1      16.865   4.355  20.079  0.00  0.00    +0.097 C 
ATOM     24  C   UNL     1      15.977   4.110  18.853  0.00  0.00    +0.136 C 
ATOM     25  C   UNL     1      16.172   2.354  21.489  0.00  0.00    +0.096 C 
ATOM     26  C   UNL     1      15.107   1.827  22.449  0.00  0.00    +0.122 C 
ATOM     27  C   UNL     1      14.953   0.288  22.488  0.00  0.00    +0.063 C 
ATOM     28  C   UNL     1      13.629  -0.070  23.215  0.00  0.00    +0.119 C 
ATOM     29  C   UNL     1      13.288  -1.564  23.287  0.00  0.00    +0.063 C 
ATOM     30  C   UNL     1      11.907  -1.824  23.959  0.00  0.00    +0.124 C 
ATOM     31  C   UNL     1      11.626  -3.324  24.119  0.00  0.00    +0.105 C 
ATOM     32  C   UNL     1      10.228  -3.592  24.668  0.00  0.00    +0.136 C 
ATOM     33  O   UNL     1       9.381  -2.699  24.726  0.00  0.00    -0.297 OA
ATOM     34  C   UNL     1       9.877  -5.042  25.069  0.00  0.00    +0.075 C 
ATOM     35  C   UNL     1       8.518  -5.010  25.787  0.00  0.00    +0.015 C 
ATOM     36  C   UNL     1       7.811  -6.257  26.363  0.00  0.00    +0.075 C 
ATOM     37  C   UNL     1       6.648  -5.715  27.268  0.00  0.00    +0.144 C 
ATOM     38  O   UNL     1       6.728  -4.596  27.766  0.00  0.00    -0.297 OA
ATOM     39  C   UNL     1       5.440  -6.529  27.621  0.00  0.00    +0.194 C 
ATOM     40  C   UNL     1       4.138  -5.779  27.291  0.00  0.00    +0.315 C 
ATOM     41  O   UNL     1       3.723  -5.789  26.142  0.00  0.00    -0.250 OA
ATOM     42  C   UNL     1      14.629   4.804  19.017  0.00  0.00    +0.155 C 
ATOM     43  O   UNL     1       3.438  -5.185  28.327  0.00  0.00    -0.460 OA
ENDROOT
BRANCH  42  44
ATOM     44  C   UNL     1      14.767   6.277  18.959  0.00  0.00    +0.313 C 
ATOM     45  O   UNL     1      15.864   6.774  18.693  0.00  0.00    -0.251 OA
BRANCH  44  46
ATOM     46  O   UNL     1      13.759   7.016  19.444  0.00  0.00    -0.480 OA
ATOM     47  H   UNL     1      12.959   6.508  19.721  0.00  0.00    +0.295 HD
ENDBRANCH  44  46
ENDBRANCH  42  44
BRANCH  30  48
ATOM     48  O   UNL     1      11.823  -1.259  25.266  0.00  0.00    -0.391 OA
ATOM     49  H   UNL     1      12.702  -1.232  25.671  0.00  0.00    +0.210 HD
ENDBRANCH  30  48
BRANCH  28  50
ATOM     50  O   UNL     1      13.672   0.405  24.556  0.00  0.00    -0.392 OA
ATOM     51  H   UNL     1      13.823  -0.349  25.150  0.00  0.00    +0.210 HD
ENDBRANCH  28  50
BRANCH  26  52
ATOM     52  O   UNL     1      15.407   2.256  23.775  0.00  0.00    -0.392 OA
ATOM     53  H   UNL     1      15.255   3.214  23.859  0.00  0.00    +0.210 HD
ENDBRANCH  26  52
BRANCH  22  54
ATOM     54  O   UNL     1      16.844   4.424  22.469  0.00  0.00    -0.364 OA
ATOM     55  H   UNL     1      17.143   5.326  22.256  0.00  0.00    +0.213 HD
ENDBRANCH  22  54
BRANCH  24  56
ATOM     56  O   UNL     1      16.681   4.454  17.666  0.00  0.00    -0.391 OA
ATOM     57  H   UNL     1      16.498   5.382  17.414  0.00  0.00    +0.210 HD
ENDBRANCH  24  56
BRANCH   1  58
ATOM     58  C   UNL     1       1.311  -6.585  28.142  0.00  0.00    +0.028 C 
ATOM     59  C   UNL     1       2.008  -7.570  29.200  0.00  0.00    +0.011 C 
BRANCH  58  60
ATOM     60  C   UNL     1       1.291  -7.767  26.822  0.00  0.00    +0.012 C 
BRANCH  60  62
ATOM     61  C   UNL     1       3.238  -9.388  25.832  0.00  0.00    +0.010 C 
ATOM     62  C   UNL     1       2.090  -8.398  25.544  0.00  0.00    +0.015 C 
BRANCH  62  63
ATOM     63  C   UNL     1       2.388  -7.487  24.333  0.00  0.00    +0.125 C 
BRANCH  63  64
ATOM     64  O   UNL     1       3.599  -6.781  24.597  0.00  0.00    -0.391 OA
ATOM     65  H   UNL     1       3.763  -6.807  25.559  0.00  0.00    +0.210 HD
ENDBRANCH  63  64
BRANCH  63  66
ATOM     66  C   UNL     1       2.561  -8.156  22.938  0.00  0.00    +0.111 C 
BRANCH  66  67
ATOM     67  C   UNL     1       2.670  -7.245  21.727  0.00  0.00    +0.166 C 
ATOM     68  O   UNL     1       2.747  -6.026  21.830  0.00  0.00    -0.292 OA
BRANCH  67  69
ATOM     69  C   UNL     1       2.611  -7.870  20.354  0.00  0.00    +0.018 A 
ATOM     70  C   UNL     1       1.543  -8.680  19.953  0.00  0.00    +0.013 A 
ATOM     71  C   UNL     1       1.505  -9.220  18.653  0.00  0.00    +0.023 A 
ATOM     72  C   UNL     1       2.511  -8.937  17.724  0.00  0.00    +0.025 A 
ATOM     73  C   UNL     1       3.618  -8.206  18.152  0.00  0.00    +0.023 A 
ATOM     74  C   UNL     1       3.673  -7.671  19.453  0.00  0.00    +0.013 A 
BRANCH  72  75
ATOM     75  N   UNL     1       2.508  -9.551  16.467  0.00  0.00    -0.358 N 
ATOM     76  H   UNL     1       2.989  -9.022  15.746  0.00  0.00    +0.142 HD
ATOM     77  H   UNL     1       2.804 -10.524  16.483  0.00  0.00    +0.142 HD
ENDBRANCH  72  75
ENDBRANCH  67  69
ENDBRANCH  66  67
ENDBRANCH  63  66
ENDBRANCH  62  63
ENDBRANCH  60  62
ENDBRANCH  58  60
ENDBRANCH   1  58
BRANCH  18  78
ATOM     78  O   UNL     1      12.150   5.054  22.950  0.00  0.00    -0.341 OA
BRANCH  78  79
ATOM     79  C   UNL     1      11.803   4.309  24.118  0.00  0.00    +0.281 C 
ATOM     80  C   UNL     1      10.271   4.370  24.183  0.00  0.00    +0.189 C 
ATOM     81  C   UNL     1       9.830   5.657  24.881  0.00  0.00    +0.116 C 
ATOM     82  C   UNL     1      10.478   5.735  26.274  0.00  0.00    +0.162 C 
ATOM     83  C   UNL     1      12.006   5.746  26.100  0.00  0.00    +0.148 C 
ATOM     84  C   UNL     1      12.698   5.711  27.469  0.00  0.00    +0.041 C 
ATOM     85  O   UNL     1      12.492   4.647  25.328  0.00  0.00    -0.343 OA
BRANCH  81  86
ATOM     86  N   UNL     1       8.355   5.765  24.963  0.00  0.00    -0.323 NA
ATOM     87  H   UNL     1       8.092   6.729  24.767  0.00  0.00    +0.119 HD
ATOM     88  H   UNL     1       7.981   5.243  24.165  0.00  0.00    +0.119 HD
ENDBRANCH  81  86
BRANCH  82  89
ATOM     89  O   UNL     1      10.022   6.918  26.949  0.00  0.00    -0.388 OA
ATOM     90  H   UNL     1       9.823   7.585  26.269  0.00  0.00    +0.210 HD
ENDBRANCH  82  89
BRANCH  80  91
ATOM     91  O   UNL     1       9.749   3.217  24.860  0.00  0.00    -0.385 OA
ATOM     92  H   UNL     1      10.537   2.734  25.168  0.00  0.00    +0.210 HD
ENDBRANCH  80  91
ENDBRANCH  78  79
ENDBRANCH  18  78
TORSDOF 21
ENDMDL
