MODEL 1
REMARK VINA RESULT:      -7.2      0.000      0.000
REMARK  Name = 
REMARK  5 active torsions:
REMARK  status: ('A' for Active; 'I' for Inactive)
REMARK    1  A    between atoms: C_1  and  C_2
REMARK    2  A    between atoms: N_10  and  N_11
REMARK    3  A    between atoms: C_12  and  C_14
REMARK    4  A    between atoms: C_16  and  S_21
REMARK    5  A    between atoms: S_21  and  N_22
REMARK                            x       y       z     vdW  Elec       q    Type
REMARK                         _______ _______ _______ _____ _____    ______ ____
ROOT
ATOM      1  N   UNL     1       9.134   1.268  23.881  0.00  0.00    -0.230 N 
ATOM      2  H   UNL     1       9.480   0.930  24.771  0.00  0.00    +0.173 HD
ATOM      3  C   UNL     1       8.529   0.434  22.949  0.00  0.00    +0.260 C 
ATOM      4  O   UNL     1       7.837   0.800  22.004  0.00  0.00    -0.269 OA
ENDROOT
BRANCH   1   7
ATOM      5  C   UNL     1       7.362   2.640  25.820  0.00  0.00    +0.030 C 
ATOM      6  C   UNL     1       7.705   3.253  24.463  0.00  0.00    +0.096 C 
ATOM      7  N   UNL     1       8.867   2.621  23.817  0.00  0.00    -0.247 N 
ATOM      8  C   UNL     1       9.911   3.551  23.764  0.00  0.00    +0.051 A 
ATOM      9  C   UNL     1       9.475   4.823  24.143  0.00  0.00    -0.023 A 
ATOM     10  C   UNL     1      10.292   5.938  24.050  0.00  0.00    +0.005 A 
ATOM     11  C   UNL     1      11.593   5.763  23.581  0.00  0.00    +0.000 A 
ATOM     12  C   UNL     1      12.057   4.483  23.236  0.00  0.00    +0.002 A 
ATOM     13  C   UNL     1      11.214   3.368  23.330  0.00  0.00    +0.025 A 
ATOM     14  C   UNL     1       8.049   4.763  24.598  0.00  0.00    +0.061 C 
ENDBRANCH   1   7
BRANCH   3  15
ATOM     15  C   UNL     1       8.674  -1.022  23.222  0.00  0.00    +0.040 A 
ATOM     16  C   UNL     1       9.699  -1.513  24.035  0.00  0.00    +0.014 A 
ATOM     17  C   UNL     1       9.715  -2.862  24.398  0.00  0.00    +0.023 A 
ATOM     18  C   UNL     1       8.717  -3.734  23.947  0.00  0.00    +0.067 A 
ATOM     19 CL   UNL     1       8.788  -5.353  24.542  0.00  0.00    -0.082 Cl
ATOM     20  C   UNL     1       7.734  -3.256  23.077  0.00  0.00    +0.124 A 
ATOM     21  C   UNL     1       7.718  -1.904  22.699  0.00  0.00    +0.043 A 
BRANCH  20  22
ATOM     22  S   UNL     1       6.456  -4.310  22.476  0.00  0.00    +0.057 S 
ATOM     23  O   UNL     1       5.589  -4.672  23.573  0.00  0.00    -0.153 OA
ATOM     24  O   UNL     1       7.039  -5.304  21.604  0.00  0.00    -0.153 OA
BRANCH  22  25
ATOM     25  N   UNL     1       5.532  -3.286  21.522  0.00  0.00    -0.203 NA
ATOM     26  H   UNL     1       4.583  -3.651  21.434  0.00  0.00    +0.144 HD
ATOM     27  H   UNL     1       6.001  -3.117  20.630  0.00  0.00    +0.144 HD
ENDBRANCH  22  25
ENDBRANCH  20  22
ENDBRANCH   3  15
TORSDOF 4
ENDMDL
MODEL 2
REMARK VINA RESULT:      -7.0      3.692      7.756
REMARK  Name = 
REMARK  5 active torsions:
REMARK  status: ('A' for Active; 'I' for Inactive)
REMARK    1  A    between atoms: C_1  and  C_2
REMARK    2  A    between atoms: N_10  and  N_11
REMARK    3  A    between atoms: C_12  and  C_14
REMARK    4  A    between atoms: C_16  and  S_21
REMARK    5  A    between atoms: S_21  and  N_22
REMARK                            x       y       z     vdW  Elec       q    Type
REMARK                         _______ _______ _______ _____ _____    ______ ____
ROOT
ATOM      1  N   UNL     1       8.500  -1.741  23.756  0.00  0.00    -0.230 N 
ATOM      2  H   UNL     1       7.977  -1.370  24.541  0.00  0.00    +0.173 HD
ATOM      3  C   UNL     1       9.460  -0.998  23.080  0.00  0.00    +0.260 C 
ATOM      4  O   UNL     1      10.321  -1.453  22.334  0.00  0.00    -0.269 OA
ENDROOT
BRANCH   1   7
ATOM      5  C   UNL     1       8.675  -3.475  26.153  0.00  0.00    +0.030 C 
ATOM      6  C   UNL     1       9.065  -3.974  24.763  0.00  0.00    +0.096 C 
ATOM      7  N   UNL     1       8.563  -3.118  23.676  0.00  0.00    -0.247 N 
ATOM      8  C   UNL     1       7.607  -3.832  22.946  0.00  0.00    +0.051 A 
ATOM      9  C   UNL     1       7.573  -5.174  23.336  0.00  0.00    -0.023 A 
ATOM     10  C   UNL     1       6.799  -6.112  22.673  0.00  0.00    +0.005 A 
ATOM     11  C   UNL     1       6.020  -5.683  21.599  0.00  0.00    +0.000 A 
ATOM     12  C   UNL     1       6.013  -4.330  21.224  0.00  0.00    +0.002 A 
ATOM     13  C   UNL     1       6.808  -3.396  21.902  0.00  0.00    +0.025 A 
ATOM     14  C   UNL     1       8.495  -5.396  24.495  0.00  0.00    +0.061 C 
ENDBRANCH   1   7
BRANCH   3  15
ATOM     15  C   UNL     1       9.470   0.455  23.401  0.00  0.00    +0.040 A 
ATOM     16  C   UNL     1      10.652   1.121  23.736  0.00  0.00    +0.014 A 
ATOM     17  C   UNL     1      10.654   2.510  23.878  0.00  0.00    +0.023 A 
ATOM     18  C   UNL     1       9.478   3.246  23.698  0.00  0.00    +0.067 A 
ATOM     19 CL   UNL     1       9.625   4.964  23.803  0.00  0.00    -0.082 Cl
ATOM     20  C   UNL     1       8.283   2.573  23.434  0.00  0.00    +0.124 A 
ATOM     21  C   UNL     1       8.272   1.175  23.301  0.00  0.00    +0.043 A 
BRANCH  20  22
ATOM     22  S   UNL     1       6.772   3.449  23.202  0.00  0.00    +0.057 S 
ATOM     23  O   UNL     1       6.867   4.243  21.999  0.00  0.00    -0.153 OA
ATOM     24  O   UNL     1       6.364   4.023  24.464  0.00  0.00    -0.153 OA
BRANCH  22  25
ATOM     25  N   UNL     1       5.678   2.235  22.827  0.00  0.00    -0.203 NA
ATOM     26  H   UNL     1       5.867   1.870  21.893  0.00  0.00    +0.144 HD
ATOM     27  H   UNL     1       4.722   2.568  22.962  0.00  0.00    +0.144 HD
ENDBRANCH  22  25
ENDBRANCH  20  22
ENDBRANCH   3  15
TORSDOF 4
ENDMDL
MODEL 3
REMARK VINA RESULT:      -7.0      2.083      3.323
REMARK  Name = 
REMARK  5 active torsions:
REMARK  status: ('A' for Active; 'I' for Inactive)
REMARK    1  A    between atoms: C_1  and  C_2
REMARK    2  A    between atoms: N_10  and  N_11
REMARK    3  A    between atoms: C_12  and  C_14
REMARK    4  A    between atoms: C_16  and  S_21
REMARK    5  A    between atoms: S_21  and  N_22
REMARK                            x       y       z     vdW  Elec       q    Type
REMARK                         _______ _______ _______ _____ _____    ______ ____
ROOT
ATOM      1  N   UNL     1       8.357  -0.786  23.995  0.00  0.00    -0.230 N 
ATOM      2  H   UNL     1       7.435  -0.810  23.575  0.00  0.00    +0.173 HD
ATOM      3  C   UNL     1       8.995  -1.928  24.464  0.00  0.00    +0.260 C 
ATOM      4  O   UNL     1      10.193  -2.030  24.708  0.00  0.00    -0.269 OA
ENDROOT
BRANCH   1   7
ATOM      5  C   UNL     1       9.073  -0.099  21.202  0.00  0.00    +0.030 C 
ATOM      6  C   UNL     1       9.851   0.452  22.395  0.00  0.00    +0.096 C 
ATOM      7  N   UNL     1       9.133   0.309  23.673  0.00  0.00    -0.247 N 
ATOM      8  C   UNL     1       8.795   1.584  24.142  0.00  0.00    +0.051 A 
ATOM      9  C   UNL     1       9.406   2.582  23.379  0.00  0.00    -0.023 A 
ATOM     10  C   UNL     1       9.328   3.922  23.724  0.00  0.00    +0.005 A 
ATOM     11  C   UNL     1       8.595   4.267  24.859  0.00  0.00    +0.000 A 
ATOM     12  C   UNL     1       7.942   3.278  25.610  0.00  0.00    +0.002 A 
ATOM     13  C   UNL     1       8.038   1.927  25.251  0.00  0.00    +0.025 A 
ATOM     14  C   UNL     1      10.141   1.970  22.227  0.00  0.00    +0.061 C 
ENDBRANCH   1   7
BRANCH   3  15
ATOM     15  C   UNL     1       8.128  -3.134  24.565  0.00  0.00    +0.040 A 
ATOM     16  C   UNL     1       8.056  -3.886  25.741  0.00  0.00    +0.014 A 
ATOM     17  C   UNL     1       7.119  -4.915  25.854  0.00  0.00    +0.023 A 
ATOM     18  C   UNL     1       6.253  -5.211  24.795  0.00  0.00    +0.067 A 
ATOM     19 CL   UNL     1       5.074  -6.437  25.088  0.00  0.00    -0.082 Cl
ATOM     20  C   UNL     1       6.374  -4.505  23.595  0.00  0.00    +0.124 A 
ATOM     21  C   UNL     1       7.322  -3.477  23.470  0.00  0.00    +0.043 A 
BRANCH  20  22
ATOM     22  S   UNL     1       5.313  -4.838  22.228  0.00  0.00    +0.057 S 
ATOM     23  O   UNL     1       5.702  -4.002  21.116  0.00  0.00    -0.153 OA
ATOM     24  O   UNL     1       3.948  -4.897  22.697  0.00  0.00    -0.153 OA
BRANCH  22  25
ATOM     25  N   UNL     1       5.753  -6.390  21.770  0.00  0.00    -0.203 NA
ATOM     26  H   UNL     1       6.768  -6.454  21.682  0.00  0.00    +0.144 HD
ATOM     27  H   UNL     1       5.240  -6.669  20.932  0.00  0.00    +0.144 HD
ENDBRANCH  22  25
ENDBRANCH  20  22
ENDBRANCH   3  15
TORSDOF 4
ENDMDL
MODEL 4
REMARK VINA RESULT:      -6.9      3.936      8.435
REMARK  Name = 
REMARK  5 active torsions:
REMARK  status: ('A' for Active; 'I' for Inactive)
REMARK    1  A    between atoms: C_1  and  C_2
REMARK    2  A    between atoms: N_10  and  N_11
REMARK    3  A    between atoms: C_12  and  C_14
REMARK    4  A    between atoms: C_16  and  S_21
REMARK    5  A    between atoms: S_21  and  N_22
REMARK                            x       y       z     vdW  Elec       q    Type
REMARK                         _______ _______ _______ _____ _____    ______ ____
ROOT
ATOM      1  N   UNL     1       6.809  -3.845  24.398  0.00  0.00    -0.230 N 
ATOM      2  H   UNL     1       6.254  -3.014  24.565  0.00  0.00    +0.173 HD
ATOM      3  C   UNL     1       8.156  -3.791  24.064  0.00  0.00    +0.260 C 
ATOM      4  O   UNL     1       8.949  -4.724  24.133  0.00  0.00    -0.269 OA
ENDROOT
BRANCH   1   7
ATOM      5  C   UNL     1       6.491  -4.216  27.321  0.00  0.00    +0.030 C 
ATOM      6  C   UNL     1       6.535  -5.399  26.356  0.00  0.00    +0.096 C 
ATOM      7  N   UNL     1       6.320  -5.012  24.952  0.00  0.00    -0.247 N 
ATOM      8  C   UNL     1       5.102  -5.549  24.520  0.00  0.00    +0.051 A 
ATOM      9  C   UNL     1       4.578  -6.436  25.464  0.00  0.00    -0.023 A 
ATOM     10  C   UNL     1       3.445  -7.193  25.212  0.00  0.00    +0.005 A 
ATOM     11  C   UNL     1       2.810  -7.036  23.981  0.00  0.00    +0.000 A 
ATOM     12  C   UNL     1       3.303  -6.117  23.040  0.00  0.00    +0.002 A 
ATOM     13  C   UNL     1       4.454  -5.366  23.310  0.00  0.00    +0.025 A 
ATOM     14  C   UNL     1       5.433  -6.442  26.694  0.00  0.00    +0.061 C 
ENDBRANCH   1   7
BRANCH   3  15
ATOM     15  C   UNL     1       8.657  -2.439  23.696  0.00  0.00    +0.040 A 
ATOM     16  C   UNL     1       9.930  -2.255  23.149  0.00  0.00    +0.014 A 
ATOM     17  C   UNL     1      10.308  -0.998  22.671  0.00  0.00    +0.023 A 
ATOM     18  C   UNL     1       9.428   0.087  22.742  0.00  0.00    +0.067 A 
ATOM     19 CL   UNL     1       9.971   1.563  22.030  0.00  0.00    -0.082 Cl
ATOM     20  C   UNL     1       8.183  -0.081  23.353  0.00  0.00    +0.124 A 
ATOM     21  C   UNL     1       7.800  -1.339  23.846  0.00  0.00    +0.043 A 
BRANCH  20  22
ATOM     22  S   UNL     1       7.036   1.251  23.474  0.00  0.00    +0.057 S 
ATOM     23  O   UNL     1       6.633   1.647  22.145  0.00  0.00    -0.153 OA
ATOM     24  O   UNL     1       7.529   2.208  24.438  0.00  0.00    -0.153 OA
BRANCH  22  25
ATOM     25  N   UNL     1       5.676   0.528  24.136  0.00  0.00    -0.203 NA
ATOM     26  H   UNL     1       5.854  -0.463  24.305  0.00  0.00    +0.144 HD
ATOM     27  H   UNL     1       4.858   0.715  23.554  0.00  0.00    +0.144 HD
ENDBRANCH  22  25
ENDBRANCH  20  22
ENDBRANCH   3  15
TORSDOF 4
ENDMDL
MODEL 5
REMARK VINA RESULT:      -6.9      2.793      3.943
REMARK  Name = 
REMARK  5 active torsions:
REMARK  status: ('A' for Active; 'I' for Inactive)
REMARK    1  A    between atoms: C_1  and  C_2
REMARK    2  A    between atoms: N_10  and  N_11
REMARK    3  A    between atoms: C_12  and  C_14
REMARK    4  A    between atoms: C_16  and  S_21
REMARK    5  A    between atoms: S_21  and  N_22
REMARK                            x       y       z     vdW  Elec       q    Type
REMARK                         _______ _______ _______ _____ _____    ______ ____
ROOT
ATOM      1  N   UNL     1       8.170  -0.660  23.891  0.00  0.00    -0.230 N 
ATOM      2  H   UNL     1       7.220  -0.493  23.582  0.00  0.00    +0.173 HD
ATOM      3  C   UNL     1       8.670  -1.937  24.115  0.00  0.00    +0.260 C 
ATOM      4  O   UNL     1       9.857  -2.236  24.200  0.00  0.00    -0.269 OA
ENDROOT
BRANCH   1   7
ATOM      5  C   UNL     1       9.155  -0.033  21.167  0.00  0.00    +0.030 C 
ATOM      6  C   UNL     1       9.890   0.437  22.421  0.00  0.00    +0.096 C 
ATOM      7  N   UNL     1       9.069   0.358  23.640  0.00  0.00    -0.247 N 
ATOM      8  C   UNL     1       8.818   1.657  24.097  0.00  0.00    +0.051 A 
ATOM      9  C   UNL     1       9.576   2.595  23.393  0.00  0.00    -0.023 A 
ATOM     10  C   UNL     1       9.600   3.935  23.745  0.00  0.00    +0.005 A 
ATOM     11  C   UNL     1       8.820   4.344  24.826  0.00  0.00    +0.000 A 
ATOM     12  C   UNL     1       8.021   3.418  25.516  0.00  0.00    +0.002 A 
ATOM     13  C   UNL     1       8.016   2.066  25.149  0.00  0.00    +0.025 A 
ATOM     14  C   UNL     1      10.334   1.922  22.291  0.00  0.00    +0.061 C 
ENDBRANCH   1   7
BRANCH   3  15
ATOM     15  C   UNL     1       7.646  -3.016  24.143  0.00  0.00    +0.040 A 
ATOM     16  C   UNL     1       7.055  -3.493  22.970  0.00  0.00    +0.014 A 
ATOM     17  C   UNL     1       6.216  -4.609  23.016  0.00  0.00    +0.023 A 
ATOM     18  C   UNL     1       5.950  -5.252  24.229  0.00  0.00    +0.067 A 
ATOM     19 CL   UNL     1       4.979  -6.677  24.145  0.00  0.00    -0.082 Cl
ATOM     20  C   UNL     1       6.484  -4.731  25.411  0.00  0.00    +0.124 A 
ATOM     21  C   UNL     1       7.319  -3.603  25.374  0.00  0.00    +0.043 A 
BRANCH  20  22
ATOM     22  S   UNL     1       6.179  -5.498  26.968  0.00  0.00    +0.057 S 
ATOM     23  O   UNL     1       5.574  -6.790  26.746  0.00  0.00    -0.153 OA
ATOM     24  O   UNL     1       5.595  -4.525  27.863  0.00  0.00    -0.153 OA
BRANCH  22  25
ATOM     25  N   UNL     1       7.720  -5.839  27.535  0.00  0.00    -0.203 NA
ATOM     26  H   UNL     1       8.379  -5.133  27.205  0.00  0.00    +0.144 HD
ATOM     27  H   UNL     1       7.978  -6.799  27.297  0.00  0.00    +0.144 HD
ENDBRANCH  22  25
ENDBRANCH  20  22
ENDBRANCH   3  15
TORSDOF 4
ENDMDL
MODEL 6
REMARK VINA RESULT:      -6.6      2.848      4.365
REMARK  Name = 
REMARK  5 active torsions:
REMARK  status: ('A' for Active; 'I' for Inactive)
REMARK    1  A    between atoms: C_1  and  C_2
REMARK    2  A    between atoms: N_10  and  N_11
REMARK    3  A    between atoms: C_12  and  C_14
REMARK    4  A    between atoms: C_16  and  S_21
REMARK    5  A    between atoms: S_21  and  N_22
REMARK                            x       y       z     vdW  Elec       q    Type
REMARK                         _______ _______ _______ _____ _____    ______ ____
ROOT
ATOM      1  N   UNL     1       8.401  -2.099  24.522  0.00  0.00    -0.230 N 
ATOM      2  H   UNL     1       7.410  -1.894  24.577  0.00  0.00    +0.173 HD
ATOM      3  C   UNL     1       8.917  -3.365  24.766  0.00  0.00    +0.260 C 
ATOM      4  O   UNL     1      10.034  -3.757  24.442  0.00  0.00    -0.269 OA
ENDROOT
BRANCH   1   7
ATOM      5  C   UNL     1       8.466  -2.192  21.561  0.00  0.00    +0.030 C 
ATOM      6  C   UNL     1       9.547  -1.480  22.371  0.00  0.00    +0.096 C 
ATOM      7  N   UNL     1       9.152  -1.221  23.766  0.00  0.00    -0.247 N 
ATOM      8  C   UNL     1       9.030   0.161  23.948  0.00  0.00    +0.051 A 
ATOM      9  C   UNL     1       9.508   0.861  22.838  0.00  0.00    -0.023 A 
ATOM     10  C   UNL     1       9.613   2.243  22.830  0.00  0.00    +0.005 A 
ATOM     11  C   UNL     1       9.204   2.940  23.966  0.00  0.00    +0.000 A 
ATOM     12  C   UNL     1       8.682   2.250  25.072  0.00  0.00    +0.002 A 
ATOM     13  C   UNL     1       8.591   0.852  25.065  0.00  0.00    +0.025 A 
ATOM     14  C   UNL     1       9.896  -0.097  21.754  0.00  0.00    +0.061 C 
ENDBRANCH   1   7
BRANCH   3  15
ATOM     15  C   UNL     1       7.960  -4.325  25.380  0.00  0.00    +0.040 A 
ATOM     16  C   UNL     1       8.029  -4.659  26.735  0.00  0.00    +0.014 A 
ATOM     17  C   UNL     1       7.024  -5.439  27.313  0.00  0.00    +0.023 A 
ATOM     18  C   UNL     1       5.949  -5.900  26.546  0.00  0.00    +0.067 A 
ATOM     19 CL   UNL     1       4.720  -6.769  27.392  0.00  0.00    -0.082 Cl
ATOM     20  C   UNL     1       5.918  -5.625  25.176  0.00  0.00    +0.124 A 
ATOM     21  C   UNL     1       6.931  -4.851  24.586  0.00  0.00    +0.043 A 
BRANCH  20  22
ATOM     22  S   UNL     1       4.591  -6.183  24.161  0.00  0.00    +0.057 S 
ATOM     23  O   UNL     1       4.327  -7.573  24.454  0.00  0.00    -0.153 OA
ATOM     24  O   UNL     1       4.804  -5.716  22.810  0.00  0.00    -0.153 OA
BRANCH  22  25
ATOM     25  N   UNL     1       3.266  -5.358  24.773  0.00  0.00    -0.203 NA
ATOM     26  H   UNL     1       3.057  -4.549  24.187  0.00  0.00    +0.144 HD
ATOM     27  H   UNL     1       3.415  -5.135  25.759  0.00  0.00    +0.144 HD
ENDBRANCH  22  25
ENDBRANCH  20  22
ENDBRANCH   3  15
TORSDOF 4
ENDMDL
MODEL 7
REMARK VINA RESULT:      -6.4      4.197      7.756
REMARK  Name = 
REMARK  5 active torsions:
REMARK  status: ('A' for Active; 'I' for Inactive)
REMARK    1  A    between atoms: C_1  and  C_2
REMARK    2  A    between atoms: N_10  and  N_11
REMARK    3  A    between atoms: C_12  and  C_14
REMARK    4  A    between atoms: C_16  and  S_21
REMARK    5  A    between atoms: S_21  and  N_22
REMARK                            x       y       z     vdW  Elec       q    Type
REMARK                         _______ _______ _______ _____ _____    ______ ____
ROOT
ATOM      1  N   UNL     1       7.385  -1.190  23.319  0.00  0.00    -0.230 N 
ATOM      2  H   UNL     1       6.692  -0.989  24.030  0.00  0.00    +0.173 HD
ATOM      3  C   UNL     1       8.035  -0.192  22.604  0.00  0.00    +0.260 C 
ATOM      4  O   UNL     1       9.067  -0.331  21.957  0.00  0.00    -0.269 OA
ENDROOT
BRANCH   1   7
ATOM      5  C   UNL     1       8.257  -2.371  25.893  0.00  0.00    +0.030 C 
ATOM      6  C   UNL     1       8.798  -2.864  24.553  0.00  0.00    +0.096 C 
ATOM      7  N   UNL     1       7.988  -2.430  23.403  0.00  0.00    -0.247 N 
ATOM      8  C   UNL     1       7.385  -3.554  22.829  0.00  0.00    +0.051 A 
ATOM      9  C   UNL     1       7.889  -4.735  23.380  0.00  0.00    -0.023 A 
ATOM     10  C   UNL     1       7.544  -5.983  22.887  0.00  0.00    +0.005 A 
ATOM     11  C   UNL     1       6.648  -6.043  21.821  0.00  0.00    +0.000 A 
ATOM     12  C   UNL     1       6.102  -4.866  21.285  0.00  0.00    +0.002 A 
ATOM     13  C   UNL     1       6.469  -3.613  21.791  0.00  0.00    +0.025 A 
ATOM     14  C   UNL     1       8.835  -4.418  24.497  0.00  0.00    +0.061 C 
ENDBRANCH   1   7
BRANCH   3  15
ATOM     15  C   UNL     1       7.449   1.168  22.753  0.00  0.00    +0.040 A 
ATOM     16  C   UNL     1       7.886   2.242  21.973  0.00  0.00    +0.014 A 
ATOM     17  C   UNL     1       7.211   3.464  22.026  0.00  0.00    +0.023 A 
ATOM     18  C   UNL     1       6.102   3.630  22.863  0.00  0.00    +0.067 A 
ATOM     19 CL   UNL     1       5.292   5.151  22.769  0.00  0.00    -0.082 Cl
ATOM     20  C   UNL     1       5.710   2.578  23.695  0.00  0.00    +0.124 A 
ATOM     21  C   UNL     1       6.391   1.351  23.655  0.00  0.00    +0.043 A 
BRANCH  20  22
ATOM     22  S   UNL     1       4.323   2.733  24.771  0.00  0.00    +0.057 S 
ATOM     23  O   UNL     1       3.114   2.750  23.982  0.00  0.00    -0.153 OA
ATOM     24  O   UNL     1       4.606   3.752  25.757  0.00  0.00    -0.153 OA
BRANCH  22  25
ATOM     25  N   UNL     1       4.292   1.259  25.570  0.00  0.00    -0.203 NA
ATOM     26  H   UNL     1       4.615   1.375  26.532  0.00  0.00    +0.144 HD
ATOM     27  H   UNL     1       4.807   0.557  25.036  0.00  0.00    +0.144 HD
ENDBRANCH  22  25
ENDBRANCH  20  22
ENDBRANCH   3  15
TORSDOF 4
ENDMDL
MODEL 8
REMARK VINA RESULT:      -6.4      2.506      3.641
REMARK  Name = 
REMARK  5 active torsions:
REMARK  status: ('A' for Active; 'I' for Inactive)
REMARK    1  A    between atoms: C_1  and  C_2
REMARK    2  A    between atoms: N_10  and  N_11
REMARK    3  A    between atoms: C_12  and  C_14
REMARK    4  A    between atoms: C_16  and  S_21
REMARK    5  A    between atoms: S_21  and  N_22
REMARK                            x       y       z     vdW  Elec       q    Type
REMARK                         _______ _______ _______ _____ _____    ______ ____
ROOT
ATOM      1  N   UNL     1       8.091  -0.576  23.920  0.00  0.00    -0.230 N 
ATOM      2  H   UNL     1       7.178  -0.440  23.503  0.00  0.00    +0.173 HD
ATOM      3  C   UNL     1       8.607  -1.836  24.197  0.00  0.00    +0.260 C 
ATOM      4  O   UNL     1       9.785  -2.094  24.420  0.00  0.00    -0.269 OA
ENDROOT
BRANCH   1   7
ATOM      5  C   UNL     1       9.237   0.213  21.304  0.00  0.00    +0.030 C 
ATOM      6  C   UNL     1       9.874   0.636  22.626  0.00  0.00    +0.096 C 
ATOM      7  N   UNL     1       8.975   0.475  23.782  0.00  0.00    -0.247 N 
ATOM      8  C   UNL     1       8.659   1.742  24.284  0.00  0.00    +0.051 A 
ATOM      9  C   UNL     1       9.436   2.734  23.680  0.00  0.00    -0.023 A 
ATOM     10  C   UNL     1       9.399   4.054  24.099  0.00  0.00    +0.005 A 
ATOM     11  C   UNL     1       8.538   4.388  25.144  0.00  0.00    +0.000 A 
ATOM     12  C   UNL     1       7.721   3.409  25.731  0.00  0.00    +0.002 A 
ATOM     13  C   UNL     1       7.778   2.078  25.299  0.00  0.00    +0.025 A 
ATOM     14  C   UNL     1      10.284   2.136  22.600  0.00  0.00    +0.061 C 
ENDBRANCH   1   7
BRANCH   3  15
ATOM     15  C   UNL     1       7.625  -2.951  24.099  0.00  0.00    +0.040 A 
ATOM     16  C   UNL     1       7.966  -4.176  23.520  0.00  0.00    +0.014 A 
ATOM     17  C   UNL     1       7.075  -5.250  23.585  0.00  0.00    +0.023 A 
ATOM     18  C   UNL     1       5.835  -5.110  24.217  0.00  0.00    +0.067 A 
ATOM     19 CL   UNL     1       4.863  -6.534  24.321  0.00  0.00    -0.082 Cl
ATOM     20  C   UNL     1       5.467  -3.865  24.733  0.00  0.00    +0.124 A 
ATOM     21  C   UNL     1       6.353  -2.778  24.662  0.00  0.00    +0.043 A 
BRANCH  20  22
ATOM     22  S   UNL     1       3.916  -3.632  25.537  0.00  0.00    +0.057 S 
ATOM     23  O   UNL     1       3.962  -4.254  26.839  0.00  0.00    -0.153 OA
ATOM     24  O   UNL     1       2.854  -3.908  24.596  0.00  0.00    -0.153 OA
BRANCH  22  25
ATOM     25  N   UNL     1       3.891  -1.985  25.850  0.00  0.00    -0.203 NA
ATOM     26  H   UNL     1       3.178  -1.772  26.549  0.00  0.00    +0.144 HD
ATOM     27  H   UNL     1       3.793  -1.461  24.978  0.00  0.00    +0.144 HD
ENDBRANCH  22  25
ENDBRANCH  20  22
ENDBRANCH   3  15
TORSDOF 4
ENDMDL
MODEL 9
REMARK VINA RESULT:      -6.3      2.081      2.222
REMARK  Name = 
REMARK  5 active torsions:
REMARK  status: ('A' for Active; 'I' for Inactive)
REMARK    1  A    between atoms: C_1  and  C_2
REMARK    2  A    between atoms: N_10  and  N_11
REMARK    3  A    between atoms: C_12  and  C_14
REMARK    4  A    between atoms: C_16  and  S_21
REMARK    5  A    between atoms: S_21  and  N_22
REMARK                            x       y       z     vdW  Elec       q    Type
REMARK                         _______ _______ _______ _____ _____    ______ ____
ROOT
ATOM      1  N   UNL     1       8.820   1.869  23.922  0.00  0.00    -0.230 N 
ATOM      2  H   UNL     1       8.830   1.467  24.853  0.00  0.00    +0.173 HD
ATOM      3  C   UNL     1       8.390   1.161  22.807  0.00  0.00    +0.260 C 
ATOM      4  O   UNL     1       8.075   1.649  21.727  0.00  0.00    -0.269 OA
ENDROOT
BRANCH   1   7
ATOM      5  C   UNL     1       7.327   3.532  25.867  0.00  0.00    +0.030 C 
ATOM      6  C   UNL     1       7.778   4.079  24.514  0.00  0.00    +0.096 C 
ATOM      7  N   UNL     1       8.806   3.248  23.866  0.00  0.00    -0.247 N 
ATOM      8  C   UNL     1      10.003   3.971  23.819  0.00  0.00    +0.051 A 
ATOM      9  C   UNL     1       9.807   5.299  24.204  0.00  0.00    -0.023 A 
ATOM     10  C   UNL     1      10.815   6.246  24.118  0.00  0.00    +0.005 A 
ATOM     11  C   UNL     1      12.063   5.837  23.649  0.00  0.00    +0.000 A 
ATOM     12  C   UNL     1      12.284   4.496  23.298  0.00  0.00    +0.002 A 
ATOM     13  C   UNL     1      11.251   3.554  23.385  0.00  0.00    +0.025 A 
ATOM     14  C   UNL     1       8.394   5.500  24.657  0.00  0.00    +0.061 C 
ENDBRANCH   1   7
BRANCH   3  15
ATOM     15  C   UNL     1       8.211  -0.301  23.023  0.00  0.00    +0.040 A 
ATOM     16  C   UNL     1       8.511  -1.229  22.022  0.00  0.00    +0.014 A 
ATOM     17  C   UNL     1       8.482  -2.596  22.307  0.00  0.00    +0.023 A 
ATOM     18  C   UNL     1       8.145  -3.050  23.587  0.00  0.00    +0.067 A 
ATOM     19 CL   UNL     1       8.240  -4.755  23.844  0.00  0.00    -0.082 Cl
ATOM     20  C   UNL     1       7.776  -2.125  24.566  0.00  0.00    +0.124 A 
ATOM     21  C   UNL     1       7.792  -0.750  24.283  0.00  0.00    +0.043 A 
BRANCH  20  22
ATOM     22  S   UNL     1       7.338  -2.641  26.193  0.00  0.00    +0.057 S 
ATOM     23  O   UNL     1       6.913  -1.490  26.954  0.00  0.00    -0.153 OA
ATOM     24  O   UNL     1       8.349  -3.549  26.685  0.00  0.00    -0.153 OA
BRANCH  22  25
ATOM     25  N   UNL     1       5.940  -3.533  25.949  0.00  0.00    -0.203 NA
ATOM     26  H   UNL     1       6.122  -4.298  25.298  0.00  0.00    +0.144 HD
ATOM     27  H   UNL     1       5.174  -2.918  25.670  0.00  0.00    +0.144 HD
ENDBRANCH  22  25
ENDBRANCH  20  22
ENDBRANCH   3  15
TORSDOF 4
ENDMDL
