MODEL 1
REMARK VINA RESULT:      -7.4      0.000      0.000
REMARK  Name = 
REMARK  10 active torsions:
REMARK  status: ('A' for Active; 'I' for Inactive)
REMARK    1  A    between atoms: C_1  and  O_2
REMARK    2  A    between atoms: O_2  and  C_3
REMARK    3  A    between atoms: C_4  and  O_5
REMARK    4  A    between atoms: O_5  and  C_6
REMARK    5  A    between atoms: N_16  and  C_17
REMARK    6  A    between atoms: N_16  and  C_18
REMARK    7  A    between atoms: C_18  and  C_19
REMARK    8  A    between atoms: C_19  and  C_20
REMARK    9  A    between atoms: C_20  and  N_21
REMARK   10  A    between atoms: C_22  and  C_24
REMARK                            x       y       z     vdW  Elec       q    Type
REMARK                         _______ _______ _______ _____ _____    ______ ____
ROOT
ATOM      1  C   UNL     1       4.985  -6.325  26.034  0.00  0.00    +0.164 A 
ATOM      2  C   UNL     1       6.037  -5.426  25.804  0.00  0.00    +0.078 A 
ATOM      3  C   UNL     1       6.491  -5.119  24.535  0.00  0.00    +0.082 A 
ATOM      4  C   UNL     1       5.929  -5.765  23.444  0.00  0.00    +0.044 A 
ATOM      5  C   UNL     1       6.425  -5.338  22.209  0.00  0.00    +0.129 A 
ATOM      6  N   UNL     1       7.325  -4.349  22.082  0.00  0.00    -0.199 NA
ATOM      7  C   UNL     1       7.813  -3.798  23.202  0.00  0.00    +0.220 A 
ATOM      8  N   UNL     1       8.685  -2.740  23.123  0.00  0.00    -0.303 N 
ATOM      9  C   UNL     1       9.662  -2.547  24.176  0.00  0.00    +0.132 C 
ATOM     10  N   UNL     1       6.020  -5.941  21.011  0.00  0.00    -0.343 N 
ATOM     11  H   UNL     1       6.470  -5.437  20.252  0.00  0.00    +0.144 HD
ATOM     12  H   UNL     1       5.012  -5.960  20.914  0.00  0.00    +0.144 HD
ATOM     13  C   UNL     1       4.928  -6.744  23.662  0.00  0.00    +0.062 A 
ATOM     14  N   UNL     1       7.433  -4.185  24.424  0.00  0.00    -0.214 NA
ATOM     15  C   UNL     1       4.440  -7.017  24.948  0.00  0.00    +0.162 A 
ENDROOT
BRANCH   1  17
ATOM     16  C   UNL     1       5.522  -6.633  28.318  0.00  0.00    +0.277 C 
ATOM     17  O   UNL     1       4.517  -6.552  27.304  0.00  0.00    -0.491 OA
ENDBRANCH   1  17
BRANCH  15  18
ATOM     18  O   UNL     1       3.433  -7.945  24.934  0.00  0.00    -0.491 OA
ATOM     19  C   UNL     1       2.097  -7.504  24.748  0.00  0.00    +0.277 C 
ENDBRANCH  15  18
BRANCH   8  20
ATOM     20  C   UNL     1       8.677  -1.848  21.975  0.00  0.00    +0.109 C 
BRANCH  20  21
ATOM     21  C   UNL     1       9.831  -0.835  22.003  0.00  0.00    +0.038 C 
BRANCH  21  22
ATOM     22  C   UNL     1       9.416   0.566  21.553  0.00  0.00    +0.106 C 
BRANCH  22  23
ATOM     23  N   UNL     1       9.973   1.603  22.404  0.00  0.00    -0.313 N 
ATOM     24  H   UNL     1      10.893   1.474  22.817  0.00  0.00    +0.149 HD
ATOM     25  C   UNL     1       9.223   2.654  22.888  0.00  0.00    +0.242 C 
ATOM     26  O   UNL     1       8.037   2.820  22.605  0.00  0.00    -0.273 OA
BRANCH  25  27
ATOM     27  C   UNL     1      10.030   3.654  23.735  0.00  0.00    +0.204 C 
ATOM     28  O   UNL     1       9.434   4.961  23.806  0.00  0.00    -0.367 OA
ATOM     29  C   UNL     1      10.463   5.940  23.593  0.00  0.00    +0.161 C 
ATOM     30  C   UNL     1      11.790   5.224  23.691  0.00  0.00    +0.031 C 
ATOM     31  C   UNL     1      11.440   3.843  23.200  0.00  0.00    +0.043 C 
ENDBRANCH  25  27
ENDBRANCH  22  23
ENDBRANCH  21  22
ENDBRANCH  20  21
ENDBRANCH   8  20
TORSDOF 7
ENDMDL
MODEL 2
REMARK VINA RESULT:      -7.4      2.753      7.266
REMARK  Name = 
REMARK  10 active torsions:
REMARK  status: ('A' for Active; 'I' for Inactive)
REMARK    1  A    between atoms: C_1  and  O_2
REMARK    2  A    between atoms: O_2  and  C_3
REMARK    3  A    between atoms: C_4  and  O_5
REMARK    4  A    between atoms: O_5  and  C_6
REMARK    5  A    between atoms: N_16  and  C_17
REMARK    6  A    between atoms: N_16  and  C_18
REMARK    7  A    between atoms: C_18  and  C_19
REMARK    8  A    between atoms: C_19  and  C_20
REMARK    9  A    between atoms: C_20  and  N_21
REMARK   10  A    between atoms: C_22  and  C_24
REMARK                            x       y       z     vdW  Elec       q    Type
REMARK                         _______ _______ _______ _____ _____    ______ ____
ROOT
ATOM      1  C   UNL     1       9.366  -0.605  22.279  0.00  0.00    +0.164 A 
ATOM      2  C   UNL     1       8.573  -1.684  21.861  0.00  0.00    +0.078 A 
ATOM      3  C   UNL     1       8.329  -2.785  22.660  0.00  0.00    +0.082 A 
ATOM      4  C   UNL     1       8.937  -2.861  23.905  0.00  0.00    +0.044 A 
ATOM      5  C   UNL     1       8.579  -3.988  24.648  0.00  0.00    +0.129 A 
ATOM      6  N   UNL     1       7.680  -4.892  24.223  0.00  0.00    -0.199 NA
ATOM      7  C   UNL     1       7.159  -4.730  22.999  0.00  0.00    +0.220 A 
ATOM      8  N   UNL     1       6.188  -5.590  22.546  0.00  0.00    -0.303 N 
ATOM      9  C   UNL     1       6.071  -5.840  21.124  0.00  0.00    +0.132 C 
ATOM     10  N   UNL     1       9.160  -4.258  25.894  0.00  0.00    -0.343 N 
ATOM     11  H   UNL     1       8.712  -5.092  26.263  0.00  0.00    +0.144 HD
ATOM     12  H   UNL     1       9.086  -3.472  26.528  0.00  0.00    +0.144 HD
ATOM     13  C   UNL     1       9.815  -1.825  24.308  0.00  0.00    +0.062 A 
ATOM     14  N   UNL     1       7.490  -3.710  22.201  0.00  0.00    -0.214 NA
ATOM     15  C   UNL     1      10.020  -0.689  23.511  0.00  0.00    +0.162 A 
ENDROOT
BRANCH   1  17
ATOM     16  C   UNL     1       8.431   1.419  21.486  0.00  0.00    +0.277 C 
ATOM     17  O   UNL     1       9.528   0.501  21.484  0.00  0.00    -0.491 OA
ENDBRANCH   1  17
BRANCH  15  18
ATOM     18  O   UNL     1      10.851   0.222  24.111  0.00  0.00    -0.491 OA
ATOM     19  C   UNL     1      10.327   1.486  24.485  0.00  0.00    +0.277 C 
ENDBRANCH  15  18
BRANCH   8  20
ATOM     20  C   UNL     1       5.318  -6.291  23.476  0.00  0.00    +0.109 C 
BRANCH  20  21
ATOM     21  C   UNL     1       4.092  -5.460  23.882  0.00  0.00    +0.038 C 
BRANCH  21  22
ATOM     22  C   UNL     1       4.158  -4.948  25.320  0.00  0.00    +0.106 C 
BRANCH  22  23
ATOM     23  N   UNL     1       4.488  -3.535  25.385  0.00  0.00    -0.313 N 
ATOM     24  H   UNL     1       4.145  -2.905  24.664  0.00  0.00    +0.149 HD
ATOM     25  C   UNL     1       5.448  -3.031  26.237  0.00  0.00    +0.242 C 
ATOM     26  O   UNL     1       6.070  -3.728  27.036  0.00  0.00    -0.273 OA
BRANCH  25  27
ATOM     27  C   UNL     1       5.600  -1.501  26.164  0.00  0.00    +0.204 C 
ATOM     28  O   UNL     1       5.357  -0.960  24.854  0.00  0.00    -0.367 OA
ATOM     29  C   UNL     1       6.394  -0.012  24.555  0.00  0.00    +0.161 C 
ATOM     30  C   UNL     1       7.134   0.262  25.844  0.00  0.00    +0.031 C 
ATOM     31  C   UNL     1       6.991  -1.048  26.574  0.00  0.00    +0.043 C 
ENDBRANCH  25  27
ENDBRANCH  22  23
ENDBRANCH  21  22
ENDBRANCH  20  21
ENDBRANCH   8  20
TORSDOF 7
ENDMDL
MODEL 3
REMARK VINA RESULT:      -7.3      3.149      5.661
REMARK  Name = 
REMARK  10 active torsions:
REMARK  status: ('A' for Active; 'I' for Inactive)
REMARK    1  A    between atoms: C_1  and  O_2
REMARK    2  A    between atoms: O_2  and  C_3
REMARK    3  A    between atoms: C_4  and  O_5
REMARK    4  A    between atoms: O_5  and  C_6
REMARK    5  A    between atoms: N_16  and  C_17
REMARK    6  A    between atoms: N_16  and  C_18
REMARK    7  A    between atoms: C_18  and  C_19
REMARK    8  A    between atoms: C_19  and  C_20
REMARK    9  A    between atoms: C_20  and  N_21
REMARK   10  A    between atoms: C_22  and  C_24
REMARK                            x       y       z     vdW  Elec       q    Type
REMARK                         _______ _______ _______ _____ _____    ______ ____
ROOT
ATOM      1  C   UNL     1       5.315  -4.322  22.586  0.00  0.00    +0.164 A 
ATOM      2  C   UNL     1       5.948  -3.100  22.311  0.00  0.00    +0.078 A 
ATOM      3  C   UNL     1       6.006  -2.066  23.226  0.00  0.00    +0.082 A 
ATOM      4  C   UNL     1       5.364  -2.211  24.447  0.00  0.00    +0.044 A 
ATOM      5  C   UNL     1       5.532  -1.129  25.314  0.00  0.00    +0.129 A 
ATOM      6  N   UNL     1       6.297  -0.065  25.019  0.00  0.00    -0.199 NA
ATOM      7  C   UNL     1       6.866  -0.019  23.806  0.00  0.00    +0.220 A 
ATOM      8  N   UNL     1       7.709   1.016  23.482  0.00  0.00    -0.303 N 
ATOM      9  C   UNL     1       7.823   1.429  22.097  0.00  0.00    +0.132 C 
ATOM     10  N   UNL     1       4.887  -1.080  26.556  0.00  0.00    -0.343 N 
ATOM     11  H   UNL     1       5.197  -0.233  27.025  0.00  0.00    +0.144 HD
ATOM     12  H   UNL     1       5.061  -1.910  27.110  0.00  0.00    +0.144 HD
ATOM     13  C   UNL     1       4.639  -3.401  24.709  0.00  0.00    +0.062 A 
ATOM     14  N   UNL     1       6.710  -0.987  22.897  0.00  0.00    -0.214 NA
ATOM     15  C   UNL     1       4.625  -4.464  23.793  0.00  0.00    +0.162 A 
ENDROOT
BRANCH   1  17
ATOM     16  C   UNL     1       6.614  -5.966  21.489  0.00  0.00    +0.277 C 
ATOM     17  O   UNL     1       5.338  -5.349  21.677  0.00  0.00    -0.491 OA
ENDBRANCH   1  17
BRANCH  15  18
ATOM     18  O   UNL     1       3.924  -5.543  24.264  0.00  0.00    -0.491 OA
ATOM     19  C   UNL     1       4.637  -6.621  24.852  0.00  0.00    +0.277 C 
ENDBRANCH  15  18
BRANCH   8  20
ATOM     20  C   UNL     1       8.443   1.734  24.511  0.00  0.00    +0.109 C 
BRANCH  20  21
ATOM     21  C   UNL     1       9.954   1.468  24.457  0.00  0.00    +0.038 C 
BRANCH  21  22
ATOM     22  C   UNL     1      10.322   0.238  23.627  0.00  0.00    +0.106 C 
BRANCH  22  23
ATOM     23  N   UNL     1      10.110  -1.000  24.356  0.00  0.00    -0.313 N 
ATOM     24  H   UNL     1      10.322  -1.040  25.350  0.00  0.00    +0.149 HD
ATOM     25  C   UNL     1       9.869  -2.204  23.729  0.00  0.00    +0.242 C 
ATOM     26  O   UNL     1       9.772  -2.318  22.508  0.00  0.00    -0.273 OA
BRANCH  25  27
ATOM     27  C   UNL     1       9.634  -3.373  24.701  0.00  0.00    +0.204 C 
ATOM     28  O   UNL     1       9.116  -4.555  24.067  0.00  0.00    -0.367 OA
ATOM     29  C   UNL     1       8.039  -5.066  24.868  0.00  0.00    +0.161 C 
ATOM     30  C   UNL     1       8.090  -4.346  26.196  0.00  0.00    +0.031 C 
ATOM     31  C   UNL     1       8.658  -3.006  25.807  0.00  0.00    +0.043 C 
ENDBRANCH  25  27
ENDBRANCH  22  23
ENDBRANCH  21  22
ENDBRANCH  20  21
ENDBRANCH   8  20
TORSDOF 7
ENDMDL
MODEL 4
REMARK VINA RESULT:      -7.3      3.527      5.781
REMARK  Name = 
REMARK  10 active torsions:
REMARK  status: ('A' for Active; 'I' for Inactive)
REMARK    1  A    between atoms: C_1  and  O_2
REMARK    2  A    between atoms: O_2  and  C_3
REMARK    3  A    between atoms: C_4  and  O_5
REMARK    4  A    between atoms: O_5  and  C_6
REMARK    5  A    between atoms: N_16  and  C_17
REMARK    6  A    between atoms: N_16  and  C_18
REMARK    7  A    between atoms: C_18  and  C_19
REMARK    8  A    between atoms: C_19  and  C_20
REMARK    9  A    between atoms: C_20  and  N_21
REMARK   10  A    between atoms: C_22  and  C_24
REMARK                            x       y       z     vdW  Elec       q    Type
REMARK                         _______ _______ _______ _____ _____    ______ ____
ROOT
ATOM      1  C   UNL     1       3.397  -5.213  24.445  0.00  0.00    +0.164 A 
ATOM      2  C   UNL     1       3.921  -3.992  24.896  0.00  0.00    +0.078 A 
ATOM      3  C   UNL     1       5.100  -3.904  25.612  0.00  0.00    +0.082 A 
ATOM      4  C   UNL     1       5.769  -5.070  25.953  0.00  0.00    +0.044 A 
ATOM      5  C   UNL     1       6.974  -4.861  26.627  0.00  0.00    +0.129 A 
ATOM      6  N   UNL     1       7.475  -3.639  26.875  0.00  0.00    -0.199 NA
ATOM      7  C   UNL     1       6.742  -2.577  26.512  0.00  0.00    +0.220 A 
ATOM      8  N   UNL     1       7.240  -1.308  26.684  0.00  0.00    -0.303 N 
ATOM      9  C   UNL     1       6.320  -0.210  26.901  0.00  0.00    +0.132 C 
ATOM     10  N   UNL     1       7.737  -5.932  27.111  0.00  0.00    -0.343 N 
ATOM     11  H   UNL     1       8.584  -5.542  27.515  0.00  0.00    +0.144 HD
ATOM     12  H   UNL     1       7.936  -6.615  26.390  0.00  0.00    +0.144 HD
ATOM     13  C   UNL     1       5.209  -6.319  25.586  0.00  0.00    +0.062 A 
ATOM     14  N   UNL     1       5.553  -2.689  25.912  0.00  0.00    -0.214 NA
ATOM     15  C   UNL     1       4.037  -6.398  24.820  0.00  0.00    +0.162 A 
ENDROOT
BRANCH   1  17
ATOM     16  C   UNL     1       1.101  -4.671  24.278  0.00  0.00    +0.277 C 
ATOM     17  O   UNL     1       2.261  -5.253  23.678  0.00  0.00    -0.491 OA
ENDBRANCH   1  17
BRANCH  15  18
ATOM     18  O   UNL     1       3.701  -7.692  24.518  0.00  0.00    -0.491 OA
ATOM     19  C   UNL     1       2.475  -8.214  25.005  0.00  0.00    +0.277 C 
ENDBRANCH  15  18
BRANCH   8  20
ATOM     20  C   UNL     1       8.673  -1.064  26.707  0.00  0.00    +0.109 C 
BRANCH  20  21
ATOM     21  C   UNL     1       9.185  -0.421  25.409  0.00  0.00    +0.038 C 
BRANCH  21  22
ATOM     22  C   UNL     1       9.754  -1.434  24.416  0.00  0.00    +0.106 C 
BRANCH  22  23
ATOM     23  N   UNL     1       8.858  -2.558  24.205  0.00  0.00    -0.313 N 
ATOM     24  H   UNL     1       8.782  -3.281  24.916  0.00  0.00    +0.149 HD
ATOM     25  C   UNL     1       8.281  -2.832  22.983  0.00  0.00    +0.242 C 
ATOM     26  O   UNL     1       8.445  -2.127  21.989  0.00  0.00    -0.273 OA
BRANCH  25  27
ATOM     27  C   UNL     1       7.336  -4.047  23.003  0.00  0.00    +0.204 C 
ATOM     28  O   UNL     1       8.014  -5.307  22.862  0.00  0.00    -0.367 OA
ATOM     29  C   UNL     1       7.296  -6.105  21.908  0.00  0.00    +0.161 C 
ATOM     30  C   UNL     1       5.963  -5.432  21.675  0.00  0.00    +0.031 C 
ATOM     31  C   UNL     1       6.301  -3.979  21.891  0.00  0.00    +0.043 C 
ENDBRANCH  25  27
ENDBRANCH  22  23
ENDBRANCH  21  22
ENDBRANCH  20  21
ENDBRANCH   8  20
TORSDOF 7
ENDMDL
MODEL 5
REMARK VINA RESULT:      -7.2      3.568      5.464
REMARK  Name = 
REMARK  10 active torsions:
REMARK  status: ('A' for Active; 'I' for Inactive)
REMARK    1  A    between atoms: C_1  and  O_2
REMARK    2  A    between atoms: O_2  and  C_3
REMARK    3  A    between atoms: C_4  and  O_5
REMARK    4  A    between atoms: O_5  and  C_6
REMARK    5  A    between atoms: N_16  and  C_17
REMARK    6  A    between atoms: N_16  and  C_18
REMARK    7  A    between atoms: C_18  and  C_19
REMARK    8  A    between atoms: C_19  and  C_20
REMARK    9  A    between atoms: C_20  and  N_21
REMARK   10  A    between atoms: C_22  and  C_24
REMARK                            x       y       z     vdW  Elec       q    Type
REMARK                         _______ _______ _______ _____ _____    ______ ____
ROOT
ATOM      1  C   UNL     1       7.529  -3.230  23.122  0.00  0.00    +0.164 A 
ATOM      2  C   UNL     1       6.846  -2.005  23.141  0.00  0.00    +0.078 A 
ATOM      3  C   UNL     1       7.063  -1.045  24.112  0.00  0.00    +0.082 A 
ATOM      4  C   UNL     1       7.945  -1.321  25.146  0.00  0.00    +0.044 A 
ATOM      5  C   UNL     1       8.128  -0.262  26.039  0.00  0.00    +0.129 A 
ATOM      6  N   UNL     1       7.547   0.939  25.882  0.00  0.00    -0.199 NA
ATOM      7  C   UNL     1       6.703   1.097  24.853  0.00  0.00    +0.220 A 
ATOM      8  N   UNL     1       6.135   2.325  24.612  0.00  0.00    -0.303 N 
ATOM      9  C   UNL     1       4.834   2.391  23.978  0.00  0.00    +0.132 C 
ATOM     10  N   UNL     1       8.926  -0.399  27.182  0.00  0.00    -0.343 N 
ATOM     11  H   UNL     1       8.949   0.506  27.645  0.00  0.00    +0.144 HD
ATOM     12  H   UNL     1       9.854  -0.740  26.962  0.00  0.00    +0.144 HD
ATOM     13  C   UNL     1       8.576  -2.589  25.196  0.00  0.00    +0.062 A 
ATOM     14  N   UNL     1       6.429   0.118  23.985  0.00  0.00    -0.214 NA
ATOM     15  C   UNL     1       8.387  -3.540  24.182  0.00  0.00    +0.162 A 
ENDROOT
BRANCH   1  17
ATOM     16  C   UNL     1       6.163  -4.937  22.216  0.00  0.00    +0.277 C 
ATOM     17  O   UNL     1       7.338  -4.129  22.103  0.00  0.00    -0.491 OA
ENDBRANCH   1  17
BRANCH  15  18
ATOM     18  O   UNL     1       9.135  -4.669  24.385  0.00  0.00    -0.491 OA
ATOM     19  C   UNL     1       9.184  -5.235  25.686  0.00  0.00    +0.277 C 
ENDBRANCH  15  18
BRANCH   8  20
ATOM     20  C   UNL     1       6.796   3.549  25.034  0.00  0.00    +0.109 C 
BRANCH  20  21
ATOM     21  C   UNL     1       6.499   4.734  24.103  0.00  0.00    +0.038 C 
BRANCH  21  22
ATOM     22  C   UNL     1       7.288   4.687  22.795  0.00  0.00    +0.106 C 
BRANCH  22  23
ATOM     23  N   UNL     1       8.476   3.858  22.900  0.00  0.00    -0.313 N 
ATOM     24  H   UNL     1       9.310   4.230  23.347  0.00  0.00    +0.149 HD
ATOM     25  C   UNL     1       8.623   2.674  22.209  0.00  0.00    +0.242 C 
ATOM     26  O   UNL     1       7.747   2.206  21.484  0.00  0.00    -0.273 OA
BRANCH  25  27
ATOM     27  C   UNL     1       9.945   1.944  22.505  0.00  0.00    +0.204 C 
ATOM     28  O   UNL     1       9.944   0.564  22.101  0.00  0.00    -0.367 OA
ATOM     29  C   UNL     1      10.504  -0.222  23.165  0.00  0.00    +0.161 C 
ATOM     30  C   UNL     1      11.147   0.739  24.139  0.00  0.00    +0.031 C 
ATOM     31  C   UNL     1      10.287   1.966  23.986  0.00  0.00    +0.043 C 
ENDBRANCH  25  27
ENDBRANCH  22  23
ENDBRANCH  21  22
ENDBRANCH  20  21
ENDBRANCH   8  20
TORSDOF 7
ENDMDL
MODEL 6
REMARK VINA RESULT:      -7.1      3.326      5.501
REMARK  Name = 
REMARK  10 active torsions:
REMARK  status: ('A' for Active; 'I' for Inactive)
REMARK    1  A    between atoms: C_1  and  O_2
REMARK    2  A    between atoms: O_2  and  C_3
REMARK    3  A    between atoms: C_4  and  O_5
REMARK    4  A    between atoms: O_5  and  C_6
REMARK    5  A    between atoms: N_16  and  C_17
REMARK    6  A    between atoms: N_16  and  C_18
REMARK    7  A    between atoms: C_18  and  C_19
REMARK    8  A    between atoms: C_19  and  C_20
REMARK    9  A    between atoms: C_20  and  N_21
REMARK   10  A    between atoms: C_22  and  C_24
REMARK                            x       y       z     vdW  Elec       q    Type
REMARK                         _______ _______ _______ _____ _____    ______ ____
ROOT
ATOM      1  C   UNL     1       7.174  -3.377  23.216  0.00  0.00    +0.164 A 
ATOM      2  C   UNL     1       6.527  -2.135  23.294  0.00  0.00    +0.078 A 
ATOM      3  C   UNL     1       6.890  -1.160  24.204  0.00  0.00    +0.082 A 
ATOM      4  C   UNL     1       7.896  -1.435  25.119  0.00  0.00    +0.044 A 
ATOM      5  C   UNL     1       8.217  -0.362  25.954  0.00  0.00    +0.129 A 
ATOM      6  N   UNL     1       7.647   0.850  25.845  0.00  0.00    -0.199 NA
ATOM      7  C   UNL     1       6.678   1.006  24.933  0.00  0.00    +0.220 A 
ATOM      8  N   UNL     1       6.110   2.242  24.738  0.00  0.00    -0.303 N 
ATOM      9  C   UNL     1       4.738   2.326  24.280  0.00  0.00    +0.132 C 
ATOM     10  N   UNL     1       9.157  -0.494  26.985  0.00  0.00    -0.343 N 
ATOM     11  H   UNL     1       9.261   0.420  27.418  0.00  0.00    +0.144 HD
ATOM     12  H   UNL     1      10.040  -0.862  26.652  0.00  0.00    +0.144 HD
ATOM     13  C   UNL     1       8.499  -2.717  25.117  0.00  0.00    +0.062 A 
ATOM     14  N   UNL     1       6.271   0.015  24.132  0.00  0.00    -0.214 NA
ATOM     15  C   UNL     1       8.157  -3.684  24.161  0.00  0.00    +0.162 A 
ENDROOT
BRANCH   1  17
ATOM     16  C   UNL     1       5.803  -5.214  22.629  0.00  0.00    +0.277 C 
ATOM     17  O   UNL     1       6.830  -4.292  22.253  0.00  0.00    -0.491 OA
ENDBRANCH   1  17
BRANCH  15  18
ATOM     18  O   UNL     1       8.901  -4.828  24.292  0.00  0.00    -0.491 OA
ATOM     19  C   UNL     1       9.739  -4.974  25.428  0.00  0.00    +0.277 C 
ENDBRANCH  15  18
BRANCH   8  20
ATOM     20  C   UNL     1       6.847   3.458  25.039  0.00  0.00    +0.109 C 
BRANCH  20  21
ATOM     21  C   UNL     1       6.874   4.441  23.859  0.00  0.00    +0.038 C 
BRANCH  21  22
ATOM     22  C   UNL     1       8.269   4.633  23.264  0.00  0.00    +0.106 C 
BRANCH  22  23
ATOM     23  N   UNL     1       8.756   3.432  22.609  0.00  0.00    -0.313 N 
ATOM     24  H   UNL     1       8.249   3.053  21.814  0.00  0.00    +0.149 HD
ATOM     25  C   UNL     1       9.736   2.630  23.155  0.00  0.00    +0.242 C 
ATOM     26  O   UNL     1      10.303   2.888  24.215  0.00  0.00    -0.273 OA
BRANCH  25  27
ATOM     27  C   UNL     1      10.123   1.434  22.267  0.00  0.00    +0.204 C 
ATOM     28  O   UNL     1       9.114   1.078  21.306  0.00  0.00    -0.367 OA
ATOM     29  C   UNL     1       8.953  -0.349  21.324  0.00  0.00    +0.161 C 
ATOM     30  C   UNL     1      10.113  -0.920  22.106  0.00  0.00    +0.031 C 
ATOM     31  C   UNL     1      10.408   0.186  23.086  0.00  0.00    +0.043 C 
ENDBRANCH  25  27
ENDBRANCH  22  23
ENDBRANCH  21  22
ENDBRANCH  20  21
ENDBRANCH   8  20
TORSDOF 7
ENDMDL
MODEL 7
REMARK VINA RESULT:      -7.1      3.389      7.567
REMARK  Name = 
REMARK  10 active torsions:
REMARK  status: ('A' for Active; 'I' for Inactive)
REMARK    1  A    between atoms: C_1  and  O_2
REMARK    2  A    between atoms: O_2  and  C_3
REMARK    3  A    between atoms: C_4  and  O_5
REMARK    4  A    between atoms: O_5  and  C_6
REMARK    5  A    between atoms: N_16  and  C_17
REMARK    6  A    between atoms: N_16  and  C_18
REMARK    7  A    between atoms: C_18  and  C_19
REMARK    8  A    between atoms: C_19  and  C_20
REMARK    9  A    between atoms: C_20  and  N_21
REMARK   10  A    between atoms: C_22  and  C_24
REMARK                            x       y       z     vdW  Elec       q    Type
REMARK                         _______ _______ _______ _____ _____    ______ ____
ROOT
ATOM      1  C   UNL     1       7.224  -1.458  23.646  0.00  0.00    +0.164 A 
ATOM      2  C   UNL     1       5.988  -2.016  24.005  0.00  0.00    +0.078 A 
ATOM      3  C   UNL     1       5.494  -3.170  23.427  0.00  0.00    +0.082 A 
ATOM      4  C   UNL     1       6.215  -3.775  22.408  0.00  0.00    +0.044 A 
ATOM      5  C   UNL     1       5.651  -4.962  21.935  0.00  0.00    +0.129 A 
ATOM      6  N   UNL     1       4.539  -5.505  22.458  0.00  0.00    -0.199 NA
ATOM      7  C   UNL     1       3.912  -4.833  23.433  0.00  0.00    +0.220 A 
ATOM      8  N   UNL     1       2.809  -5.379  24.043  0.00  0.00    -0.303 N 
ATOM      9  C   UNL     1       1.797  -4.499  24.593  0.00  0.00    +0.132 C 
ATOM     10  N   UNL     1       6.212  -5.659  20.857  0.00  0.00    -0.343 N 
ATOM     11  H   UNL     1       5.665  -6.506  20.727  0.00  0.00    +0.144 HD
ATOM     12  H   UNL     1       7.195  -5.856  20.998  0.00  0.00    +0.144 HD
ATOM     13  C   UNL     1       7.421  -3.176  21.967  0.00  0.00    +0.062 A 
ATOM     14  N   UNL     1       4.354  -3.663  23.905  0.00  0.00    -0.214 NA
ATOM     15  C   UNL     1       7.939  -2.031  22.590  0.00  0.00    +0.162 A 
ENDROOT
BRANCH   1  17
ATOM     16  C   UNL     1       7.342   0.904  23.712  0.00  0.00    +0.277 C 
ATOM     17  O   UNL     1       7.712  -0.350  24.291  0.00  0.00    -0.491 OA
ENDBRANCH   1  17
BRANCH  15  18
ATOM     18  O   UNL     1       9.144  -1.651  22.058  0.00  0.00    -0.491 OA
ATOM     19  C   UNL     1      10.319  -1.808  22.839  0.00  0.00    +0.277 C 
ENDBRANCH  15  18
BRANCH   8  20
ATOM     20  C   UNL     1       2.618  -6.819  24.094  0.00  0.00    +0.109 C 
BRANCH  20  21
ATOM     21  C   UNL     1       3.731  -7.537  24.872  0.00  0.00    +0.038 C 
BRANCH  21  22
ATOM     22  C   UNL     1       4.094  -6.844  26.185  0.00  0.00    +0.106 C 
BRANCH  22  23
ATOM     23  N   UNL     1       5.501  -6.486  26.246  0.00  0.00    -0.313 N 
ATOM     24  H   UNL     1       6.208  -7.197  26.078  0.00  0.00    +0.149 HD
ATOM     25  C   UNL     1       5.943  -5.286  26.760  0.00  0.00    +0.242 C 
ATOM     26  O   UNL     1       5.184  -4.409  27.168  0.00  0.00    -0.273 OA
BRANCH  25  27
ATOM     27  C   UNL     1       7.470  -5.105  26.686  0.00  0.00    +0.204 C 
ATOM     28  O   UNL     1       7.921  -3.821  27.151  0.00  0.00    -0.367 OA
ATOM     29  C   UNL     1       8.882  -3.310  26.214  0.00  0.00    +0.161 C 
ATOM     30  C   UNL     1       9.259  -4.449  25.295  0.00  0.00    +0.031 C 
ATOM     31  C   UNL     1       7.993  -5.265  25.268  0.00  0.00    +0.043 C 
ENDBRANCH  25  27
ENDBRANCH  22  23
ENDBRANCH  21  22
ENDBRANCH  20  21
ENDBRANCH   8  20
TORSDOF 7
ENDMDL
MODEL 8
REMARK VINA RESULT:      -6.9      1.242      1.482
REMARK  Name = 
REMARK  10 active torsions:
REMARK  status: ('A' for Active; 'I' for Inactive)
REMARK    1  A    between atoms: C_1  and  O_2
REMARK    2  A    between atoms: O_2  and  C_3
REMARK    3  A    between atoms: C_4  and  O_5
REMARK    4  A    between atoms: O_5  and  C_6
REMARK    5  A    between atoms: N_16  and  C_17
REMARK    6  A    between atoms: N_16  and  C_18
REMARK    7  A    between atoms: C_18  and  C_19
REMARK    8  A    between atoms: C_19  and  C_20
REMARK    9  A    between atoms: C_20  and  N_21
REMARK   10  A    between atoms: C_22  and  C_24
REMARK                            x       y       z     vdW  Elec       q    Type
REMARK                         _______ _______ _______ _____ _____    ______ ____
ROOT
ATOM      1  C   UNL     1       5.638  -4.744  26.842  0.00  0.00    +0.164 A 
ATOM      2  C   UNL     1       6.558  -3.777  26.408  0.00  0.00    +0.078 A 
ATOM      3  C   UNL     1       7.099  -3.779  25.136  0.00  0.00    +0.082 A 
ATOM      4  C   UNL     1       6.771  -4.808  24.267  0.00  0.00    +0.044 A 
ATOM      5  C   UNL     1       7.330  -4.681  22.993  0.00  0.00    +0.129 A 
ATOM      6  N   UNL     1       8.074  -3.626  22.620  0.00  0.00    -0.199 NA
ATOM      7  C   UNL     1       8.340  -2.690  23.542  0.00  0.00    +0.220 A 
ATOM      8  N   UNL     1       9.041  -1.561  23.192  0.00  0.00    -0.303 N 
ATOM      9  C   UNL     1       9.851  -0.893  24.191  0.00  0.00    +0.132 C 
ATOM     10  N   UNL     1       7.162  -5.672  22.018  0.00  0.00    -0.343 N 
ATOM     11  H   UNL     1       7.611  -5.341  21.168  0.00  0.00    +0.144 HD
ATOM     12  H   UNL     1       6.187  -5.903  21.871  0.00  0.00    +0.144 HD
ATOM     13  C   UNL     1       5.916  -5.845  24.716  0.00  0.00    +0.062 A 
ATOM     14  N   UNL     1       7.890  -2.763  24.799  0.00  0.00    -0.214 NA
ATOM     15  C   UNL     1       5.334  -5.812  25.992  0.00  0.00    +0.162 A 
ENDROOT
BRANCH   1  17
ATOM     16  C   UNL     1       5.681  -5.493  29.086  0.00  0.00    +0.277 C 
ATOM     17  O   UNL     1       5.071  -4.669  28.089  0.00  0.00    -0.491 OA
ENDBRANCH   1  17
BRANCH  15  18
ATOM     18  O   UNL     1       4.492  -6.871  26.205  0.00  0.00    -0.491 OA
ATOM     19  C   UNL     1       3.631  -7.284  25.156  0.00  0.00    +0.277 C 
ENDBRANCH  15  18
BRANCH   8  20
ATOM     20  C   UNL     1       9.024  -1.064  21.827  0.00  0.00    +0.109 C 
BRANCH  20  21
ATOM     21  C   UNL     1       9.708   0.303  21.685  0.00  0.00    +0.038 C 
BRANCH  21  22
ATOM     22  C   UNL     1       8.722   1.457  21.507  0.00  0.00    +0.106 C 
BRANCH  22  23
ATOM     23  N   UNL     1       9.107   2.632  22.271  0.00  0.00    -0.313 N 
ATOM     24  H   UNL     1       9.887   3.202  21.955  0.00  0.00    +0.149 HD
ATOM     25  C   UNL     1       8.632   2.885  23.540  0.00  0.00    +0.242 C 
ATOM     26  O   UNL     1       7.815   2.163  24.109  0.00  0.00    -0.273 OA
BRANCH  25  27
ATOM     27  C   UNL     1       9.143   4.207  24.140  0.00  0.00    +0.204 C 
ATOM     28  O   UNL     1       8.343   5.348  23.785  0.00  0.00    -0.367 OA
ATOM     29  C   UNL     1       9.222   6.416  23.399  0.00  0.00    +0.161 C 
ATOM     30  C   UNL     1      10.619   6.018  23.816  0.00  0.00    +0.031 C 
ATOM     31  C   UNL     1      10.566   4.516  23.705  0.00  0.00    +0.043 C 
ENDBRANCH  25  27
ENDBRANCH  22  23
ENDBRANCH  21  22
ENDBRANCH  20  21
ENDBRANCH   8  20
TORSDOF 7
ENDMDL
MODEL 9
REMARK VINA RESULT:      -6.7      2.563      8.643
REMARK  Name = 
REMARK  10 active torsions:
REMARK  status: ('A' for Active; 'I' for Inactive)
REMARK    1  A    between atoms: C_1  and  O_2
REMARK    2  A    between atoms: O_2  and  C_3
REMARK    3  A    between atoms: C_4  and  O_5
REMARK    4  A    between atoms: O_5  and  C_6
REMARK    5  A    between atoms: N_16  and  C_17
REMARK    6  A    between atoms: N_16  and  C_18
REMARK    7  A    between atoms: C_18  and  C_19
REMARK    8  A    between atoms: C_19  and  C_20
REMARK    9  A    between atoms: C_20  and  N_21
REMARK   10  A    between atoms: C_22  and  C_24
REMARK                            x       y       z     vdW  Elec       q    Type
REMARK                         _______ _______ _______ _____ _____    ______ ____
ROOT
ATOM      1  C   UNL     1       9.445  -0.776  22.294  0.00  0.00    +0.164 A 
ATOM      2  C   UNL     1       8.658  -1.862  21.882  0.00  0.00    +0.078 A 
ATOM      3  C   UNL     1       8.270  -2.872  22.742  0.00  0.00    +0.082 A 
ATOM      4  C   UNL     1       8.722  -2.851  24.053  0.00  0.00    +0.044 A 
ATOM      5  C   UNL     1       8.225  -3.888  24.845  0.00  0.00    +0.129 A 
ATOM      6  N   UNL     1       7.341  -4.796  24.398  0.00  0.00    -0.199 NA
ATOM      7  C   UNL     1       6.977  -4.732  23.110  0.00  0.00    +0.220 A 
ATOM      8  N   UNL     1       6.027  -5.597  22.621  0.00  0.00    -0.303 N 
ATOM      9  C   UNL     1       6.068  -5.977  21.224  0.00  0.00    +0.132 C 
ATOM     10  N   UNL     1       8.642  -4.058  26.172  0.00  0.00    -0.343 N 
ATOM     11  H   UNL     1       8.114  -4.837  26.557  0.00  0.00    +0.144 HD
ATOM     12  H   UNL     1       8.530  -3.213  26.719  0.00  0.00    +0.144 HD
ATOM     13  C   UNL     1       9.594  -1.812  24.465  0.00  0.00    +0.062 A 
ATOM     14  N   UNL     1       7.447  -3.806  22.269  0.00  0.00    -0.214 NA
ATOM     15  C   UNL     1       9.945  -0.766  23.600  0.00  0.00    +0.162 A 
ENDROOT
BRANCH   1  17
ATOM     16  C   UNL     1       8.773   1.282  21.340  0.00  0.00    +0.277 C 
ATOM     17  O   UNL     1       9.752   0.242  21.428  0.00  0.00    -0.491 OA
ENDBRANCH   1  17
BRANCH  15  18
ATOM     18  O   UNL     1      10.741   0.167  24.212  0.00  0.00    -0.491 OA
ATOM     19  C   UNL     1      10.152   1.371  24.678  0.00  0.00    +0.277 C 
ENDBRANCH  15  18
BRANCH   8  20
ATOM     20  C   UNL     1       5.021  -6.174  23.497  0.00  0.00    +0.109 C 
BRANCH  20  21
ATOM     21  C   UNL     1       3.664  -5.465  23.390  0.00  0.00    +0.038 C 
BRANCH  21  22
ATOM     22  C   UNL     1       3.020  -5.183  24.747  0.00  0.00    +0.106 C 
BRANCH  22  23
ATOM     23  N   UNL     1       3.943  -5.399  25.848  0.00  0.00    -0.313 N 
ATOM     24  H   UNL     1       4.058  -6.334  26.231  0.00  0.00    +0.149 HD
ATOM     25  C   UNL     1       4.496  -4.364  26.572  0.00  0.00    +0.242 C 
ATOM     26  O   UNL     1       4.286  -3.179  26.318  0.00  0.00    -0.273 OA
BRANCH  25  27
ATOM     27  C   UNL     1       5.477  -4.826  27.664  0.00  0.00    +0.204 C 
ATOM     28  O   UNL     1       5.881  -6.200  27.531  0.00  0.00    -0.367 OA
ATOM     29  C   UNL     1       5.809  -6.821  28.824  0.00  0.00    +0.161 C 
ATOM     30  C   UNL     1       5.642  -5.717  29.842  0.00  0.00    +0.031 C 
ATOM     31  C   UNL     1       4.888  -4.675  29.057  0.00  0.00    +0.043 C 
ENDBRANCH  25  27
ENDBRANCH  22  23
ENDBRANCH  21  22
ENDBRANCH  20  21
ENDBRANCH   8  20
TORSDOF 7
ENDMDL
