MODEL 1
REMARK VINA RESULT:      -5.7      0.000      0.000
REMARK  Name = 
REMARK  8 active torsions:
REMARK  status: ('A' for Active; 'I' for Inactive)
REMARK    1  A    between atoms: O_1  and  P_2
REMARK    2  A    between atoms: P_2  and  O_3
REMARK    3  A    between atoms: P_2  and  C_5
REMARK    4  A    between atoms: C_5  and  N_6
REMARK    5  A    between atoms: C_5  and  P_14
REMARK    6  A    between atoms: N_6  and  C_7
REMARK    7  A    between atoms: P_14  and  O_15
REMARK    8  A    between atoms: P_14  and  O_16
REMARK                            x       y       z     vdW  Elec       q    Type
REMARK                         _______ _______ _______ _____ _____    ______ ____
ROOT
ATOM      1  C   UNL     1       7.997  -2.873  23.623  0.00  0.00    +0.301 C 
ENDROOT
BRANCH   1   2
ATOM      2  P   UNL     1       8.509  -4.286  24.666  0.00  0.00    +0.360 P 
ATOM      3  O   UNL     1       8.295  -5.282  23.510  0.00  0.00    -0.256 OA
BRANCH   2   4
ATOM      4  O   UNL     1       8.994  -5.622  25.653  0.00  0.00    -0.322 OA
ATOM      5  H   UNL     1       9.154  -5.314  26.565  0.00  0.00    +0.220 HD
ENDBRANCH   2   4
BRANCH   2   6
ATOM      6  O   UNL     1      10.117  -3.970  24.444  0.00  0.00    -0.322 OA
ATOM      7  H   UNL     1      10.519  -4.867  24.403  0.00  0.00    +0.220 HD
ENDBRANCH   2   6
ENDBRANCH   1   2
BRANCH   1   8
ATOM      8  P   UNL     1       6.514  -3.334  22.656  0.00  0.00    +0.360 P 
ATOM      9  O   UNL     1       5.258  -3.725  21.838  0.00  0.00    -0.256 OA
BRANCH   8  10
ATOM     10  O   UNL     1       6.044  -1.747  22.739  0.00  0.00    -0.322 OA
ATOM     11  H   UNL     1       5.325  -1.368  22.189  0.00  0.00    +0.220 HD
ENDBRANCH   8  10
BRANCH   8  12
ATOM     12  O   UNL     1       5.821  -3.855  24.065  0.00  0.00    -0.322 OA
ATOM     13  H   UNL     1       6.130  -4.778  24.251  0.00  0.00    +0.220 HD
ENDBRANCH   8  12
ENDBRANCH   1   8
BRANCH   1  14
ATOM     14  N   UNL     1       9.027  -2.390  22.656  0.00  0.00    -0.306 N 
ATOM     15  H   UNL     1       9.638  -3.076  22.226  0.00  0.00    +0.149 HD
BRANCH  14  16
ATOM     16  C   UNL     1       9.571  -1.129  22.794  0.00  0.00    +0.120 A 
ATOM     17  N   UNL     1      10.133  -0.769  23.969  0.00  0.00    -0.239 NA
ATOM     18  C   UNL     1      10.498   0.540  24.101  0.00  0.00    +0.132 A 
ATOM     19  C   UNL     1      10.349   1.499  23.109  0.00  0.00    +0.059 A 
ATOM     20 CL   UNL     1      10.789   3.133  23.383  0.00  0.00    -0.082 Cl
ATOM     21  C   UNL     1       9.820   1.100  21.894  0.00  0.00    +0.025 A 
ATOM     22  C   UNL     1       9.438  -0.233  21.734  0.00  0.00    +0.045 A 
ENDBRANCH  14  16
ENDBRANCH   1  14
TORSDOF 8
ENDMDL
MODEL 2
REMARK VINA RESULT:      -5.7      1.274      1.542
REMARK  Name = 
REMARK  8 active torsions:
REMARK  status: ('A' for Active; 'I' for Inactive)
REMARK    1  A    between atoms: O_1  and  P_2
REMARK    2  A    between atoms: P_2  and  O_3
REMARK    3  A    between atoms: P_2  and  C_5
REMARK    4  A    between atoms: C_5  and  N_6
REMARK    5  A    between atoms: C_5  and  P_14
REMARK    6  A    between atoms: N_6  and  C_7
REMARK    7  A    between atoms: P_14  and  O_15
REMARK    8  A    between atoms: P_14  and  O_16
REMARK                            x       y       z     vdW  Elec       q    Type
REMARK                         _______ _______ _______ _____ _____    ______ ____
ROOT
ATOM      1  C   UNL     1       7.575  -3.504  24.089  0.00  0.00    +0.301 C 
ENDROOT
BRANCH   1   2
ATOM      2  P   UNL     1       7.972  -4.743  25.376  0.00  0.00    +0.360 P 
ATOM      3  O   UNL     1       9.070  -5.376  24.499  0.00  0.00    -0.256 OA
BRANCH   2   4
ATOM      4  O   UNL     1       8.348  -5.914  26.593  0.00  0.00    -0.322 OA
ATOM      5  H   UNL     1       8.777  -5.473  27.350  0.00  0.00    +0.220 HD
ENDBRANCH   2   4
BRANCH   2   6
ATOM      6  O   UNL     1       8.903  -3.675  26.229  0.00  0.00    -0.322 OA
ATOM      7  H   UNL     1       9.187  -4.200  27.012  0.00  0.00    +0.220 HD
ENDBRANCH   2   6
ENDBRANCH   1   2
BRANCH   1   8
ATOM      8  P   UNL     1       6.159  -4.093  23.093  0.00  0.00    +0.360 P 
ATOM      9  O   UNL     1       4.960  -4.591  22.248  0.00  0.00    -0.256 OA
BRANCH   8  10
ATOM     10  O   UNL     1       6.046  -5.381  24.129  0.00  0.00    -0.322 OA
ATOM     11  H   UNL     1       6.788  -5.999  24.305  0.00  0.00    +0.220 HD
ENDBRANCH   8  10
BRANCH   8  12
ATOM     12  O   UNL     1       7.245  -4.746  22.029  0.00  0.00    -0.322 OA
ATOM     13  H   UNL     1       7.215  -5.733  22.107  0.00  0.00    +0.220 HD
ENDBRANCH   8  12
ENDBRANCH   1   8
BRANCH   1  14
ATOM     14  N   UNL     1       8.687  -3.192  23.143  0.00  0.00    -0.306 N 
ATOM     15  H   UNL     1       9.312  -3.944  22.874  0.00  0.00    +0.149 HD
BRANCH  14  16
ATOM     16  C   UNL     1       9.250  -1.931  23.126  0.00  0.00    +0.120 A 
ATOM     17  N   UNL     1       9.592  -1.338  24.291  0.00  0.00    -0.239 NA
ATOM     18  C   UNL     1       9.983  -0.031  24.223  0.00  0.00    +0.132 A 
ATOM     19  C   UNL     1      10.069   0.702  23.048  0.00  0.00    +0.059 A 
ATOM     20 CL   UNL     1      10.521   2.355  23.066  0.00  0.00    -0.082 Cl
ATOM     21  C   UNL     1       9.765   0.061  21.860  0.00  0.00    +0.025 A 
ATOM     22  C   UNL     1       9.362  -1.275  21.901  0.00  0.00    +0.045 A 
ENDBRANCH  14  16
ENDBRANCH   1  14
TORSDOF 8
ENDMDL
MODEL 3
REMARK VINA RESULT:      -5.4      1.755      2.347
REMARK  Name = 
REMARK  8 active torsions:
REMARK  status: ('A' for Active; 'I' for Inactive)
REMARK    1  A    between atoms: O_1  and  P_2
REMARK    2  A    between atoms: P_2  and  O_3
REMARK    3  A    between atoms: P_2  and  C_5
REMARK    4  A    between atoms: C_5  and  N_6
REMARK    5  A    between atoms: C_5  and  P_14
REMARK    6  A    between atoms: N_6  and  C_7
REMARK    7  A    between atoms: P_14  and  O_15
REMARK    8  A    between atoms: P_14  and  O_16
REMARK                            x       y       z     vdW  Elec       q    Type
REMARK                         _______ _______ _______ _____ _____    ______ ____
ROOT
ATOM      1  C   UNL     1       7.486  -3.558  24.596  0.00  0.00    +0.301 C 
ENDROOT
BRANCH   1   2
ATOM      2  P   UNL     1       8.854  -4.711  24.981  0.00  0.00    +0.360 P 
ATOM      3  O   UNL     1       8.586  -5.534  23.705  0.00  0.00    -0.256 OA
BRANCH   2   4
ATOM      4  O   UNL     1      10.148  -5.800  25.345  0.00  0.00    -0.322 OA
ATOM      5  H   UNL     1       9.798  -6.707  25.427  0.00  0.00    +0.220 HD
ENDBRANCH   2   4
BRANCH   2   6
ATOM      6  O   UNL     1       9.999  -3.675  24.387  0.00  0.00    -0.322 OA
ATOM      7  H   UNL     1      10.812  -4.229  24.362  0.00  0.00    +0.220 HD
ENDBRANCH   2   6
ENDBRANCH   1   2
BRANCH   1   8
ATOM      8  P   UNL     1       5.895  -4.313  25.091  0.00  0.00    +0.360 P 
ATOM      9  O   UNL     1       4.548  -4.952  25.510  0.00  0.00    -0.256 OA
BRANCH   8  10
ATOM     10  O   UNL     1       6.767  -5.505  25.843  0.00  0.00    -0.322 OA
ATOM     11  H   UNL     1       6.922  -6.390  25.449  0.00  0.00    +0.220 HD
ENDBRANCH   8  10
BRANCH   8  12
ATOM     12  O   UNL     1       5.811  -5.000  23.588  0.00  0.00    -0.322 OA
ATOM     13  H   UNL     1       6.225  -4.384  22.932  0.00  0.00    +0.220 HD
ENDBRANCH   8  12
ENDBRANCH   1   8
BRANCH   1  14
ATOM     14  N   UNL     1       7.367  -3.170  23.159  0.00  0.00    -0.306 N 
ATOM     15  H   UNL     1       7.322  -3.909  22.466  0.00  0.00    +0.149 HD
BRANCH  14  16
ATOM     16  C   UNL     1       7.915  -1.984  22.713  0.00  0.00    +0.120 A 
ATOM     17  N   UNL     1       9.094  -2.001  22.052  0.00  0.00    -0.239 NA
ATOM     18  C   UNL     1       9.668  -0.791  21.788  0.00  0.00    +0.132 A 
ATOM     19  C   UNL     1       9.112   0.433  22.133  0.00  0.00    +0.059 A 
ATOM     20 CL   UNL     1       9.932   1.902  21.806  0.00  0.00    -0.082 Cl
ATOM     21  C   UNL     1       7.880   0.431  22.763  0.00  0.00    +0.025 A 
ATOM     22  C   UNL     1       7.272  -0.793  23.046  0.00  0.00    +0.045 A 
ENDBRANCH  14  16
ENDBRANCH   1  14
TORSDOF 8
ENDMDL
MODEL 4
REMARK VINA RESULT:      -5.4      4.837      6.371
REMARK  Name = 
REMARK  8 active torsions:
REMARK  status: ('A' for Active; 'I' for Inactive)
REMARK    1  A    between atoms: O_1  and  P_2
REMARK    2  A    between atoms: P_2  and  O_3
REMARK    3  A    between atoms: P_2  and  C_5
REMARK    4  A    between atoms: C_5  and  N_6
REMARK    5  A    between atoms: C_5  and  P_14
REMARK    6  A    between atoms: N_6  and  C_7
REMARK    7  A    between atoms: P_14  and  O_15
REMARK    8  A    between atoms: P_14  and  O_16
REMARK                            x       y       z     vdW  Elec       q    Type
REMARK                         _______ _______ _______ _____ _____    ______ ____
ROOT
ATOM      1  C   UNL     1       8.615   1.485  23.130  0.00  0.00    +0.301 C 
ENDROOT
BRANCH   1   2
ATOM      2  P   UNL     1       7.182   2.466  22.553  0.00  0.00    +0.360 P 
ATOM      3  O   UNL     1       7.561   2.243  21.075  0.00  0.00    -0.256 OA
BRANCH   2   4
ATOM      4  O   UNL     1       5.827   3.392  22.007  0.00  0.00    -0.322 OA
ATOM      5  H   UNL     1       5.001   2.987  22.332  0.00  0.00    +0.220 HD
ENDBRANCH   2   4
BRANCH   2   6
ATOM      6  O   UNL     1       6.137   1.199  22.747  0.00  0.00    -0.322 OA
ATOM      7  H   UNL     1       5.496   1.536  23.414  0.00  0.00    +0.220 HD
ENDBRANCH   2   6
ENDBRANCH   1   2
BRANCH   1   8
ATOM      8  P   UNL     1      10.079   2.572  23.275  0.00  0.00    +0.360 P 
ATOM      9  O   UNL     1      11.319   3.493  23.396  0.00  0.00    -0.256 OA
BRANCH   8  10
ATOM     10  O   UNL     1       9.062   3.864  23.069  0.00  0.00    -0.322 OA
ATOM     11  H   UNL     1       8.087   3.777  22.995  0.00  0.00    +0.220 HD
ENDBRANCH   8  10
BRANCH   8  12
ATOM     12  O   UNL     1      10.397   2.272  21.679  0.00  0.00    -0.322 OA
ATOM     13  H   UNL     1       9.915   2.937  21.126  0.00  0.00    +0.220 HD
ENDBRANCH   8  12
ENDBRANCH   1   8
BRANCH   1  14
ATOM     14  N   UNL     1       8.997   0.339  22.253  0.00  0.00    -0.306 N 
ATOM     15  H   UNL     1       8.896   0.451  21.249  0.00  0.00    +0.149 HD
BRANCH  14  16
ATOM     16  C   UNL     1       8.872  -0.957  22.711  0.00  0.00    +0.120 A 
ATOM     17  N   UNL     1       7.679  -1.585  22.619  0.00  0.00    -0.239 NA
ATOM     18  C   UNL     1       7.572  -2.796  23.241  0.00  0.00    +0.132 A 
ATOM     19  C   UNL     1       8.604  -3.417  23.931  0.00  0.00    +0.059 A 
ATOM     20 CL   UNL     1       8.362  -4.916  24.726  0.00  0.00    -0.082 Cl
ATOM     21  C   UNL     1       9.833  -2.782  23.969  0.00  0.00    +0.025 A 
ATOM     22  C   UNL     1       9.969  -1.543  23.342  0.00  0.00    +0.045 A 
ENDBRANCH  14  16
ENDBRANCH   1  14
TORSDOF 8
ENDMDL
MODEL 5
REMARK VINA RESULT:      -5.4      1.734      2.459
REMARK  Name = 
REMARK  8 active torsions:
REMARK  status: ('A' for Active; 'I' for Inactive)
REMARK    1  A    between atoms: O_1  and  P_2
REMARK    2  A    between atoms: P_2  and  O_3
REMARK    3  A    between atoms: P_2  and  C_5
REMARK    4  A    between atoms: C_5  and  N_6
REMARK    5  A    between atoms: C_5  and  P_14
REMARK    6  A    between atoms: N_6  and  C_7
REMARK    7  A    between atoms: P_14  and  O_15
REMARK    8  A    between atoms: P_14  and  O_16
REMARK                            x       y       z     vdW  Elec       q    Type
REMARK                         _______ _______ _______ _____ _____    ______ ____
ROOT
ATOM      1  C   UNL     1       7.206  -4.124  24.645  0.00  0.00    +0.301 C 
ENDROOT
BRANCH   1   2
ATOM      2  P   UNL     1       7.491  -4.986  26.234  0.00  0.00    +0.360 P 
ATOM      3  O   UNL     1       6.480  -6.092  25.872  0.00  0.00    -0.256 OA
BRANCH   2   4
ATOM      4  O   UNL     1       7.760  -5.801  27.736  0.00  0.00    -0.322 OA
ATOM      5  H   UNL     1       7.883  -6.755  27.573  0.00  0.00    +0.220 HD
ENDBRANCH   2   4
BRANCH   2   6
ATOM      6  O   UNL     1       8.874  -5.707  25.686  0.00  0.00    -0.322 OA
ATOM      7  H   UNL     1       8.571  -6.607  25.426  0.00  0.00    +0.220 HD
ENDBRANCH   2   6
ENDBRANCH   1   2
BRANCH   1   8
ATOM      8  P   UNL     1       6.116  -5.142  23.585  0.00  0.00    +0.360 P 
ATOM      9  O   UNL     1       5.193  -6.003  22.688  0.00  0.00    -0.256 OA
BRANCH   8  10
ATOM     10  O   UNL     1       7.482  -5.732  22.857  0.00  0.00    -0.322 OA
ATOM     11  H   UNL     1       7.636  -5.695  21.888  0.00  0.00    +0.220 HD
ENDBRANCH   8  10
BRANCH   8  12
ATOM     12  O   UNL     1       5.896  -3.813  22.624  0.00  0.00    -0.322 OA
ATOM     13  H   UNL     1       5.384  -3.133  23.131  0.00  0.00    +0.220 HD
ENDBRANCH   8  12
ENDBRANCH   1   8
BRANCH   1  14
ATOM     14  N   UNL     1       8.437  -3.821  23.857  0.00  0.00    -0.306 N 
ATOM     15  H   UNL     1       9.237  -4.435  23.964  0.00  0.00    +0.149 HD
BRANCH  14  16
ATOM     16  C   UNL     1       8.744  -2.516  23.523  0.00  0.00    +0.120 A 
ATOM     17  N   UNL     1       7.746  -1.636  23.288  0.00  0.00    -0.239 NA
ATOM     18  C   UNL     1       8.108  -0.414  22.798  0.00  0.00    +0.132 A 
ATOM     19  C   UNL     1       9.417  -0.024  22.553  0.00  0.00    +0.059 A 
ATOM     20 CL   UNL     1       9.773   1.515  21.887  0.00  0.00    -0.082 Cl
ATOM     21  C   UNL     1      10.428  -0.921  22.850  0.00  0.00    +0.025 A 
ATOM     22  C   UNL     1      10.085  -2.177  23.352  0.00  0.00    +0.045 A 
ENDBRANCH  14  16
ENDBRANCH   1  14
TORSDOF 8
ENDMDL
MODEL 6
REMARK VINA RESULT:      -5.3      4.594      5.924
REMARK  Name = 
REMARK  8 active torsions:
REMARK  status: ('A' for Active; 'I' for Inactive)
REMARK    1  A    between atoms: O_1  and  P_2
REMARK    2  A    between atoms: P_2  and  O_3
REMARK    3  A    between atoms: P_2  and  C_5
REMARK    4  A    between atoms: C_5  and  N_6
REMARK    5  A    between atoms: C_5  and  P_14
REMARK    6  A    between atoms: N_6  and  C_7
REMARK    7  A    between atoms: P_14  and  O_15
REMARK    8  A    between atoms: P_14  and  O_16
REMARK                            x       y       z     vdW  Elec       q    Type
REMARK                         _______ _______ _______ _____ _____    ______ ____
ROOT
ATOM      1  C   UNL     1       8.332  -0.036  23.616  0.00  0.00    +0.301 C 
ENDROOT
BRANCH   1   2
ATOM      2  P   UNL     1       9.317   1.110  22.584  0.00  0.00    +0.360 P 
ATOM      3  O   UNL     1      10.631   0.665  23.255  0.00  0.00    -0.256 OA
BRANCH   2   4
ATOM      4  O   UNL     1      10.247   2.194  21.608  0.00  0.00    -0.322 OA
ATOM      5  H   UNL     1       9.688   2.942  21.326  0.00  0.00    +0.220 HD
ENDBRANCH   2   4
BRANCH   2   6
ATOM      6  O   UNL     1       9.319   0.074  21.295  0.00  0.00    -0.322 OA
ATOM      7  H   UNL     1       9.274  -0.813  21.719  0.00  0.00    +0.220 HD
ENDBRANCH   2   6
ENDBRANCH   1   2
BRANCH   1   8
ATOM      8  P   UNL     1       7.895   0.783  25.192  0.00  0.00    +0.360 P 
ATOM      9  O   UNL     1       7.526   1.477  26.526  0.00  0.00    -0.256 OA
BRANCH   8  10
ATOM     10  O   UNL     1       8.493   2.190  24.552  0.00  0.00    -0.322 OA
ATOM     11  H   UNL     1       9.370   2.562  24.790  0.00  0.00    +0.220 HD
ENDBRANCH   8  10
BRANCH   8  12
ATOM     12  O   UNL     1       9.307   0.200  25.827  0.00  0.00    -0.322 OA
ATOM     13  H   UNL     1       9.292  -0.790  25.783  0.00  0.00    +0.220 HD
ENDBRANCH   8  12
ENDBRANCH   1   8
BRANCH   1  14
ATOM     14  N   UNL     1       9.006  -1.325  23.955  0.00  0.00    -0.306 N 
ATOM     15  H   UNL     1      10.008  -1.313  24.114  0.00  0.00    +0.149 HD
BRANCH  14  16
ATOM     16  C   UNL     1       8.505  -2.517  23.473  0.00  0.00    +0.120 A 
ATOM     17  N   UNL     1       7.750  -2.520  22.353  0.00  0.00    -0.239 NA
ATOM     18  C   UNL     1       7.145  -3.699  22.023  0.00  0.00    +0.132 A 
ATOM     19  C   UNL     1       7.275  -4.876  22.745  0.00  0.00    +0.059 A 
ATOM     20 CL   UNL     1       6.434  -6.297  22.283  0.00  0.00    -0.082 Cl
ATOM     21  C   UNL     1       8.095  -4.867  23.859  0.00  0.00    +0.025 A 
ATOM     22  C   UNL     1       8.725  -3.675  24.219  0.00  0.00    +0.045 A 
ENDBRANCH  14  16
ENDBRANCH   1  14
TORSDOF 8
ENDMDL
MODEL 7
REMARK VINA RESULT:      -5.3      1.579      3.011
REMARK  Name = 
REMARK  8 active torsions:
REMARK  status: ('A' for Active; 'I' for Inactive)
REMARK    1  A    between atoms: O_1  and  P_2
REMARK    2  A    between atoms: P_2  and  O_3
REMARK    3  A    between atoms: P_2  and  C_5
REMARK    4  A    between atoms: C_5  and  N_6
REMARK    5  A    between atoms: C_5  and  P_14
REMARK    6  A    between atoms: N_6  and  C_7
REMARK    7  A    between atoms: P_14  and  O_15
REMARK    8  A    between atoms: P_14  and  O_16
REMARK                            x       y       z     vdW  Elec       q    Type
REMARK                         _______ _______ _______ _____ _____    ______ ____
ROOT
ATOM      1  C   UNL     1       8.096  -3.961  23.713  0.00  0.00    +0.301 C 
ENDROOT
BRANCH   1   2
ATOM      2  P   UNL     1       6.956  -5.259  23.109  0.00  0.00    +0.360 P 
ATOM      3  O   UNL     1       6.720  -4.506  21.785  0.00  0.00    -0.256 OA
BRANCH   2   4
ATOM      4  O   UNL     1       5.879  -6.486  22.538  0.00  0.00    -0.322 OA
ATOM      5  H   UNL     1       5.014  -6.394  22.981  0.00  0.00    +0.220 HD
ENDBRANCH   2   4
BRANCH   2   6
ATOM      6  O   UNL     1       8.199  -6.240  22.633  0.00  0.00    -0.322 OA
ATOM      7  H   UNL     1       8.180  -6.168  21.652  0.00  0.00    +0.220 HD
ENDBRANCH   2   6
ENDBRANCH   1   2
BRANCH   1   8
ATOM      8  P   UNL     1       8.594  -4.338  25.432  0.00  0.00    +0.360 P 
ATOM      9  O   UNL     1       9.015  -4.658  26.888  0.00  0.00    -0.256 OA
BRANCH   8  10
ATOM     10  O   UNL     1       9.791  -5.299  24.808  0.00  0.00    -0.322 OA
ATOM     11  H   UNL     1       9.732  -6.278  24.770  0.00  0.00    +0.220 HD
ENDBRANCH   8  10
BRANCH   8  12
ATOM     12  O   UNL     1       7.388  -5.470  25.479  0.00  0.00    -0.322 OA
ATOM     13  H   UNL     1       6.731  -5.267  24.766  0.00  0.00    +0.220 HD
ENDBRANCH   8  12
ENDBRANCH   1   8
BRANCH   1  14
ATOM     14  N   UNL     1       7.542  -2.574  23.704  0.00  0.00    -0.306 N 
ATOM     15  H   UNL     1       6.559  -2.453  23.488  0.00  0.00    +0.149 HD
BRANCH  14  16
ATOM     16  C   UNL     1       8.350  -1.507  23.364  0.00  0.00    +0.120 A 
ATOM     17  N   UNL     1       8.614  -0.551  24.282  0.00  0.00    -0.239 NA
ATOM     18  C   UNL     1       9.274   0.560  23.840  0.00  0.00    +0.132 A 
ATOM     19  C   UNL     1       9.699   0.751  22.533  0.00  0.00    +0.059 A 
ATOM     20 CL   UNL     1      10.475   2.203  22.057  0.00  0.00    -0.082 Cl
ATOM     21  C   UNL     1       9.466  -0.262  21.620  0.00  0.00    +0.025 A 
ATOM     22  C   UNL     1       8.793  -1.409  22.046  0.00  0.00    +0.045 A 
ENDBRANCH  14  16
ENDBRANCH   1  14
TORSDOF 8
ENDMDL
MODEL 8
REMARK VINA RESULT:      -5.2      1.875      2.365
REMARK  Name = 
REMARK  8 active torsions:
REMARK  status: ('A' for Active; 'I' for Inactive)
REMARK    1  A    between atoms: O_1  and  P_2
REMARK    2  A    between atoms: P_2  and  O_3
REMARK    3  A    between atoms: P_2  and  C_5
REMARK    4  A    between atoms: C_5  and  N_6
REMARK    5  A    between atoms: C_5  and  P_14
REMARK    6  A    between atoms: N_6  and  C_7
REMARK    7  A    between atoms: P_14  and  O_15
REMARK    8  A    between atoms: P_14  and  O_16
REMARK                            x       y       z     vdW  Elec       q    Type
REMARK                         _______ _______ _______ _____ _____    ______ ____
ROOT
ATOM      1  C   UNL     1       7.385  -3.674  25.151  0.00  0.00    +0.301 C 
ENDROOT
BRANCH   1   2
ATOM      2  P   UNL     1       8.869  -4.696  25.469  0.00  0.00    +0.360 P 
ATOM      3  O   UNL     1       8.043  -5.746  26.237  0.00  0.00    -0.256 OA
BRANCH   2   4
ATOM      4  O   UNL     1      10.273  -5.661  25.770  0.00  0.00    -0.322 OA
ATOM      5  H   UNL     1      11.039  -5.278  25.304  0.00  0.00    +0.220 HD
ENDBRANCH   2   4
BRANCH   2   6
ATOM      6  O   UNL     1       8.821  -5.376  23.963  0.00  0.00    -0.322 OA
ATOM      7  H   UNL     1       7.879  -5.645  23.867  0.00  0.00    +0.220 HD
ENDBRANCH   2   6
ENDBRANCH   1   2
BRANCH   1   8
ATOM      8  P   UNL     1       5.881  -4.674  25.444  0.00  0.00    +0.360 P 
ATOM      9  O   UNL     1       4.608  -5.520  25.691  0.00  0.00    -0.256 OA
BRANCH   8  10
ATOM     10  O   UNL     1       6.101  -5.330  23.938  0.00  0.00    -0.322 OA
ATOM     11  H   UNL     1       6.983  -5.563  23.574  0.00  0.00    +0.220 HD
ENDBRANCH   8  10
BRANCH   8  12
ATOM     12  O   UNL     1       4.982  -3.360  24.995  0.00  0.00    -0.322 OA
ATOM     13  H   UNL     1       4.281  -3.204  25.678  0.00  0.00    +0.220 HD
ENDBRANCH   8  12
ENDBRANCH   1   8
BRANCH   1  14
ATOM     14  N   UNL     1       7.284  -3.111  23.772  0.00  0.00    -0.306 N 
ATOM     15  H   UNL     1       7.063  -3.745  23.011  0.00  0.00    +0.149 HD
BRANCH  14  16
ATOM     16  C   UNL     1       8.038  -2.012  23.414  0.00  0.00    +0.120 A 
ATOM     17  N   UNL     1       7.992  -0.895  24.173  0.00  0.00    -0.239 NA
ATOM     18  C   UNL     1       8.622   0.211  23.679  0.00  0.00    +0.132 A 
ATOM     19  C   UNL     1       9.312   0.248  22.475  0.00  0.00    +0.059 A 
ATOM     20 CL   UNL     1      10.030   1.698  21.909  0.00  0.00    -0.082 Cl
ATOM     21  C   UNL     1       9.393  -0.920  21.738  0.00  0.00    +0.025 A 
ATOM     22  C   UNL     1       8.757  -2.065  22.220  0.00  0.00    +0.045 A 
ENDBRANCH  14  16
ENDBRANCH   1  14
TORSDOF 8
ENDMDL
MODEL 9
REMARK VINA RESULT:      -5.1      2.766      4.278
REMARK  Name = 
REMARK  8 active torsions:
REMARK  status: ('A' for Active; 'I' for Inactive)
REMARK    1  A    between atoms: O_1  and  P_2
REMARK    2  A    between atoms: P_2  and  O_3
REMARK    3  A    between atoms: P_2  and  C_5
REMARK    4  A    between atoms: C_5  and  N_6
REMARK    5  A    between atoms: C_5  and  P_14
REMARK    6  A    between atoms: N_6  and  C_7
REMARK    7  A    between atoms: P_14  and  O_15
REMARK    8  A    between atoms: P_14  and  O_16
REMARK                            x       y       z     vdW  Elec       q    Type
REMARK                         _______ _______ _______ _____ _____    ______ ____
ROOT
ATOM      1  C   UNL     1       6.568  -4.851  25.070  0.00  0.00    +0.301 C 
ENDROOT
BRANCH   1   2
ATOM      2  P   UNL     1       5.464  -6.114  24.338  0.00  0.00    +0.360 P 
ATOM      3  O   UNL     1       4.271  -5.137  24.327  0.00  0.00    -0.256 OA
BRANCH   2   4
ATOM      4  O   UNL     1       4.420  -7.307  23.645  0.00  0.00    -0.322 OA
ATOM      5  H   UNL     1       3.907  -6.910  22.916  0.00  0.00    +0.220 HD
ENDBRANCH   2   4
BRANCH   2   6
ATOM      6  O   UNL     1       6.037  -5.843  22.810  0.00  0.00    -0.322 OA
ATOM      7  H   UNL     1       6.934  -6.247  22.832  0.00  0.00    +0.220 HD
ENDBRANCH   2   6
ENDBRANCH   1   2
BRANCH   1   8
ATOM      8  P   UNL     1       6.693  -5.124  26.875  0.00  0.00    +0.360 P 
ATOM      9  O   UNL     1       6.799  -5.356  28.402  0.00  0.00    -0.256 OA
BRANCH   8  10
ATOM     10  O   UNL     1       8.175  -5.814  26.603  0.00  0.00    -0.322 OA
ATOM     11  H   UNL     1       8.799  -5.499  25.914  0.00  0.00    +0.220 HD
ENDBRANCH   8  10
BRANCH   8  12
ATOM     12  O   UNL     1       5.767  -6.481  26.683  0.00  0.00    -0.322 OA
ATOM     13  H   UNL     1       5.244  -6.632  27.511  0.00  0.00    +0.220 HD
ENDBRANCH   8  12
ENDBRANCH   1   8
BRANCH   1  14
ATOM     14  N   UNL     1       6.141  -3.436  24.862  0.00  0.00    -0.306 N 
ATOM     15  H   UNL     1       5.164  -3.205  25.005  0.00  0.00    +0.149 HD
BRANCH  14  16
ATOM     16  C   UNL     1       6.801  -2.640  23.948  0.00  0.00    +0.120 A 
ATOM     17  N   UNL     1       7.733  -3.187  23.136  0.00  0.00    -0.239 NA
ATOM     18  C   UNL     1       8.469  -2.324  22.377  0.00  0.00    +0.132 A 
ATOM     19  C   UNL     1       8.305  -0.946  22.373  0.00  0.00    +0.059 A 
ATOM     20 CL   UNL     1       9.312   0.064  21.423  0.00  0.00    -0.082 Cl
ATOM     21  C   UNL     1       7.310  -0.410  23.171  0.00  0.00    +0.025 A 
ATOM     22  C   UNL     1       6.543  -1.270  23.958  0.00  0.00    +0.045 A 
ENDBRANCH  14  16
ENDBRANCH   1  14
TORSDOF 8
ENDMDL
