MODEL 1
REMARK VINA RESULT:      -6.0      0.000      0.000
REMARK  Name = 
REMARK  11 active torsions:
REMARK  status: ('A' for Active; 'I' for Inactive)
REMARK    1  A    between atoms: C_1  and  C_2
REMARK    2  A    between atoms: C_2  and  O_3
REMARK    3  A    between atoms: O_3  and  C_4
REMARK    4  A    between atoms: C_4  and  C_6
REMARK    5  A    between atoms: C_6  and  C_18
REMARK    6  A    between atoms: N_9  and  C_10
REMARK    7  A    between atoms: C_10  and  C_11
REMARK    8  A    between atoms: C_11  and  O_12
REMARK    9  A    between atoms: O_12  and  C_13
REMARK   10  A    between atoms: C_13  and  C_14
REMARK   11  A    between atoms: C_14  and  O_15
REMARK                            x       y       z     vdW  Elec       q    Type
REMARK                         _______ _______ _______ _____ _____    ______ ____
ROOT
ATOM      1  C   UNL     1       8.278  -1.922  23.567  0.00  0.00    +0.095 C 
ATOM      2  C   UNL     1       7.945  -0.550  24.218  0.00  0.00    +0.038 C 
ATOM      3  C   UNL     1       8.039   0.614  23.226  0.00  0.00    +0.086 C 
ATOM      4  N   UNL     1       9.331   0.693  22.531  0.00  0.00    -0.300 NA
ATOM      5  C   UNL     1       9.591  -0.569  21.831  0.00  0.00    +0.086 C 
ATOM      6  C   UNL     1       9.606  -1.773  22.771  0.00  0.00    +0.038 C 
ENDROOT
BRANCH   1   7
ATOM      7  C   UNL     1       8.352  -3.014  24.665  0.00  0.00    -0.031 A 
ATOM      8  C   UNL     1       9.438  -3.913  24.686  0.00  0.00    +0.005 A 
ATOM      9  C   UNL     1       9.555  -4.893  25.677  0.00  0.00    +0.000 A 
ATOM     10  C   UNL     1       8.586  -4.999  26.667  0.00  0.00    +0.000 A 
ATOM     11  C   UNL     1       7.506  -4.123  26.672  0.00  0.00    +0.000 A 
ATOM     12  C   UNL     1       7.394  -3.138  25.687  0.00  0.00    +0.005 A 
ENDBRANCH   1   7
BRANCH   1  13
ATOM     13  C   UNL     1       7.117  -2.302  22.615  0.00  0.00    +0.318 C 
ATOM     14  O   UNL     1       6.002  -1.793  22.646  0.00  0.00    -0.250 OA
BRANCH  13  15
ATOM     15  O   UNL     1       7.451  -3.370  21.838  0.00  0.00    -0.464 OA
BRANCH  15  17
ATOM     16  C   UNL     1       7.124  -5.662  22.377  0.00  0.00    +0.048 C 
ATOM     17  C   UNL     1       6.483  -4.423  21.781  0.00  0.00    +0.229 C 
ENDBRANCH  15  17
ENDBRANCH  13  15
ENDBRANCH   1  13
BRANCH   4  18
ATOM     18  C   UNL     1      10.414   1.118  23.444  0.00  0.00    +0.112 C 
BRANCH  18  19
ATOM     19  C   UNL     1      10.415   2.620  23.761  0.00  0.00    +0.175 C 
BRANCH  19  20
ATOM     20  O   UNL     1      11.491   3.266  23.066  0.00  0.00    -0.376 OA
BRANCH  20  21
ATOM     21  C   UNL     1      11.619   4.627  23.505  0.00  0.00    +0.187 C 
BRANCH  21  22
ATOM     22  C   UNL     1      12.725   5.305  22.705  0.00  0.00    +0.184 C 
BRANCH  22  23
ATOM     23  O   UNL     1      14.000   4.930  23.220  0.00  0.00    -0.393 OA
ATOM     24  H   UNL     1      14.219   4.087  22.777  0.00  0.00    +0.209 HD
ENDBRANCH  22  23
ENDBRANCH  21  22
ENDBRANCH  20  21
ENDBRANCH  19  20
ENDBRANCH  18  19
ENDBRANCH   4  18
TORSDOF 10
ENDMDL
MODEL 2
REMARK VINA RESULT:      -5.8      2.659      7.864
REMARK  Name = 
REMARK  11 active torsions:
REMARK  status: ('A' for Active; 'I' for Inactive)
REMARK    1  A    between atoms: C_1  and  C_2
REMARK    2  A    between atoms: C_2  and  O_3
REMARK    3  A    between atoms: O_3  and  C_4
REMARK    4  A    between atoms: C_4  and  C_6
REMARK    5  A    between atoms: C_6  and  C_18
REMARK    6  A    between atoms: N_9  and  C_10
REMARK    7  A    between atoms: C_10  and  C_11
REMARK    8  A    between atoms: C_11  and  O_12
REMARK    9  A    between atoms: O_12  and  C_13
REMARK   10  A    between atoms: C_13  and  C_14
REMARK   11  A    between atoms: C_14  and  O_15
REMARK                            x       y       z     vdW  Elec       q    Type
REMARK                         _______ _______ _______ _____ _____    ______ ____
ROOT
ATOM      1  C   UNL     1       9.108   2.880  23.592  0.00  0.00    +0.095 C 
ATOM      2  C   UNL     1       9.286   2.124  22.245  0.00  0.00    +0.038 C 
ATOM      3  C   UNL     1       8.395   0.880  22.142  0.00  0.00    +0.086 C 
ATOM      4  N   UNL     1       8.558  -0.055  23.263  0.00  0.00    -0.300 NA
ATOM      5  C   UNL     1       8.286   0.638  24.525  0.00  0.00    +0.086 C 
ATOM      6  C   UNL     1       9.201   1.842  24.747  0.00  0.00    +0.038 C 
ENDROOT
BRANCH   1   7
ATOM      7  C   UNL     1      10.172   4.002  23.702  0.00  0.00    -0.031 A 
ATOM      8  C   UNL     1       9.837   5.226  24.316  0.00  0.00    +0.005 A 
ATOM      9  C   UNL     1      10.777   6.251  24.460  0.00  0.00    +0.000 A 
ATOM     10  C   UNL     1      12.073   6.077  23.988  0.00  0.00    +0.000 A 
ATOM     11  C   UNL     1      12.430   4.879  23.381  0.00  0.00    +0.000 A 
ATOM     12  C   UNL     1      11.493   3.851  23.246  0.00  0.00    +0.005 A 
ENDBRANCH   1   7
BRANCH   1  13
ATOM     13  C   UNL     1       7.717   3.560  23.587  0.00  0.00    +0.318 C 
ATOM     14  O   UNL     1       6.939   3.550  24.534  0.00  0.00    -0.250 OA
BRANCH  13  15
ATOM     15  O   UNL     1       7.414   4.046  22.350  0.00  0.00    -0.464 OA
BRANCH  15  17
ATOM     16  C   UNL     1       7.442   6.386  21.932  0.00  0.00    +0.048 C 
ATOM     17  C   UNL     1       6.575   5.206  22.328  0.00  0.00    +0.229 C 
ENDBRANCH  15  17
ENDBRANCH  13  15
ENDBRANCH   1  13
BRANCH   4  18
ATOM     18  C   UNL     1       9.868  -0.740  23.213  0.00  0.00    +0.112 C 
BRANCH  18  19
ATOM     19  C   UNL     1       9.783  -2.234  22.869  0.00  0.00    +0.175 C 
BRANCH  19  20
ATOM     20  O   UNL     1      10.108  -3.021  24.024  0.00  0.00    -0.376 OA
BRANCH  20  21
ATOM     21  C   UNL     1       8.995  -3.853  24.386  0.00  0.00    +0.187 C 
BRANCH  21  22
ATOM     22  C   UNL     1       9.352  -4.640  25.641  0.00  0.00    +0.184 C 
BRANCH  22  23
ATOM     23  O   UNL     1      10.348  -5.613  25.340  0.00  0.00    -0.393 OA
ATOM     24  H   UNL     1       9.857  -6.393  25.017  0.00  0.00    +0.209 HD
ENDBRANCH  22  23
ENDBRANCH  21  22
ENDBRANCH  20  21
ENDBRANCH  19  20
ENDBRANCH  18  19
ENDBRANCH   4  18
TORSDOF 10
ENDMDL
MODEL 3
REMARK VINA RESULT:      -5.8      1.938      3.643
REMARK  Name = 
REMARK  11 active torsions:
REMARK  status: ('A' for Active; 'I' for Inactive)
REMARK    1  A    between atoms: C_1  and  C_2
REMARK    2  A    between atoms: C_2  and  O_3
REMARK    3  A    between atoms: O_3  and  C_4
REMARK    4  A    between atoms: C_4  and  C_6
REMARK    5  A    between atoms: C_6  and  C_18
REMARK    6  A    between atoms: N_9  and  C_10
REMARK    7  A    between atoms: C_10  and  C_11
REMARK    8  A    between atoms: C_11  and  O_12
REMARK    9  A    between atoms: O_12  and  C_13
REMARK   10  A    between atoms: C_13  and  C_14
REMARK   11  A    between atoms: C_14  and  O_15
REMARK                            x       y       z     vdW  Elec       q    Type
REMARK                         _______ _______ _______ _____ _____    ______ ____
ROOT
ATOM      1  C   UNL     1       7.951  -2.486  23.497  0.00  0.00    +0.095 C 
ATOM      2  C   UNL     1       8.626  -1.985  22.190  0.00  0.00    +0.038 C 
ATOM      3  C   UNL     1       9.450  -0.710  22.400  0.00  0.00    +0.086 C 
ATOM      4  N   UNL     1       8.693   0.385  23.021  0.00  0.00    -0.300 NA
ATOM      5  C   UNL     1       8.146  -0.061  24.305  0.00  0.00    +0.086 C 
ATOM      6  C   UNL     1       7.234  -1.279  24.167  0.00  0.00    +0.038 C 
ENDROOT
BRANCH   1   7
ATOM      7  C   UNL     1       6.986  -3.654  23.169  0.00  0.00    -0.031 A 
ATOM      8  C   UNL     1       5.612  -3.530  23.458  0.00  0.00    +0.005 A 
ATOM      9  C   UNL     1       4.707  -4.550  23.151  0.00  0.00    +0.000 A 
ATOM     10  C   UNL     1       5.156  -5.721  22.553  0.00  0.00    +0.000 A 
ATOM     11  C   UNL     1       6.506  -5.869  22.255  0.00  0.00    +0.000 A 
ATOM     12  C   UNL     1       7.409  -4.845  22.553  0.00  0.00    +0.005 A 
ENDBRANCH   1   7
BRANCH   1  13
ATOM     13  C   UNL     1       9.054  -3.045  24.430  0.00  0.00    +0.318 C 
ATOM     14  O   UNL     1      10.165  -3.397  24.052  0.00  0.00    -0.250 OA
BRANCH  13  15
ATOM     15  O   UNL     1       8.580  -3.226  25.695  0.00  0.00    -0.464 OA
BRANCH  15  17
ATOM     16  C   UNL     1       7.653  -5.303  26.389  0.00  0.00    +0.048 C 
ATOM     17  C   UNL     1       8.921  -4.472  26.312  0.00  0.00    +0.229 C 
ENDBRANCH  15  17
ENDBRANCH  13  15
ENDBRANCH   1  13
BRANCH   4  18
ATOM     18  C   UNL     1       7.688   0.946  22.091  0.00  0.00    +0.112 C 
BRANCH  18  19
ATOM     19  C   UNL     1       7.116   2.302  22.528  0.00  0.00    +0.175 C 
BRANCH  19  20
ATOM     20  O   UNL     1       8.082   3.337  22.299  0.00  0.00    -0.376 OA
BRANCH  20  21
ATOM     21  C   UNL     1       8.515   3.897  23.548  0.00  0.00    +0.187 C 
BRANCH  21  22
ATOM     22  C   UNL     1      10.010   3.647  23.712  0.00  0.00    +0.184 C 
BRANCH  22  23
ATOM     23  O   UNL     1      10.515   2.948  22.578  0.00  0.00    -0.393 OA
ATOM     24  H   UNL     1      11.486   3.037  22.632  0.00  0.00    +0.209 HD
ENDBRANCH  22  23
ENDBRANCH  21  22
ENDBRANCH  20  21
ENDBRANCH  19  20
ENDBRANCH  18  19
ENDBRANCH   4  18
TORSDOF 10
ENDMDL
MODEL 4
REMARK VINA RESULT:      -5.7      2.377      3.738
REMARK  Name = 
REMARK  11 active torsions:
REMARK  status: ('A' for Active; 'I' for Inactive)
REMARK    1  A    between atoms: C_1  and  C_2
REMARK    2  A    between atoms: C_2  and  O_3
REMARK    3  A    between atoms: O_3  and  C_4
REMARK    4  A    between atoms: C_4  and  C_6
REMARK    5  A    between atoms: C_6  and  C_18
REMARK    6  A    between atoms: N_9  and  C_10
REMARK    7  A    between atoms: C_10  and  C_11
REMARK    8  A    between atoms: C_11  and  O_12
REMARK    9  A    between atoms: O_12  and  C_13
REMARK   10  A    between atoms: C_13  and  C_14
REMARK   11  A    between atoms: C_14  and  O_15
REMARK                            x       y       z     vdW  Elec       q    Type
REMARK                         _______ _______ _______ _____ _____    ______ ____
ROOT
ATOM      1  C   UNL     1       8.044  -2.383  23.476  0.00  0.00    +0.095 C 
ATOM      2  C   UNL     1       8.770  -1.902  22.189  0.00  0.00    +0.038 C 
ATOM      3  C   UNL     1       9.658  -0.677  22.433  0.00  0.00    +0.086 C 
ATOM      4  N   UNL     1       8.948   0.450  23.055  0.00  0.00    -0.300 NA
ATOM      5  C   UNL     1       8.354   0.017  24.323  0.00  0.00    +0.086 C 
ATOM      6  C   UNL     1       7.380  -1.149  24.151  0.00  0.00    +0.038 C 
ENDROOT
BRANCH   1   7
ATOM      7  C   UNL     1       7.024  -3.493  23.114  0.00  0.00    -0.031 A 
ATOM      8  C   UNL     1       7.464  -4.660  22.456  0.00  0.00    +0.005 A 
ATOM      9  C   UNL     1       6.579  -5.695  22.138  0.00  0.00    +0.000 A 
ATOM     10  C   UNL     1       5.234  -5.586  22.467  0.00  0.00    +0.000 A 
ATOM     11  C   UNL     1       4.774  -4.447  23.119  0.00  0.00    +0.000 A 
ATOM     12  C   UNL     1       5.660  -3.416  23.445  0.00  0.00    +0.005 A 
ENDBRANCH   1   7
BRANCH   1  13
ATOM     13  C   UNL     1       9.097  -3.013  24.421  0.00  0.00    +0.318 C 
ATOM     14  O   UNL     1      10.188  -3.436  24.056  0.00  0.00    -0.250 OA
BRANCH  13  15
ATOM     15  O   UNL     1       8.597  -3.164  25.680  0.00  0.00    -0.464 OA
BRANCH  15  17
ATOM     16  C   UNL     1       7.644  -5.266  26.250  0.00  0.00    +0.048 C 
ATOM     17  C   UNL     1       8.894  -4.410  26.320  0.00  0.00    +0.229 C 
ENDBRANCH  15  17
ENDBRANCH  13  15
ENDBRANCH   1  13
BRANCH   4  18
ATOM     18  C   UNL     1       7.993   1.076  22.115  0.00  0.00    +0.112 C 
BRANCH  18  19
ATOM     19  C   UNL     1       7.559   2.494  22.513  0.00  0.00    +0.175 C 
BRANCH  19  20
ATOM     20  O   UNL     1       8.657   3.189  23.121  0.00  0.00    -0.376 OA
BRANCH  20  21
ATOM     21  C   UNL     1       8.377   4.595  23.190  0.00  0.00    +0.187 C 
BRANCH  21  22
ATOM     22  C   UNL     1       7.221   4.918  22.251  0.00  0.00    +0.184 C 
BRANCH  22  23
ATOM     23  O   UNL     1       7.564   6.022  21.416  0.00  0.00    -0.393 OA
ATOM     24  H   UNL     1       8.488   6.239  21.644  0.00  0.00    +0.209 HD
ENDBRANCH  22  23
ENDBRANCH  21  22
ENDBRANCH  20  21
ENDBRANCH  19  20
ENDBRANCH  18  19
ENDBRANCH   4  18
TORSDOF 10
ENDMDL
MODEL 5
REMARK VINA RESULT:      -5.7      1.742      2.260
REMARK  Name = 
REMARK  11 active torsions:
REMARK  status: ('A' for Active; 'I' for Inactive)
REMARK    1  A    between atoms: C_1  and  C_2
REMARK    2  A    between atoms: C_2  and  O_3
REMARK    3  A    between atoms: O_3  and  C_4
REMARK    4  A    between atoms: C_4  and  C_6
REMARK    5  A    between atoms: C_6  and  C_18
REMARK    6  A    between atoms: N_9  and  C_10
REMARK    7  A    between atoms: C_10  and  C_11
REMARK    8  A    between atoms: C_11  and  O_12
REMARK    9  A    between atoms: O_12  and  C_13
REMARK   10  A    between atoms: C_13  and  C_14
REMARK   11  A    between atoms: C_14  and  O_15
REMARK                            x       y       z     vdW  Elec       q    Type
REMARK                         _______ _______ _______ _____ _____    ______ ____
ROOT
ATOM      1  C   UNL     1       7.480  -2.847  23.949  0.00  0.00    +0.095 C 
ATOM      2  C   UNL     1       7.008  -1.406  24.289  0.00  0.00    +0.038 C 
ATOM      3  C   UNL     1       7.614  -0.350  23.357  0.00  0.00    +0.086 C 
ATOM      4  N   UNL     1       9.081  -0.392  23.294  0.00  0.00    -0.300 NA
ATOM      5  C   UNL     1       9.517  -1.725  22.870  0.00  0.00    +0.086 C 
ATOM      6  C   UNL     1       9.029  -2.831  23.806  0.00  0.00    +0.038 C 
ENDROOT
BRANCH   1   7
ATOM      7  C   UNL     1       6.986  -3.827  25.044  0.00  0.00    -0.031 A 
ATOM      8  C   UNL     1       7.922  -4.569  25.795  0.00  0.00    +0.005 A 
ATOM      9  C   UNL     1       7.517  -5.441  26.809  0.00  0.00    +0.000 A 
ATOM     10  C   UNL     1       6.166  -5.595  27.094  0.00  0.00    +0.000 A 
ATOM     11  C   UNL     1       5.222  -4.874  26.372  0.00  0.00    +0.000 A 
ATOM     12  C   UNL     1       5.628  -3.996  25.363  0.00  0.00    +0.005 A 
ENDBRANCH   1   7
BRANCH   1  13
ATOM     13  C   UNL     1       6.819  -3.273  22.615  0.00  0.00    +0.318 C 
ATOM     14  O   UNL     1       5.803  -2.767  22.155  0.00  0.00    -0.250 OA
BRANCH  13  15
ATOM     15  O   UNL     1       7.431  -4.374  22.095  0.00  0.00    -0.464 OA
BRANCH  15  17
ATOM     16  C   UNL     1       6.021  -6.255  22.452  0.00  0.00    +0.048 C 
ATOM     17  C   UNL     1       6.574  -5.297  21.414  0.00  0.00    +0.229 C 
ENDBRANCH  15  17
ENDBRANCH  13  15
ENDBRANCH   1  13
BRANCH   4  18
ATOM     18  C   UNL     1       9.693   0.079  24.556  0.00  0.00    +0.112 C 
BRANCH  18  19
ATOM     19  C   UNL     1      10.877   1.036  24.361  0.00  0.00    +0.175 C 
BRANCH  19  20
ATOM     20  O   UNL     1      10.582   1.972  23.314  0.00  0.00    -0.376 OA
BRANCH  20  21
ATOM     21  C   UNL     1       9.703   2.999  23.799  0.00  0.00    +0.187 C 
BRANCH  21  22
ATOM     22  C   UNL     1       8.575   3.202  22.795  0.00  0.00    +0.184 C 
BRANCH  22  23
ATOM     23  O   UNL     1       8.835   2.453  21.610  0.00  0.00    -0.393 OA
ATOM     24  H   UNL     1       9.109   3.112  20.944  0.00  0.00    +0.209 HD
ENDBRANCH  22  23
ENDBRANCH  21  22
ENDBRANCH  20  21
ENDBRANCH  19  20
ENDBRANCH  18  19
ENDBRANCH   4  18
TORSDOF 10
ENDMDL
MODEL 6
REMARK VINA RESULT:      -5.6      2.343      7.367
REMARK  Name = 
REMARK  11 active torsions:
REMARK  status: ('A' for Active; 'I' for Inactive)
REMARK    1  A    between atoms: C_1  and  C_2
REMARK    2  A    between atoms: C_2  and  O_3
REMARK    3  A    between atoms: O_3  and  C_4
REMARK    4  A    between atoms: C_4  and  C_6
REMARK    5  A    between atoms: C_6  and  C_18
REMARK    6  A    between atoms: N_9  and  C_10
REMARK    7  A    between atoms: C_10  and  C_11
REMARK    8  A    between atoms: C_11  and  O_12
REMARK    9  A    between atoms: O_12  and  C_13
REMARK   10  A    between atoms: C_13  and  C_14
REMARK   11  A    between atoms: C_14  and  O_15
REMARK                            x       y       z     vdW  Elec       q    Type
REMARK                         _______ _______ _______ _____ _____    ______ ____
ROOT
ATOM      1  C   UNL     1       8.964   0.727  23.384  0.00  0.00    +0.095 C 
ATOM      2  C   UNL     1       8.691  -0.282  24.535  0.00  0.00    +0.038 C 
ATOM      3  C   UNL     1       9.609  -1.509  24.477  0.00  0.00    +0.086 C 
ATOM      4  N   UNL     1       9.579  -2.207  23.185  0.00  0.00    -0.300 NA
ATOM      5  C   UNL     1       9.940  -1.274  22.114  0.00  0.00    +0.086 C 
ATOM      6  C   UNL     1       9.010  -0.064  22.045  0.00  0.00    +0.038 C 
ENDROOT
BRANCH   1   7
ATOM      7  C   UNL     1       7.879   1.833  23.395  0.00  0.00    -0.031 A 
ATOM      8  C   UNL     1       7.308   2.265  22.180  0.00  0.00    +0.005 A 
ATOM      9  C   UNL     1       6.306   3.241  22.151  0.00  0.00    +0.000 A 
ATOM     10  C   UNL     1       5.855   3.809  23.336  0.00  0.00    +0.000 A 
ATOM     11  C   UNL     1       6.399   3.399  24.548  0.00  0.00    +0.000 A 
ATOM     12  C   UNL     1       7.394   2.418  24.578  0.00  0.00    +0.005 A 
ENDBRANCH   1   7
BRANCH   1  13
ATOM     13  C   UNL     1      10.327   1.413  23.653  0.00  0.00    +0.318 C 
ATOM     14  O   UNL     1      11.081   1.115  24.572  0.00  0.00    -0.250 OA
BRANCH  13  15
ATOM     15  O   UNL     1      10.509   2.480  22.825  0.00  0.00    -0.464 OA
BRANCH  15  17
ATOM     16  C   UNL     1      10.186   4.628  23.792  0.00  0.00    +0.048 C 
ATOM     17  C   UNL     1      11.216   3.589  23.390  0.00  0.00    +0.229 C 
ENDBRANCH  15  17
ENDBRANCH  13  15
ENDBRANCH   1  13
BRANCH   4  18
ATOM     18  C   UNL     1       8.293  -2.907  22.976  0.00  0.00    +0.112 C 
BRANCH  18  19
ATOM     19  C   UNL     1       7.937  -3.911  24.083  0.00  0.00    +0.175 C 
BRANCH  19  20
ATOM     20  O   UNL     1       8.927  -4.948  24.139  0.00  0.00    -0.376 OA
BRANCH  20  21
ATOM     21  C   UNL     1       9.407  -5.103  25.483  0.00  0.00    +0.187 C 
BRANCH  21  22
ATOM     22  C   UNL     1       8.297  -4.719  26.454  0.00  0.00    +0.184 C 
BRANCH  22  23
ATOM     23  O   UNL     1       8.068  -5.780  27.378  0.00  0.00    -0.393 OA
ATOM     24  H   UNL     1       8.954  -6.049  27.686  0.00  0.00    +0.209 HD
ENDBRANCH  22  23
ENDBRANCH  21  22
ENDBRANCH  20  21
ENDBRANCH  19  20
ENDBRANCH  18  19
ENDBRANCH   4  18
TORSDOF 10
ENDMDL
MODEL 7
REMARK VINA RESULT:      -5.2      2.135      7.647
REMARK  Name = 
REMARK  11 active torsions:
REMARK  status: ('A' for Active; 'I' for Inactive)
REMARK    1  A    between atoms: C_1  and  C_2
REMARK    2  A    between atoms: C_2  and  O_3
REMARK    3  A    between atoms: O_3  and  C_4
REMARK    4  A    between atoms: C_4  and  C_6
REMARK    5  A    between atoms: C_6  and  C_18
REMARK    6  A    between atoms: N_9  and  C_10
REMARK    7  A    between atoms: C_10  and  C_11
REMARK    8  A    between atoms: C_11  and  O_12
REMARK    9  A    between atoms: O_12  and  C_13
REMARK   10  A    between atoms: C_13  and  C_14
REMARK   11  A    between atoms: C_14  and  O_15
REMARK                            x       y       z     vdW  Elec       q    Type
REMARK                         _______ _______ _______ _____ _____    ______ ____
ROOT
ATOM      1  C   UNL     1       8.811   0.523  23.454  0.00  0.00    +0.095 C 
ATOM      2  C   UNL     1       8.500  -0.485  24.595  0.00  0.00    +0.038 C 
ATOM      3  C   UNL     1       9.423  -1.709  24.572  0.00  0.00    +0.086 C 
ATOM      4  N   UNL     1       9.440  -2.409  23.280  0.00  0.00    -0.300 NA
ATOM      5  C   UNL     1       9.837  -1.477  22.221  0.00  0.00    +0.086 C 
ATOM      6  C   UNL     1       8.907  -0.268  22.118  0.00  0.00    +0.038 C 
ENDROOT
BRANCH   1   7
ATOM      7  C   UNL     1       7.723   1.627  23.424  0.00  0.00    -0.031 A 
ATOM      8  C   UNL     1       7.208   2.135  24.635  0.00  0.00    +0.005 A 
ATOM      9  C   UNL     1       6.246   3.150  24.649  0.00  0.00    +0.000 A 
ATOM     10  C   UNL     1       5.775   3.678  23.453  0.00  0.00    +0.000 A 
ATOM     11  C   UNL     1       6.268   3.197  22.245  0.00  0.00    +0.000 A 
ATOM     12  C   UNL     1       7.236   2.188  22.232  0.00  0.00    +0.005 A 
ENDBRANCH   1   7
BRANCH   1  13
ATOM     13  C   UNL     1      10.162   1.213  23.771  0.00  0.00    +0.318 C 
ATOM     14  O   UNL     1      10.828   1.000  24.777  0.00  0.00    -0.250 OA
BRANCH  13  15
ATOM     15  O   UNL     1      10.439   2.188  22.859  0.00  0.00    -0.464 OA
BRANCH  15  17
ATOM     16  C   UNL     1       9.988   4.335  23.774  0.00  0.00    +0.048 C 
ATOM     17  C   UNL     1      11.079   3.358  23.378  0.00  0.00    +0.229 C 
ENDBRANCH  15  17
ENDBRANCH  13  15
ENDBRANCH   1  13
BRANCH   4  18
ATOM     18  C   UNL     1       8.164  -3.113  23.026  0.00  0.00    +0.112 C 
BRANCH  18  19
ATOM     19  C   UNL     1       8.012  -4.434  23.793  0.00  0.00    +0.175 C 
BRANCH  19  20
ATOM     20  O   UNL     1       6.990  -5.237  23.186  0.00  0.00    -0.376 OA
BRANCH  20  21
ATOM     21  C   UNL     1       7.286  -5.451  21.797  0.00  0.00    +0.187 C 
BRANCH  21  22
ATOM     22  C   UNL     1       6.029  -5.946  21.092  0.00  0.00    +0.184 C 
BRANCH  22  23
ATOM     23  O   UNL     1       4.930  -5.951  22.000  0.00  0.00    -0.393 OA
ATOM     24  H   UNL     1       4.933  -6.841  22.403  0.00  0.00    +0.209 HD
ENDBRANCH  22  23
ENDBRANCH  21  22
ENDBRANCH  20  21
ENDBRANCH  19  20
ENDBRANCH  18  19
ENDBRANCH   4  18
TORSDOF 10
ENDMDL
MODEL 8
REMARK VINA RESULT:      -5.2      2.866      4.567
REMARK  Name = 
REMARK  11 active torsions:
REMARK  status: ('A' for Active; 'I' for Inactive)
REMARK    1  A    between atoms: C_1  and  C_2
REMARK    2  A    between atoms: C_2  and  O_3
REMARK    3  A    between atoms: O_3  and  C_4
REMARK    4  A    between atoms: C_4  and  C_6
REMARK    5  A    between atoms: C_6  and  C_18
REMARK    6  A    between atoms: N_9  and  C_10
REMARK    7  A    between atoms: C_10  and  C_11
REMARK    8  A    between atoms: C_11  and  O_12
REMARK    9  A    between atoms: O_12  and  C_13
REMARK   10  A    between atoms: C_13  and  C_14
REMARK   11  A    between atoms: C_14  and  O_15
REMARK                            x       y       z     vdW  Elec       q    Type
REMARK                         _______ _______ _______ _____ _____    ______ ____
ROOT
ATOM      1  C   UNL     1       7.240  -3.969  24.898  0.00  0.00    +0.095 C 
ATOM      2  C   UNL     1       8.779  -3.822  25.061  0.00  0.00    +0.038 C 
ATOM      3  C   UNL     1       9.171  -3.067  26.336  0.00  0.00    +0.086 C 
ATOM      4  N   UNL     1       8.529  -1.751  26.461  0.00  0.00    -0.300 NA
ATOM      5  C   UNL     1       7.073  -1.908  26.413  0.00  0.00    +0.086 C 
ATOM      6  C   UNL     1       6.592  -2.573  25.124  0.00  0.00    +0.038 C 
ENDROOT
BRANCH   1   7
ATOM      7  C   UNL     1       6.920  -4.564  23.503  0.00  0.00    -0.031 A 
ATOM      8  C   UNL     1       6.038  -3.884  22.637  0.00  0.00    +0.005 A 
ATOM      9  C   UNL     1       5.747  -4.375  21.361  0.00  0.00    +0.000 A 
ATOM     10  C   UNL     1       6.326  -5.560  20.923  0.00  0.00    +0.000 A 
ATOM     11  C   UNL     1       7.201  -6.249  21.755  0.00  0.00    +0.000 A 
ATOM     12  C   UNL     1       7.499  -5.753  23.028  0.00  0.00    +0.005 A 
ENDBRANCH   1   7
BRANCH   1  13
ATOM     13  C   UNL     1       6.734  -4.977  25.959  0.00  0.00    +0.318 C 
ATOM     14  O   UNL     1       7.460  -5.714  26.615  0.00  0.00    -0.250 OA
BRANCH  13  15
ATOM     15  O   UNL     1       5.372  -5.038  25.965  0.00  0.00    -0.464 OA
BRANCH  15  17
ATOM     16  C   UNL     1       4.436  -6.913  24.842  0.00  0.00    +0.048 C 
ATOM     17  C   UNL     1       4.811  -6.335  26.194  0.00  0.00    +0.229 C 
ENDBRANCH  15  17
ENDBRANCH  13  15
ENDBRANCH   1  13
BRANCH   4  18
ATOM     18  C   UNL     1       9.072  -0.786  25.481  0.00  0.00    +0.112 C 
BRANCH  18  19
ATOM     19  C   UNL     1       8.325   0.554  25.438  0.00  0.00    +0.175 C 
BRANCH  19  20
ATOM     20  O   UNL     1       8.738   1.308  24.290  0.00  0.00    -0.376 OA
BRANCH  20  21
ATOM     21  C   UNL     1       8.797   0.458  23.134  0.00  0.00    +0.187 C 
BRANCH  21  22
ATOM     22  C   UNL     1       9.945   0.914  22.241  0.00  0.00    +0.184 C 
BRANCH  22  23
ATOM     23  O   UNL     1       9.587   2.113  21.559  0.00  0.00    -0.393 OA
ATOM     24  H   UNL     1       8.611   2.137  21.576  0.00  0.00    +0.209 HD
ENDBRANCH  22  23
ENDBRANCH  21  22
ENDBRANCH  20  21
ENDBRANCH  19  20
ENDBRANCH  18  19
ENDBRANCH   4  18
TORSDOF 10
ENDMDL
MODEL 9
REMARK VINA RESULT:      -5.2      2.019      3.049
REMARK  Name = 
REMARK  11 active torsions:
REMARK  status: ('A' for Active; 'I' for Inactive)
REMARK    1  A    between atoms: C_1  and  C_2
REMARK    2  A    between atoms: C_2  and  O_3
REMARK    3  A    between atoms: O_3  and  C_4
REMARK    4  A    between atoms: C_4  and  C_6
REMARK    5  A    between atoms: C_6  and  C_18
REMARK    6  A    between atoms: N_9  and  C_10
REMARK    7  A    between atoms: C_10  and  C_11
REMARK    8  A    between atoms: C_11  and  O_12
REMARK    9  A    between atoms: O_12  and  C_13
REMARK   10  A    between atoms: C_13  and  C_14
REMARK   11  A    between atoms: C_14  and  O_15
REMARK                            x       y       z     vdW  Elec       q    Type
REMARK                         _______ _______ _______ _____ _____    ______ ____
ROOT
ATOM      1  C   UNL     1       7.763  -3.482  24.603  0.00  0.00    +0.095 C 
ATOM      2  C   UNL     1       7.127  -2.595  23.497  0.00  0.00    +0.038 C 
ATOM      3  C   UNL     1       8.105  -2.273  22.361  0.00  0.00    +0.086 C 
ATOM      4  N   UNL     1       9.363  -1.670  22.821  0.00  0.00    -0.300 NA
ATOM      5  C   UNL     1      10.012  -2.561  23.787  0.00  0.00    +0.086 C 
ATOM      6  C   UNL     1       9.131  -2.858  25.000  0.00  0.00    +0.038 C 
ENDROOT
BRANCH   1   7
ATOM      7  C   UNL     1       6.785  -3.601  25.800  0.00  0.00    -0.031 A 
ATOM      8  C   UNL     1       5.674  -2.738  25.885  0.00  0.00    +0.005 A 
ATOM      9  C   UNL     1       4.754  -2.834  26.934  0.00  0.00    +0.000 A 
ATOM     10  C   UNL     1       4.927  -3.792  27.925  0.00  0.00    +0.000 A 
ATOM     11  C   UNL     1       6.013  -4.659  27.864  0.00  0.00    +0.000 A 
ATOM     12  C   UNL     1       6.927  -4.569  26.810  0.00  0.00    +0.005 A 
ENDBRANCH   1   7
BRANCH   1  13
ATOM     13  C   UNL     1       7.965  -4.906  24.027  0.00  0.00    +0.318 C 
ATOM     14  O   UNL     1       8.995  -5.559  24.145  0.00  0.00    -0.250 OA
BRANCH  13  15
ATOM     15  O   UNL     1       6.905  -5.277  23.256  0.00  0.00    -0.464 OA
BRANCH  15  17
ATOM     16  C   UNL     1       6.216  -5.580  21.001  0.00  0.00    +0.048 C 
ATOM     17  C   UNL     1       7.230  -5.984  22.054  0.00  0.00    +0.229 C 
ENDBRANCH  15  17
ENDBRANCH  13  15
ENDBRANCH   1  13
BRANCH   4  18
ATOM     18  C   UNL     1       9.157  -0.288  23.308  0.00  0.00    +0.112 C 
BRANCH  18  19
ATOM     19  C   UNL     1      10.422   0.373  23.874  0.00  0.00    +0.175 C 
BRANCH  19  20
ATOM     20  O   UNL     1      10.093   1.648  24.445  0.00  0.00    -0.376 OA
BRANCH  20  21
ATOM     21  C   UNL     1      10.321   2.694  23.488  0.00  0.00    +0.187 C 
BRANCH  21  22
ATOM     22  C   UNL     1       9.186   3.707  23.580  0.00  0.00    +0.184 C 
BRANCH  22  23
ATOM     23  O   UNL     1       9.674   5.014  23.289  0.00  0.00    -0.393 OA
ATOM     24  H   UNL     1       9.639   5.496  24.138  0.00  0.00    +0.209 HD
ENDBRANCH  22  23
ENDBRANCH  21  22
ENDBRANCH  20  21
ENDBRANCH  19  20
ENDBRANCH  18  19
ENDBRANCH   4  18
TORSDOF 10
ENDMDL
