MODEL 1
REMARK VINA RESULT:      -5.6      0.000      0.000
REMARK  Name = 
REMARK  4 active torsions:
REMARK  status: ('A' for Active; 'I' for Inactive)
REMARK    1  A    between atoms: C_1  and  C_2
REMARK    2  A    between atoms: C_2  and  C_3
REMARK    3  A    between atoms: C_3  and  C_4
REMARK    4  A    between atoms: C_4  and  C_5
REMARK                            x       y       z     vdW  Elec       q    Type
REMARK                         _______ _______ _______ _____ _____    ______ ____
ROOT
ATOM      1  C   UNL     1       9.329  -2.027  22.799  0.00  0.00    +0.108 A 
ATOM      2  N   UNL     1       8.116  -2.169  22.166  0.00  0.00    -0.337 N 
ATOM      3  H   UNL     1       7.749  -1.585  21.426  0.00  0.00    +0.167 HD
ATOM      4  C   UNL     1       7.479  -3.232  22.738  0.00  0.00    +0.138 A 
ATOM      5  C   UNL     1       6.190  -3.771  22.460  0.00  0.00    +0.289 A 
ATOM      6  N   UNL     1       5.863  -4.860  23.253  0.00  0.00    -0.262 N 
ATOM      7  H   UNL     1       4.951  -5.285  23.126  0.00  0.00    +0.190 HD
ATOM      8  N   UNL     1       6.734  -5.387  24.243  0.00  0.00    -0.261 N 
ATOM      9  H   UNL     1       6.438  -6.191  24.785  0.00  0.00    +0.190 HD
ATOM     10  C   UNL     1       7.998  -4.866  24.516  0.00  0.00    +0.291 A 
ATOM     11  O   UNL     1       8.716  -5.362  25.377  0.00  0.00    -0.264 OA
ATOM     12  O   UNL     1       5.425  -3.326  21.611  0.00  0.00    -0.264 OA
ATOM     13  C   UNL     1       8.344  -3.715  23.692  0.00  0.00    +0.160 A 
ATOM     14  N   UNL     1       9.492  -2.957  23.723  0.00  0.00    -0.227 NA
ENDROOT
BRANCH   1  15
ATOM     15  C   UNL     1      10.283  -0.929  22.464  0.00  0.00    +0.074 C 
BRANCH  15  16
ATOM     16  C   UNL     1       9.621   0.146  21.602  0.00  0.00    +0.007 C 
BRANCH  16  18
ATOM     17  C   UNL     1      10.327   1.563  23.560  0.00  0.00    +0.004 C 
ATOM     18  C   UNL     1       9.995   1.549  22.077  0.00  0.00    -0.003 C 
ENDBRANCH  16  18
ENDBRANCH  15  16
ENDBRANCH   1  15
TORSDOF 3
ENDMDL
MODEL 2
REMARK VINA RESULT:      -5.6      0.257      2.501
REMARK  Name = 
REMARK  4 active torsions:
REMARK  status: ('A' for Active; 'I' for Inactive)
REMARK    1  A    between atoms: C_1  and  C_2
REMARK    2  A    between atoms: C_2  and  C_3
REMARK    3  A    between atoms: C_3  and  C_4
REMARK    4  A    between atoms: C_4  and  C_5
REMARK                            x       y       z     vdW  Elec       q    Type
REMARK                         _______ _______ _______ _____ _____    ______ ____
ROOT
ATOM      1  C   UNL     1       9.195  -1.860  22.635  0.00  0.00    +0.108 A 
ATOM      2  N   UNL     1       9.446  -2.723  23.676  0.00  0.00    -0.337 N 
ATOM      3  H   UNL     1      10.279  -2.751  24.251  0.00  0.00    +0.167 HD
ATOM      4  C   UNL     1       8.374  -3.561  23.780  0.00  0.00    +0.138 A 
ATOM      5  C   UNL     1       8.157  -4.646  24.678  0.00  0.00    +0.289 A 
ATOM      6  N   UNL     1       6.943  -5.288  24.486  0.00  0.00    -0.262 N 
ATOM      7  H   UNL     1       6.727  -6.084  25.076  0.00  0.00    +0.190 HD
ATOM      8  N   UNL     1       6.008  -4.896  23.491  0.00  0.00    -0.261 N 
ATOM      9  H   UNL     1       5.134  -5.403  23.407  0.00  0.00    +0.190 HD
ATOM     10  C   UNL     1       6.215  -3.834  22.613  0.00  0.00    +0.291 A 
ATOM     11  O   UNL     1       5.373  -3.530  21.775  0.00  0.00    -0.264 OA
ATOM     12  O   UNL     1       8.955  -4.998  25.540  0.00  0.00    -0.264 OA
ATOM     13  C   UNL     1       7.493  -3.160  22.803  0.00  0.00    +0.160 A 
ATOM     14  N   UNL     1       8.014  -2.101  22.096  0.00  0.00    -0.227 NA
ENDROOT
BRANCH   1  15
ATOM     15  C   UNL     1      10.178  -0.825  22.198  0.00  0.00    +0.074 C 
BRANCH  15  16
ATOM     16  C   UNL     1       9.483   0.369  21.545  0.00  0.00    +0.007 C 
BRANCH  16  18
ATOM     17  C   UNL     1      10.306   1.609  23.577  0.00  0.00    +0.004 C 
ATOM     18  C   UNL     1      10.023   1.693  22.086  0.00  0.00    -0.003 C 
ENDBRANCH  16  18
ENDBRANCH  15  16
ENDBRANCH   1  15
TORSDOF 3
ENDMDL
MODEL 3
REMARK VINA RESULT:      -5.4      3.866      6.232
REMARK  Name = 
REMARK  4 active torsions:
REMARK  status: ('A' for Active; 'I' for Inactive)
REMARK    1  A    between atoms: C_1  and  C_2
REMARK    2  A    between atoms: C_2  and  C_3
REMARK    3  A    between atoms: C_3  and  C_4
REMARK    4  A    between atoms: C_4  and  C_5
REMARK                            x       y       z     vdW  Elec       q    Type
REMARK                         _______ _______ _______ _____ _____    ______ ____
ROOT
ATOM      1  C   UNL     1       8.947  -0.293  25.404  0.00  0.00    +0.108 A 
ATOM      2  N   UNL     1       9.000   1.078  25.516  0.00  0.00    -0.337 N 
ATOM      3  H   UNL     1       8.879   1.620  26.361  0.00  0.00    +0.167 HD
ATOM      4  C   UNL     1       9.219   1.581  24.266  0.00  0.00    +0.138 A 
ATOM      5  C   UNL     1       9.327   2.937  23.843  0.00  0.00    +0.289 A 
ATOM      6  N   UNL     1       9.544   3.076  22.481  0.00  0.00    -0.262 N 
ATOM      7  H   UNL     1       9.612   4.014  22.102  0.00  0.00    +0.190 HD
ATOM      8  N   UNL     1       9.652   1.970  21.597  0.00  0.00    -0.261 N 
ATOM      9  H   UNL     1       9.819   2.138  20.611  0.00  0.00    +0.190 HD
ATOM     10  C   UNL     1       9.551   0.641  22.007  0.00  0.00    +0.291 A 
ATOM     11  O   UNL     1       9.659  -0.280  21.205  0.00  0.00    -0.264 OA
ATOM     12  O   UNL     1       9.233   3.903  24.593  0.00  0.00    -0.264 OA
ATOM     13  C   UNL     1       9.313   0.488  23.436  0.00  0.00    +0.160 A 
ATOM     14  N   UNL     1       9.141  -0.673  24.154  0.00  0.00    -0.227 NA
ENDROOT
BRANCH   1  15
ATOM     15  C   UNL     1       8.673  -1.181  26.572  0.00  0.00    +0.074 C 
BRANCH  15  16
ATOM     16  C   UNL     1       7.876  -2.419  26.160  0.00  0.00    +0.007 C 
BRANCH  16  18
ATOM     17  C   UNL     1       9.238  -4.241  25.081  0.00  0.00    +0.004 C 
ATOM     18  C   UNL     1       8.681  -3.699  26.387  0.00  0.00    -0.003 C 
ENDBRANCH  16  18
ENDBRANCH  15  16
ENDBRANCH   1  15
TORSDOF 3
ENDMDL
MODEL 4
REMARK VINA RESULT:      -5.4      3.295      4.630
REMARK  Name = 
REMARK  4 active torsions:
REMARK  status: ('A' for Active; 'I' for Inactive)
REMARK    1  A    between atoms: C_1  and  C_2
REMARK    2  A    between atoms: C_2  and  C_3
REMARK    3  A    between atoms: C_3  and  C_4
REMARK    4  A    between atoms: C_4  and  C_5
REMARK                            x       y       z     vdW  Elec       q    Type
REMARK                         _______ _______ _______ _____ _____    ______ ____
ROOT
ATOM      1  C   UNL     1       9.868   1.932  24.012  0.00  0.00    +0.108 A 
ATOM      2  N   UNL     1       9.251   1.403  25.123  0.00  0.00    -0.337 N 
ATOM      3  H   UNL     1       8.874   1.919  25.907  0.00  0.00    +0.167 HD
ATOM      4  C   UNL     1       9.265   0.045  24.990  0.00  0.00    +0.138 A 
ATOM      5  C   UNL     1       8.777  -0.956  25.879  0.00  0.00    +0.289 A 
ATOM      6  N   UNL     1       8.971  -2.248  25.416  0.00  0.00    -0.262 N 
ATOM      7  H   UNL     1       8.667  -3.016  26.005  0.00  0.00    +0.190 HD
ATOM      8  N   UNL     1       9.592  -2.541  24.173  0.00  0.00    -0.261 N 
ATOM      9  H   UNL     1       9.697  -3.508  23.888  0.00  0.00    +0.190 HD
ATOM     10  C   UNL     1      10.067  -1.565  23.299  0.00  0.00    +0.291 A 
ATOM     11  O   UNL     1      10.590  -1.869  22.232  0.00  0.00    -0.264 OA
ATOM     12  O   UNL     1       8.241  -0.720  26.956  0.00  0.00    -0.264 OA
ATOM     13  C   UNL     1       9.875  -0.204  23.783  0.00  0.00    +0.160 A 
ATOM     14  N   UNL     1      10.248   0.976  23.183  0.00  0.00    -0.227 NA
ENDROOT
BRANCH   1  15
ATOM     15  C   UNL     1      10.078   3.399  23.836  0.00  0.00    +0.074 C 
BRANCH  15  16
ATOM     16  C   UNL     1      11.461   3.702  23.260  0.00  0.00    +0.007 C 
BRANCH  16  18
ATOM     17  C   UNL     1      13.041   5.553  22.612  0.00  0.00    +0.004 C 
ATOM     18  C   UNL     1      11.837   5.170  23.457  0.00  0.00    -0.003 C 
ENDBRANCH  16  18
ENDBRANCH  15  16
ENDBRANCH   1  15
TORSDOF 3
ENDMDL
MODEL 5
REMARK VINA RESULT:      -5.4      1.740      3.100
REMARK  Name = 
REMARK  4 active torsions:
REMARK  status: ('A' for Active; 'I' for Inactive)
REMARK    1  A    between atoms: C_1  and  C_2
REMARK    2  A    between atoms: C_2  and  C_3
REMARK    3  A    between atoms: C_3  and  C_4
REMARK    4  A    between atoms: C_4  and  C_5
REMARK                            x       y       z     vdW  Elec       q    Type
REMARK                         _______ _______ _______ _____ _____    ______ ____
ROOT
ATOM      1  C   UNL     1       7.894  -3.176  23.757  0.00  0.00    +0.108 A 
ATOM      2  N   UNL     1       7.262  -3.940  24.711  0.00  0.00    -0.337 N 
ATOM      3  H   UNL     1       7.365  -3.860  25.714  0.00  0.00    +0.167 HD
ATOM      4  C   UNL     1       6.487  -4.853  24.056  0.00  0.00    +0.138 A 
ATOM      5  C   UNL     1       5.660  -5.885  24.587  0.00  0.00    +0.289 A 
ATOM      6  N   UNL     1       5.019  -6.635  23.613  0.00  0.00    -0.262 N 
ATOM      7  H   UNL     1       4.427  -7.401  23.915  0.00  0.00    +0.190 HD
ATOM      8  N   UNL     1       5.170  -6.392  22.223  0.00  0.00    -0.261 N 
ATOM      9  H   UNL     1       4.667  -6.972  21.561  0.00  0.00    +0.190 HD
ATOM     10  C   UNL     1       5.975  -5.381  21.699  0.00  0.00    +0.291 A 
ATOM     11  O   UNL     1       6.068  -5.207  20.488  0.00  0.00    -0.264 OA
ATOM     12  O   UNL     1       5.520  -6.109  25.784  0.00  0.00    -0.264 OA
ATOM     13  C   UNL     1       6.660  -4.595  22.716  0.00  0.00    +0.160 A 
ATOM     14  N   UNL     1       7.538  -3.551  22.541  0.00  0.00    -0.227 NA
ENDROOT
BRANCH   1  15
ATOM     15  C   UNL     1       8.866  -2.099  24.108  0.00  0.00    +0.074 C 
BRANCH  15  16
ATOM     16  C   UNL     1       9.946  -1.947  23.037  0.00  0.00    +0.007 C 
BRANCH  16  18
ATOM     17  C   UNL     1       9.442  -0.029  21.485  0.00  0.00    +0.004 C 
ATOM     18  C   UNL     1      10.210  -0.476  22.718  0.00  0.00    -0.003 C 
ENDBRANCH  16  18
ENDBRANCH  15  16
ENDBRANCH   1  15
TORSDOF 3
ENDMDL
MODEL 6
REMARK VINA RESULT:      -5.3      1.912      2.599
REMARK  Name = 
REMARK  4 active torsions:
REMARK  status: ('A' for Active; 'I' for Inactive)
REMARK    1  A    between atoms: C_1  and  C_2
REMARK    2  A    between atoms: C_2  and  C_3
REMARK    3  A    between atoms: C_3  and  C_4
REMARK    4  A    between atoms: C_4  and  C_5
REMARK                            x       y       z     vdW  Elec       q    Type
REMARK                         _______ _______ _______ _____ _____    ______ ____
ROOT
ATOM      1  C   UNL     1       8.272  -3.942  23.974  0.00  0.00    +0.108 A 
ATOM      2  N   UNL     1       7.796  -4.171  22.704  0.00  0.00    -0.337 N 
ATOM      3  H   UNL     1       8.164  -3.790  21.843  0.00  0.00    +0.167 HD
ATOM      4  C   UNL     1       6.710  -4.991  22.818  0.00  0.00    +0.138 A 
ATOM      5  C   UNL     1       5.849  -5.497  21.801  0.00  0.00    +0.289 A 
ATOM      6  N   UNL     1       4.831  -6.302  22.290  0.00  0.00    -0.262 N 
ATOM      7  H   UNL     1       4.166  -6.684  21.627  0.00  0.00    +0.190 HD
ATOM      8  N   UNL     1       4.669  -6.594  23.670  0.00  0.00    -0.261 N 
ATOM      9  H   UNL     1       3.908  -7.196  23.963  0.00  0.00    +0.190 HD
ATOM     10  C   UNL     1       5.511  -6.103  24.668  0.00  0.00    +0.291 A 
ATOM     11  O   UNL     1       5.332  -6.390  25.846  0.00  0.00    -0.264 OA
ATOM     12  O   UNL     1       5.974  -5.253  20.607  0.00  0.00    -0.264 OA
ATOM     13  C   UNL     1       6.578  -5.249  24.162  0.00  0.00    +0.160 A 
ATOM     14  N   UNL     1       7.554  -4.591  24.873  0.00  0.00    -0.227 NA
ENDROOT
BRANCH   1  15
ATOM     15  C   UNL     1       9.435  -3.044  24.243  0.00  0.00    +0.074 C 
BRANCH  15  16
ATOM     16  C   UNL     1       9.068  -1.575  24.036  0.00  0.00    +0.007 C 
BRANCH  16  18
ATOM     17  C   UNL     1       9.525  -0.841  21.671  0.00  0.00    +0.004 C 
ATOM     18  C   UNL     1      10.054  -0.883  23.095  0.00  0.00    -0.003 C 
ENDBRANCH  16  18
ENDBRANCH  15  16
ENDBRANCH   1  15
TORSDOF 3
ENDMDL
MODEL 7
REMARK VINA RESULT:      -5.2      1.849      3.169
REMARK  Name = 
REMARK  4 active torsions:
REMARK  status: ('A' for Active; 'I' for Inactive)
REMARK    1  A    between atoms: C_1  and  C_2
REMARK    2  A    between atoms: C_2  and  C_3
REMARK    3  A    between atoms: C_3  and  C_4
REMARK    4  A    between atoms: C_4  and  C_5
REMARK                            x       y       z     vdW  Elec       q    Type
REMARK                         _______ _______ _______ _____ _____    ______ ____
ROOT
ATOM      1  C   UNL     1       8.784  -3.269  24.089  0.00  0.00    +0.108 A 
ATOM      2  N   UNL     1       8.664  -3.716  25.384  0.00  0.00    -0.337 N 
ATOM      3  H   UNL     1       9.256  -3.469  26.166  0.00  0.00    +0.167 HD
ATOM      4  C   UNL     1       7.609  -4.582  25.421  0.00  0.00    +0.138 A 
ATOM      5  C   UNL     1       7.093  -5.332  26.517  0.00  0.00    +0.289 A 
ATOM      6  N   UNL     1       6.006  -6.125  26.180  0.00  0.00    -0.262 N 
ATOM      7  H   UNL     1       5.596  -6.703  26.905  0.00  0.00    +0.190 HD
ATOM      8  N   UNL     1       5.462  -6.177  24.870  0.00  0.00    -0.261 N 
ATOM      9  H   UNL     1       4.660  -6.772  24.690  0.00  0.00    +0.190 HD
ATOM     10  C   UNL     1       5.962  -5.442  23.795  0.00  0.00    +0.291 A 
ATOM     11  O   UNL     1       5.451  -5.517  22.683  0.00  0.00    -0.264 OA
ATOM     12  O   UNL     1       7.552  -5.299  27.652  0.00  0.00    -0.264 OA
ATOM     13  C   UNL     1       7.110  -4.614  24.140  0.00  0.00    +0.160 A 
ATOM     14  N   UNL     1       7.849  -3.795  23.318  0.00  0.00    -0.227 NA
ENDROOT
BRANCH   1  15
ATOM     15  C   UNL     1       9.869  -2.336  23.661  0.00  0.00    +0.074 C 
BRANCH  15  16
ATOM     16  C   UNL     1       9.804  -1.014  24.426  0.00  0.00    +0.007 C 
BRANCH  16  18
ATOM     17  C   UNL     1      10.264   1.458  24.272  0.00  0.00    +0.004 C 
ATOM     18  C   UNL     1      10.587   0.084  23.707  0.00  0.00    -0.003 C 
ENDBRANCH  16  18
ENDBRANCH  15  16
ENDBRANCH   1  15
TORSDOF 3
ENDMDL
MODEL 8
REMARK VINA RESULT:      -5.1      2.982      5.747
REMARK  Name = 
REMARK  4 active torsions:
REMARK  status: ('A' for Active; 'I' for Inactive)
REMARK    1  A    between atoms: C_1  and  C_2
REMARK    2  A    between atoms: C_2  and  C_3
REMARK    3  A    between atoms: C_3  and  C_4
REMARK    4  A    between atoms: C_4  and  C_5
REMARK                            x       y       z     vdW  Elec       q    Type
REMARK                         _______ _______ _______ _____ _____    ______ ____
ROOT
ATOM      1  C   UNL     1       7.499  -2.153  23.084  0.00  0.00    +0.108 A 
ATOM      2  N   UNL     1       7.789  -2.025  24.423  0.00  0.00    -0.337 N 
ATOM      3  H   UNL     1       7.395  -2.568  25.181  0.00  0.00    +0.167 HD
ATOM      4  C   UNL     1       8.690  -1.008  24.550  0.00  0.00    +0.138 A 
ATOM      5  C   UNL     1       9.282  -0.466  25.728  0.00  0.00    +0.289 A 
ATOM      6  N   UNL     1      10.156   0.580  25.476  0.00  0.00    -0.262 N 
ATOM      7  H   UNL     1      10.602   1.030  26.268  0.00  0.00    +0.190 HD
ATOM      8  N   UNL     1      10.435   1.059  24.169  0.00  0.00    -0.261 N 
ATOM      9  H   UNL     1      11.090   1.823  24.050  0.00  0.00    +0.190 HD
ATOM     10  C   UNL     1       9.860   0.530  23.013  0.00  0.00    +0.291 A 
ATOM     11  O   UNL     1      10.139   0.975  21.905  0.00  0.00    -0.264 OA
ATOM     12  O   UNL     1       9.050  -0.867  26.863  0.00  0.00    -0.264 OA
ATOM     13  C   UNL     1       8.933  -0.564  23.272  0.00  0.00    +0.160 A 
ATOM     14  N   UNL     1       8.186  -1.282  22.367  0.00  0.00    -0.227 NA
ENDROOT
BRANCH   1  15
ATOM     15  C   UNL     1       6.507  -3.143  22.571  0.00  0.00    +0.074 C 
BRANCH  15  16
ATOM     16  C   UNL     1       6.603  -4.473  23.319  0.00  0.00    +0.007 C 
BRANCH  16  18
ATOM     17  C   UNL     1       6.471  -5.758  21.157  0.00  0.00    +0.004 C 
ATOM     18  C   UNL     1       7.244  -5.555  22.450  0.00  0.00    -0.003 C 
ENDBRANCH  16  18
ENDBRANCH  15  16
ENDBRANCH   1  15
TORSDOF 3
ENDMDL
MODEL 9
REMARK VINA RESULT:      -5.1      2.871      5.321
REMARK  Name = 
REMARK  4 active torsions:
REMARK  status: ('A' for Active; 'I' for Inactive)
REMARK    1  A    between atoms: C_1  and  C_2
REMARK    2  A    between atoms: C_2  and  C_3
REMARK    3  A    between atoms: C_3  and  C_4
REMARK    4  A    between atoms: C_4  and  C_5
REMARK                            x       y       z     vdW  Elec       q    Type
REMARK                         _______ _______ _______ _____ _____    ______ ____
ROOT
ATOM      1  C   UNL     1       7.334  -2.667  23.521  0.00  0.00    +0.108 A 
ATOM      2  N   UNL     1       8.045  -1.881  22.644  0.00  0.00    -0.337 N 
ATOM      3  H   UNL     1       8.018  -1.927  21.633  0.00  0.00    +0.167 HD
ATOM      4  C   UNL     1       8.820  -1.039  23.387  0.00  0.00    +0.138 A 
ATOM      5  C   UNL     1       9.754  -0.053  22.956  0.00  0.00    +0.289 A 
ATOM      6  N   UNL     1      10.375   0.615  24.001  0.00  0.00    -0.262 N 
ATOM      7  H   UNL     1      11.068   1.318  23.772  0.00  0.00    +0.190 HD
ATOM      8  N   UNL     1      10.100   0.342  25.366  0.00  0.00    -0.261 N 
ATOM      9  H   UNL     1      10.582   0.871  26.084  0.00  0.00    +0.190 HD
ATOM     10  C   UNL     1       9.184  -0.620  25.793  0.00  0.00    +0.291 A 
ATOM     11  O   UNL     1       8.976  -0.814  26.986  0.00  0.00    -0.264 OA
ATOM     12  O   UNL     1      10.005   0.193  21.781  0.00  0.00    -0.264 OA
ATOM     13  C   UNL     1       8.535  -1.332  24.700  0.00  0.00    +0.160 A 
ATOM     14  N   UNL     1       7.610  -2.347  24.772  0.00  0.00    -0.227 NA
ENDROOT
BRANCH   1  15
ATOM     15  C   UNL     1       6.409  -3.745  23.061  0.00  0.00    +0.074 C 
BRANCH  15  16
ATOM     16  C   UNL     1       6.976  -5.134  23.353  0.00  0.00    +0.007 C 
BRANCH  16  18
ATOM     17  C   UNL     1       6.211  -5.688  21.018  0.00  0.00    +0.004 C 
ATOM     18  C   UNL     1       7.298  -5.886  22.062  0.00  0.00    -0.003 C 
ENDBRANCH  16  18
ENDBRANCH  15  16
ENDBRANCH   1  15
TORSDOF 3
ENDMDL
