MODEL 1
REMARK VINA RESULT:      -6.6      0.000      0.000
REMARK  Name = 
REMARK  7 active torsions:
REMARK  status: ('A' for Active; 'I' for Inactive)
REMARK    1  A    between atoms: CA_2  and  N_3
REMARK    2  A    between atoms: CA_2  and  C_4
REMARK    3  A    between atoms: CA_2  and  C_19
REMARK    4  A    between atoms: C_4  and  C_5
REMARK    5  A    between atoms: C_8  and  C_11
REMARK    6  A    between atoms: C_11  and  C_13
REMARK    7  A    between atoms: C_19  and  O_20
REMARK                            x       y       z     vdW  Elec       q    Type
REMARK                         _______ _______ _______ _____ _____    ______ ____
ROOT
ATOM      1  C   UNL     1       9.294  -2.416  24.231  0.00  0.00    -0.045 A 
ATOM      2  C   UNL     1      10.000  -1.997  23.093  0.00  0.00    +0.004 A 
ATOM      3  C   UNL     1      10.338  -0.652  22.915  0.00  0.00    +0.012 A 
ATOM      4  C   UNL     1       9.947   0.300  23.861  0.00  0.00    +0.022 A 
ATOM      5  C   UNL     1       9.343  -0.126  25.046  0.00  0.00    +0.012 A 
ATOM      6  C   UNL     1       9.038  -1.477  25.237  0.00  0.00    +0.004 A 
ENDROOT
BRANCH   4   7
ATOM      7  C   UNL     1      10.159   1.761  23.664  0.00  0.00    +0.193 C 
ATOM      8  O   UNL     1      11.267   2.237  23.902  0.00  0.00    -0.287 OA
BRANCH   7   9
ATOM      9  C   UNL     1       9.072   2.665  23.194  0.00  0.00    +0.022 A 
ATOM     10  C   UNL     1       8.066   2.248  22.312  0.00  0.00    +0.012 A 
ATOM     11  C   UNL     1       7.107   3.158  21.860  0.00  0.00    +0.001 A 
ATOM     12  C   UNL     1       7.125   4.476  22.316  0.00  0.00    +0.000 A 
ATOM     13  C   UNL     1       8.087   4.882  23.239  0.00  0.00    +0.001 A 
ATOM     14  C   UNL     1       9.056   3.979  23.679  0.00  0.00    +0.012 A 
ENDBRANCH   7   9
ENDBRANCH   4   7
BRANCH   1  15
ATOM     15  C   UNL     1       8.849  -3.860  24.331  0.00  0.00    +0.065 C 
BRANCH  15  16
ATOM     16  CA  UNL     1       9.149  -4.602  25.651  0.00  0.00    +0.165 C 
BRANCH  16  17
ATOM     17  N   UNL     1      10.281  -5.540  25.438  0.00  0.00    -0.318 NA
ATOM     18  H1  UNL     1      11.113  -5.092  25.062  0.00  0.00    +0.119 HD
ATOM     19  H2  UNL     1      10.454  -6.171  26.216  0.00  0.00    +0.119 HD
ENDBRANCH  16  17
BRANCH  16  20
ATOM     20  C   UNL     1       7.896  -5.331  26.196  0.00  0.00    +0.322 C 
ATOM     21  OXT UNL     1       6.840  -5.458  25.598  0.00  0.00    -0.249 OA
BRANCH  20  22
ATOM     22  O   UNL     1       8.050  -5.821  27.451  0.00  0.00    -0.480 OA
ATOM     23  H   UNL     1       8.074  -5.095  28.098  0.00  0.00    +0.295 HD
ENDBRANCH  20  22
ENDBRANCH  16  20
ENDBRANCH  15  16
ENDBRANCH   1  15
TORSDOF 7
ENDMDL
MODEL 2
REMARK VINA RESULT:      -6.6      2.958      7.287
REMARK  Name = 
REMARK  7 active torsions:
REMARK  status: ('A' for Active; 'I' for Inactive)
REMARK    1  A    between atoms: CA_2  and  N_3
REMARK    2  A    between atoms: CA_2  and  C_4
REMARK    3  A    between atoms: CA_2  and  C_19
REMARK    4  A    between atoms: C_4  and  C_5
REMARK    5  A    between atoms: C_8  and  C_11
REMARK    6  A    between atoms: C_11  and  C_13
REMARK    7  A    between atoms: C_19  and  O_20
REMARK                            x       y       z     vdW  Elec       q    Type
REMARK                         _______ _______ _______ _____ _____    ______ ____
ROOT
ATOM      1  C   UNL     1       9.867   0.016  24.225  0.00  0.00    -0.045 A 
ATOM      2  C   UNL     1      10.317  -0.848  23.215  0.00  0.00    +0.004 A 
ATOM      3  C   UNL     1      10.033  -2.216  23.266  0.00  0.00    +0.012 A 
ATOM      4  C   UNL     1       9.320  -2.745  24.345  0.00  0.00    +0.022 A 
ATOM      5  C   UNL     1       8.776  -1.875  25.293  0.00  0.00    +0.012 A 
ATOM      6  C   UNL     1       9.031  -0.503  25.221  0.00  0.00    +0.004 A 
ENDROOT
BRANCH   4   7
ATOM      7  C   UNL     1       9.102  -4.207  24.525  0.00  0.00    +0.193 C 
ATOM      8  O   UNL     1      10.021  -4.893  24.970  0.00  0.00    -0.287 OA
BRANCH   7   9
ATOM      9  C   UNL     1       7.812  -4.867  24.179  0.00  0.00    +0.022 A 
ATOM     10  C   UNL     1       7.507  -5.307  22.885  0.00  0.00    +0.012 A 
ATOM     11  C   UNL     1       6.256  -5.866  22.609  0.00  0.00    +0.001 A 
ATOM     12  C   UNL     1       5.321  -6.024  23.631  0.00  0.00    +0.000 A 
ATOM     13  C   UNL     1       5.640  -5.643  24.933  0.00  0.00    +0.001 A 
ATOM     14  C   UNL     1       6.883  -5.069  25.208  0.00  0.00    +0.012 A 
ENDBRANCH   7   9
ENDBRANCH   4   7
BRANCH   1  15
ATOM     15  C   UNL     1      10.292   1.470  24.193  0.00  0.00    +0.065 C 
BRANCH  15  16
ATOM     16  CA  UNL     1      10.297   2.174  22.819  0.00  0.00    +0.165 C 
BRANCH  16  17
ATOM     17  N   UNL     1      10.895   3.525  22.964  0.00  0.00    -0.318 NA
ATOM     18  H1  UNL     1      10.811   4.097  22.127  0.00  0.00    +0.119 HD
ATOM     19  H2  UNL     1      10.652   4.001  23.828  0.00  0.00    +0.119 HD
ENDBRANCH  16  17
BRANCH  16  20
ATOM     20  C   UNL     1       8.878   2.239  22.203  0.00  0.00    +0.322 C 
ATOM     21  OXT UNL     1       7.925   2.824  22.691  0.00  0.00    -0.249 OA
BRANCH  20  22
ATOM     22  O   UNL     1       8.753   1.548  21.042  0.00  0.00    -0.480 OA
ATOM     23  H   UNL     1       9.349   0.780  21.039  0.00  0.00    +0.295 HD
ENDBRANCH  20  22
ENDBRANCH  16  20
ENDBRANCH  15  16
ENDBRANCH   1  15
TORSDOF 7
ENDMDL
MODEL 3
REMARK VINA RESULT:      -6.5      2.710      7.541
REMARK  Name = 
REMARK  7 active torsions:
REMARK  status: ('A' for Active; 'I' for Inactive)
REMARK    1  A    between atoms: CA_2  and  N_3
REMARK    2  A    between atoms: CA_2  and  C_4
REMARK    3  A    between atoms: CA_2  and  C_19
REMARK    4  A    between atoms: C_4  and  C_5
REMARK    5  A    between atoms: C_8  and  C_11
REMARK    6  A    between atoms: C_11  and  C_13
REMARK    7  A    between atoms: C_19  and  O_20
REMARK                            x       y       z     vdW  Elec       q    Type
REMARK                         _______ _______ _______ _____ _____    ______ ____
ROOT
ATOM      1  C   UNL     1      10.064  -0.018  24.089  0.00  0.00    -0.045 A 
ATOM      2  C   UNL     1      10.416  -0.917  23.070  0.00  0.00    +0.004 A 
ATOM      3  C   UNL     1      10.067  -2.268  23.157  0.00  0.00    +0.012 A 
ATOM      4  C   UNL     1       9.388  -2.747  24.281  0.00  0.00    +0.022 A 
ATOM      5  C   UNL     1       8.939  -1.838  25.243  0.00  0.00    +0.012 A 
ATOM      6  C   UNL     1       9.258  -0.482  25.136  0.00  0.00    +0.004 A 
ENDROOT
BRANCH   4   7
ATOM      7  C   UNL     1       9.108  -4.193  24.494  0.00  0.00    +0.193 C 
ATOM      8  O   UNL     1      10.012  -4.918  24.906  0.00  0.00    -0.287 OA
BRANCH   7   9
ATOM      9  C   UNL     1       7.771  -4.793  24.222  0.00  0.00    +0.022 A 
ATOM     10  C   UNL     1       6.793  -4.950  25.212  0.00  0.00    +0.012 A 
ATOM     11  C   UNL     1       5.581  -5.574  24.910  0.00  0.00    +0.001 A 
ATOM     12  C   UNL     1       5.323  -6.008  23.610  0.00  0.00    +0.000 A 
ATOM     13  C   UNL     1       6.267  -5.801  22.606  0.00  0.00    +0.001 A 
ATOM     14  C   UNL     1       7.487  -5.193  22.910  0.00  0.00    +0.012 A 
ENDBRANCH   7   9
ENDBRANCH   4   7
BRANCH   1  15
ATOM     15  C   UNL     1      10.557   1.412  24.012  0.00  0.00    +0.065 C 
BRANCH  15  16
ATOM     16  CA  UNL     1       9.712   2.408  23.188  0.00  0.00    +0.165 C 
BRANCH  16  17
ATOM     17  N   UNL     1      10.020   2.236  21.746  0.00  0.00    -0.318 NA
ATOM     18  H1  UNL     1      10.673   1.479  21.560  0.00  0.00    +0.119 HD
ATOM     19  H2  UNL     1       9.206   2.253  21.138  0.00  0.00    +0.119 HD
ENDBRANCH  16  17
BRANCH  16  20
ATOM     20  C   UNL     1       9.935   3.868  23.652  0.00  0.00    +0.322 C 
ATOM     21  OXT UNL     1       9.141   4.531  24.298  0.00  0.00    -0.249 OA
BRANCH  20  22
ATOM     22  O   UNL     1      11.120   4.394  23.254  0.00  0.00    -0.480 OA
ATOM     23  H   UNL     1      11.859   3.918  23.670  0.00  0.00    +0.295 HD
ENDBRANCH  20  22
ENDBRANCH  16  20
ENDBRANCH  15  16
ENDBRANCH   1  15
TORSDOF 7
ENDMDL
MODEL 4
REMARK VINA RESULT:      -6.5      2.435      3.577
REMARK  Name = 
REMARK  7 active torsions:
REMARK  status: ('A' for Active; 'I' for Inactive)
REMARK    1  A    between atoms: CA_2  and  N_3
REMARK    2  A    between atoms: CA_2  and  C_4
REMARK    3  A    between atoms: CA_2  and  C_19
REMARK    4  A    between atoms: C_4  and  C_5
REMARK    5  A    between atoms: C_8  and  C_11
REMARK    6  A    between atoms: C_11  and  C_13
REMARK    7  A    between atoms: C_19  and  O_20
REMARK                            x       y       z     vdW  Elec       q    Type
REMARK                         _______ _______ _______ _____ _____    ______ ____
ROOT
ATOM      1  C   UNL     1      10.140  -0.352  23.071  0.00  0.00    -0.045 A 
ATOM      2  C   UNL     1       9.757   0.365  21.927  0.00  0.00    +0.004 A 
ATOM      3  C   UNL     1       9.533   1.744  21.988  0.00  0.00    +0.012 A 
ATOM      4  C   UNL     1       9.661   2.422  23.204  0.00  0.00    +0.022 A 
ATOM      5  C   UNL     1      10.149   1.734  24.318  0.00  0.00    +0.012 A 
ATOM      6  C   UNL     1      10.405   0.363  24.245  0.00  0.00    +0.004 A 
ENDROOT
BRANCH   4   7
ATOM      7  C   UNL     1       9.308   3.859  23.362  0.00  0.00    +0.193 C 
ATOM      8  O   UNL     1       8.168   4.225  23.078  0.00  0.00    -0.287 OA
BRANCH   7   9
ATOM      9  C   UNL     1      10.288   4.870  23.849  0.00  0.00    +0.022 A 
ATOM     10  C   UNL     1      11.631   4.878  23.451  0.00  0.00    +0.012 A 
ATOM     11  C   UNL     1      12.518   5.815  23.988  0.00  0.00    +0.001 A 
ATOM     12  C   UNL     1      12.059   6.772  24.892  0.00  0.00    +0.000 A 
ATOM     13  C   UNL     1      10.712   6.808  25.247  0.00  0.00    +0.001 A 
ATOM     14  C   UNL     1       9.827   5.861  24.725  0.00  0.00    +0.012 A 
ENDBRANCH   7   9
ENDBRANCH   4   7
BRANCH   1  15
ATOM     15  C   UNL     1      10.262  -1.860  22.988  0.00  0.00    +0.065 C 
BRANCH  15  16
ATOM     16  CA  UNL     1       9.264  -2.695  23.819  0.00  0.00    +0.165 C 
BRANCH  16  17
ATOM     17  N   UNL     1       9.971  -3.863  24.403  0.00  0.00    -0.318 NA
ATOM     18  H1  UNL     1       9.899  -4.705  23.836  0.00  0.00    +0.119 HD
ATOM     19  H2  UNL     1      10.907  -3.659  24.742  0.00  0.00    +0.119 HD
ENDBRANCH  16  17
BRANCH  16  20
ATOM     20  C   UNL     1       8.040  -3.130  22.974  0.00  0.00    +0.322 C 
ATOM     21  OXT UNL     1       7.540  -2.478  22.073  0.00  0.00    -0.249 OA
BRANCH  20  22
ATOM     22  O   UNL     1       7.523  -4.330  23.337  0.00  0.00    -0.480 OA
ATOM     23  H   UNL     1       8.176  -4.841  23.845  0.00  0.00    +0.295 HD
ENDBRANCH  20  22
ENDBRANCH  16  20
ENDBRANCH  15  16
ENDBRANCH   1  15
TORSDOF 7
ENDMDL
MODEL 5
REMARK VINA RESULT:      -6.4      3.204      4.908
REMARK  Name = 
REMARK  7 active torsions:
REMARK  status: ('A' for Active; 'I' for Inactive)
REMARK    1  A    between atoms: CA_2  and  N_3
REMARK    2  A    between atoms: CA_2  and  C_4
REMARK    3  A    between atoms: CA_2  and  C_19
REMARK    4  A    between atoms: C_4  and  C_5
REMARK    5  A    between atoms: C_8  and  C_11
REMARK    6  A    between atoms: C_11  and  C_13
REMARK    7  A    between atoms: C_19  and  O_20
REMARK                            x       y       z     vdW  Elec       q    Type
REMARK                         _______ _______ _______ _____ _____    ______ ____
ROOT
ATOM      1  C   UNL     1       5.476  -4.883  23.738  0.00  0.00    -0.045 A 
ATOM      2  C   UNL     1       5.586  -3.605  24.309  0.00  0.00    +0.004 A 
ATOM      3  C   UNL     1       6.798  -2.909  24.274  0.00  0.00    +0.012 A 
ATOM      4  C   UNL     1       7.927  -3.493  23.694  0.00  0.00    +0.022 A 
ATOM      5  C   UNL     1       7.794  -4.715  23.028  0.00  0.00    +0.012 A 
ATOM      6  C   UNL     1       6.573  -5.393  23.033  0.00  0.00    +0.004 A 
ENDROOT
BRANCH   4   7
ATOM      7  C   UNL     1       9.274  -2.861  23.744  0.00  0.00    +0.193 C 
ATOM      8  O   UNL     1      10.205  -3.489  24.245  0.00  0.00    -0.287 OA
BRANCH   7   9
ATOM      9  C   UNL     1       9.531  -1.493  23.213  0.00  0.00    +0.022 A 
ATOM     10  C   UNL     1      10.100  -0.473  23.986  0.00  0.00    +0.012 A 
ATOM     11  C   UNL     1      10.262   0.807  23.451  0.00  0.00    +0.001 A 
ATOM     12  C   UNL     1       9.894   1.064  22.130  0.00  0.00    +0.000 A 
ATOM     13  C   UNL     1       9.383   0.039  21.337  0.00  0.00    +0.001 A 
ATOM     14  C   UNL     1       9.204  -1.238  21.875  0.00  0.00    +0.012 A 
ENDBRANCH   7   9
ENDBRANCH   4   7
BRANCH   1  15
ATOM     15  C   UNL     1       4.179  -5.650  23.896  0.00  0.00    +0.065 C 
BRANCH  15  16
ATOM     16  CA  UNL     1       4.267  -7.070  24.496  0.00  0.00    +0.165 C 
BRANCH  16  17
ATOM     17  N   UNL     1       3.076  -7.852  24.079  0.00  0.00    -0.318 NA
ATOM     18  H1  UNL     1       2.197  -7.452  24.399  0.00  0.00    +0.119 HD
ATOM     19  H2  UNL     1       3.081  -8.136  23.103  0.00  0.00    +0.119 HD
ENDBRANCH  16  17
BRANCH  16  20
ATOM     20  C   UNL     1       4.418  -7.032  26.036  0.00  0.00    +0.322 C 
ATOM     21  OXT UNL     1       5.449  -6.777  26.637  0.00  0.00    -0.249 OA
BRANCH  20  22
ATOM     22  O   UNL     1       3.279  -7.340  26.705  0.00  0.00    -0.480 OA
ATOM     23  H   UNL     1       2.669  -7.831  26.128  0.00  0.00    +0.295 HD
ENDBRANCH  20  22
ENDBRANCH  16  20
ENDBRANCH  15  16
ENDBRANCH   1  15
TORSDOF 7
ENDMDL
MODEL 6
REMARK VINA RESULT:      -6.3      2.816      3.794
REMARK  Name = 
REMARK  7 active torsions:
REMARK  status: ('A' for Active; 'I' for Inactive)
REMARK    1  A    between atoms: CA_2  and  N_3
REMARK    2  A    between atoms: CA_2  and  C_4
REMARK    3  A    between atoms: CA_2  and  C_19
REMARK    4  A    between atoms: C_4  and  C_5
REMARK    5  A    between atoms: C_8  and  C_11
REMARK    6  A    between atoms: C_11  and  C_13
REMARK    7  A    between atoms: C_19  and  O_20
REMARK                            x       y       z     vdW  Elec       q    Type
REMARK                         _______ _______ _______ _____ _____    ______ ____
ROOT
ATOM      1  C   UNL     1       6.849  -4.277  24.345  0.00  0.00    -0.045 A 
ATOM      2  C   UNL     1       8.217  -4.543  24.506  0.00  0.00    +0.004 A 
ATOM      3  C   UNL     1       9.179  -3.609  24.110  0.00  0.00    +0.012 A 
ATOM      4  C   UNL     1       8.787  -2.405  23.518  0.00  0.00    +0.022 A 
ATOM      5  C   UNL     1       7.427  -2.088  23.458  0.00  0.00    +0.012 A 
ATOM      6  C   UNL     1       6.468  -3.010  23.888  0.00  0.00    +0.004 A 
ENDROOT
BRANCH   4   7
ATOM      7  C   UNL     1       9.762  -1.432  22.955  0.00  0.00    +0.193 C 
ATOM      8  O   UNL     1      10.776  -1.859  22.405  0.00  0.00    -0.287 OA
BRANCH   7   9
ATOM      9  C   UNL     1       9.553   0.041  23.038  0.00  0.00    +0.022 A 
ATOM     10  C   UNL     1       9.156   0.815  21.939  0.00  0.00    +0.012 A 
ATOM     11  C   UNL     1       9.034   2.201  22.064  0.00  0.00    +0.001 A 
ATOM     12  C   UNL     1       9.268   2.815  23.294  0.00  0.00    +0.000 A 
ATOM     13  C   UNL     1       9.605   2.045  24.405  0.00  0.00    +0.001 A 
ATOM     14  C   UNL     1       9.744   0.661  24.279  0.00  0.00    +0.012 A 
ENDBRANCH   7   9
ENDBRANCH   4   7
BRANCH   1  15
ATOM     15  C   UNL     1       5.844  -5.359  24.682  0.00  0.00    +0.065 C 
BRANCH  15  16
ATOM     16  CA  UNL     1       4.961  -5.886  23.530  0.00  0.00    +0.165 C 
BRANCH  16  17
ATOM     17  N   UNL     1       4.450  -7.234  23.883  0.00  0.00    -0.318 NA
ATOM     18  H1  UNL     1       4.283  -7.356  24.879  0.00  0.00    +0.119 HD
ATOM     19  H2  UNL     1       3.701  -7.569  23.283  0.00  0.00    +0.119 HD
ENDBRANCH  16  17
BRANCH  16  20
ATOM     20  C   UNL     1       5.725  -5.896  22.183  0.00  0.00    +0.322 C 
ATOM     21  OXT UNL     1       5.592  -5.074  21.292  0.00  0.00    -0.249 OA
BRANCH  20  22
ATOM     22  O   UNL     1       6.574  -6.944  22.044  0.00  0.00    -0.480 OA
ATOM     23  H   UNL     1       7.026  -7.128  22.885  0.00  0.00    +0.295 HD
ENDBRANCH  20  22
ENDBRANCH  16  20
ENDBRANCH  15  16
ENDBRANCH   1  15
TORSDOF 7
ENDMDL
MODEL 7
REMARK VINA RESULT:      -6.1      2.834      7.492
REMARK  Name = 
REMARK  7 active torsions:
REMARK  status: ('A' for Active; 'I' for Inactive)
REMARK    1  A    between atoms: CA_2  and  N_3
REMARK    2  A    between atoms: CA_2  and  C_4
REMARK    3  A    between atoms: CA_2  and  C_19
REMARK    4  A    between atoms: C_4  and  C_5
REMARK    5  A    between atoms: C_8  and  C_11
REMARK    6  A    between atoms: C_11  and  C_13
REMARK    7  A    between atoms: C_19  and  O_20
REMARK                            x       y       z     vdW  Elec       q    Type
REMARK                         _______ _______ _______ _____ _____    ______ ____
ROOT
ATOM      1  C   UNL     1       9.121  -1.237  22.908  0.00  0.00    -0.045 A 
ATOM      2  C   UNL     1       9.967  -2.233  23.419  0.00  0.00    +0.004 A 
ATOM      3  C   UNL     1       9.470  -3.230  24.263  0.00  0.00    +0.012 A 
ATOM      4  C   UNL     1       8.122  -3.228  24.635  0.00  0.00    +0.022 A 
ATOM      5  C   UNL     1       7.255  -2.306  24.042  0.00  0.00    +0.012 A 
ATOM      6  C   UNL     1       7.749  -1.331  23.170  0.00  0.00    +0.004 A 
ENDROOT
BRANCH   4   7
ATOM      7  C   UNL     1       7.563  -4.179  25.633  0.00  0.00    +0.193 C 
ATOM      8  O   UNL     1       8.002  -4.159  26.782  0.00  0.00    -0.287 OA
BRANCH   7   9
ATOM      9  C   UNL     1       6.493  -5.156  25.288  0.00  0.00    +0.022 A 
ATOM     10  C   UNL     1       6.118  -5.436  23.967  0.00  0.00    +0.012 A 
ATOM     11  C   UNL     1       5.066  -6.318  23.707  0.00  0.00    +0.001 A 
ATOM     12  C   UNL     1       4.412  -6.956  24.762  0.00  0.00    +0.000 A 
ATOM     13  C   UNL     1       4.820  -6.728  26.075  0.00  0.00    +0.001 A 
ATOM     14  C   UNL     1       5.859  -5.833  26.337  0.00  0.00    +0.012 A 
ENDBRANCH   7   9
ENDBRANCH   4   7
BRANCH   1  15
ATOM     15  C   UNL     1       9.720  -0.111  22.090  0.00  0.00    +0.065 C 
BRANCH  15  16
ATOM     16  CA  UNL     1       9.599   1.318  22.660  0.00  0.00    +0.165 C 
BRANCH  16  17
ATOM     17  N   UNL     1      10.255   2.273  21.731  0.00  0.00    -0.318 NA
ATOM     18  H1  UNL     1      11.268   2.293  21.820  0.00  0.00    +0.119 HD
ATOM     19  H2  UNL     1       9.914   2.227  20.774  0.00  0.00    +0.119 HD
ENDBRANCH  16  17
BRANCH  16  20
ATOM     20  C   UNL     1      10.186   1.415  24.090  0.00  0.00    +0.322 C 
ATOM     21  OXT UNL     1      11.302   1.048  24.419  0.00  0.00    -0.249 OA
BRANCH  20  22
ATOM     22  O   UNL     1       9.328   1.939  25.000  0.00  0.00    -0.480 OA
ATOM     23  H   UNL     1       8.587   1.329  25.158  0.00  0.00    +0.295 HD
ENDBRANCH  20  22
ENDBRANCH  16  20
ENDBRANCH  15  16
ENDBRANCH   1  15
TORSDOF 7
ENDMDL
MODEL 8
REMARK VINA RESULT:      -6.1      2.224      3.009
REMARK  Name = 
REMARK  7 active torsions:
REMARK  status: ('A' for Active; 'I' for Inactive)
REMARK    1  A    between atoms: CA_2  and  N_3
REMARK    2  A    between atoms: CA_2  and  C_4
REMARK    3  A    between atoms: CA_2  and  C_19
REMARK    4  A    between atoms: C_4  and  C_5
REMARK    5  A    between atoms: C_8  and  C_11
REMARK    6  A    between atoms: C_11  and  C_13
REMARK    7  A    between atoms: C_19  and  O_20
REMARK                            x       y       z     vdW  Elec       q    Type
REMARK                         _______ _______ _______ _____ _____    ______ ____
ROOT
ATOM      1  C   UNL     1       9.904  -0.371  22.636  0.00  0.00    -0.045 A 
ATOM      2  C   UNL     1       9.656   0.619  21.673  0.00  0.00    +0.004 A 
ATOM      3  C   UNL     1       9.983   1.956  21.920  0.00  0.00    +0.012 A 
ATOM      4  C   UNL     1      10.537   2.327  23.148  0.00  0.00    +0.022 A 
ATOM      5  C   UNL     1      10.889   1.332  24.065  0.00  0.00    +0.012 A 
ATOM      6  C   UNL     1      10.592  -0.007  23.801  0.00  0.00    +0.004 A 
ENDROOT
BRANCH   4   7
ATOM      7  C   UNL     1      10.783   3.747  23.522  0.00  0.00    +0.193 C 
ATOM      8  O   UNL     1      11.930   4.187  23.458  0.00  0.00    -0.287 OA
BRANCH   7   9
ATOM      9  C   UNL     1       9.688   4.651  23.975  0.00  0.00    +0.022 A 
ATOM     10  C   UNL     1       9.635   6.009  23.634  0.00  0.00    +0.012 A 
ATOM     11  C   UNL     1       8.615   6.820  24.138  0.00  0.00    +0.001 A 
ATOM     12  C   UNL     1       7.623   6.271  24.950  0.00  0.00    +0.000 A 
ATOM     13  C   UNL     1       7.636   4.909  25.244  0.00  0.00    +0.001 A 
ATOM     14  C   UNL     1       8.664   4.100  24.756  0.00  0.00    +0.012 A 
ENDBRANCH   7   9
ENDBRANCH   4   7
BRANCH   1  15
ATOM     15  C   UNL     1       9.432  -1.786  22.376  0.00  0.00    +0.065 C 
BRANCH  15  16
ATOM     16  CA  UNL     1       8.793  -2.546  23.558  0.00  0.00    +0.165 C 
BRANCH  16  17
ATOM     17  N   UNL     1       9.815  -3.420  24.188  0.00  0.00    -0.318 NA
ATOM     18  H1  UNL     1       9.809  -4.372  23.830  0.00  0.00    +0.119 HD
ATOM     19  H2  UNL     1      10.738  -3.001  24.261  0.00  0.00    +0.119 HD
ENDBRANCH  16  17
BRANCH  16  20
ATOM     20  C   UNL     1       7.546  -3.350  23.115  0.00  0.00    +0.322 C 
ATOM     21  OXT UNL     1       6.534  -2.870  22.631  0.00  0.00    -0.249 OA
BRANCH  20  22
ATOM     22  O   UNL     1       7.650  -4.685  23.331  0.00  0.00    -0.480 OA
ATOM     23  H   UNL     1       7.497  -5.175  22.505  0.00  0.00    +0.295 HD
ENDBRANCH  20  22
ENDBRANCH  16  20
ENDBRANCH  15  16
ENDBRANCH   1  15
TORSDOF 7
ENDMDL
MODEL 9
REMARK VINA RESULT:      -5.9      3.409      7.567
REMARK  Name = 
REMARK  7 active torsions:
REMARK  status: ('A' for Active; 'I' for Inactive)
REMARK    1  A    between atoms: CA_2  and  N_3
REMARK    2  A    between atoms: CA_2  and  C_4
REMARK    3  A    between atoms: CA_2  and  C_19
REMARK    4  A    between atoms: C_4  and  C_5
REMARK    5  A    between atoms: C_8  and  C_11
REMARK    6  A    between atoms: C_11  and  C_13
REMARK    7  A    between atoms: C_19  and  O_20
REMARK                            x       y       z     vdW  Elec       q    Type
REMARK                         _______ _______ _______ _____ _____    ______ ____
ROOT
ATOM      1  C   UNL     1       9.095   1.953  24.525  0.00  0.00    -0.045 A 
ATOM      2  C   UNL     1       8.005   1.087  24.702  0.00  0.00    +0.004 A 
ATOM      3  C   UNL     1       8.164  -0.297  24.578  0.00  0.00    +0.012 A 
ATOM      4  C   UNL     1       9.410  -0.833  24.244  0.00  0.00    +0.022 A 
ATOM      5  C   UNL     1      10.519   0.014  24.176  0.00  0.00    +0.012 A 
ATOM      6  C   UNL     1      10.365   1.394  24.335  0.00  0.00    +0.004 A 
ENDROOT
BRANCH   4   7
ATOM      7  C   UNL     1       9.613  -2.282  23.966  0.00  0.00    +0.193 C 
ATOM      8  O   UNL     1      10.535  -2.620  23.226  0.00  0.00    -0.287 OA
BRANCH   7   9
ATOM      9  C   UNL     1       8.734  -3.334  24.550  0.00  0.00    +0.022 A 
ATOM     10  C   UNL     1       7.769  -4.019  23.801  0.00  0.00    +0.012 A 
ATOM     11  C   UNL     1       6.934  -4.954  24.418  0.00  0.00    +0.001 A 
ATOM     12  C   UNL     1       7.085  -5.237  25.775  0.00  0.00    +0.000 A 
ATOM     13  C   UNL     1       8.083  -4.603  26.513  0.00  0.00    +0.001 A 
ATOM     14  C   UNL     1       8.907  -3.656  25.902  0.00  0.00    +0.012 A 
ENDBRANCH   7   9
ENDBRANCH   4   7
BRANCH   1  15
ATOM     15  C   UNL     1       8.859   3.449  24.556  0.00  0.00    +0.065 C 
BRANCH  15  16
ATOM     16  CA  UNL     1       8.878   4.195  23.204  0.00  0.00    +0.165 C 
BRANCH  16  17
ATOM     17  N   UNL     1       9.645   5.458  23.354  0.00  0.00    -0.318 NA
ATOM     18  H1  UNL     1       9.230   6.107  24.018  0.00  0.00    +0.119 HD
ATOM     19  H2  UNL     1      10.648   5.330  23.456  0.00  0.00    +0.119 HD
ENDBRANCH  16  17
BRANCH  16  20
ATOM     20  C   UNL     1       7.447   4.453  22.673  0.00  0.00    +0.322 C 
ATOM     21  OXT UNL     1       6.436   3.901  23.076  0.00  0.00    -0.249 OA
BRANCH  20  22
ATOM     22  O   UNL     1       7.392   5.360  21.667  0.00  0.00    -0.480 OA
ATOM     23  H   UNL     1       8.051   5.149  20.984  0.00  0.00    +0.295 HD
ENDBRANCH  20  22
ENDBRANCH  16  20
ENDBRANCH  15  16
ENDBRANCH   1  15
TORSDOF 7
ENDMDL
