MODEL 1
REMARK VINA RESULT:      -7.5      0.000      0.000
REMARK  Name = 
REMARK  19 active torsions:
REMARK  status: ('A' for Active; 'I' for Inactive)
REMARK    1  A    between atoms: N_10  and  C_11
REMARK    2  A    between atoms: C_14  and  C_16
REMARK    3  A    between atoms: C_16  and  O_17
REMARK    4  A    between atoms: O_17  and  P_18
REMARK    5  A    between atoms: P_18  and  O_19
REMARK    6  A    between atoms: P_18  and  C_21
REMARK    7  A    between atoms: C_21  and  P_22
REMARK    8  A    between atoms: P_22  and  O_23
REMARK    9  A    between atoms: P_22  and  O_25
REMARK   10  A    between atoms: O_25  and  P_26
REMARK   11  A    between atoms: P_26  and  S_27
REMARK   12  A    between atoms: P_26  and  O_29
REMARK   13  A    between atoms: O_29  and  C_30
REMARK   14  A    between atoms: C_30  and  C_31
REMARK   15  A    between atoms: C_34  and  N_42
REMARK   16  A    between atoms: C_36  and  O_38
REMARK   17  A    between atoms: C_39  and  O_41
REMARK   18  A    between atoms: C_52  and  O_54
REMARK   19  A    between atoms: C_55  and  O_57
REMARK                            x       y       z     vdW  Elec       q    Type
REMARK                         _______ _______ _______ _____ _____    ______ ____
ROOT
ATOM      1  P   UNL     1       4.168  -6.726  25.814  0.00  0.00    +0.349 P 
ATOM      2  O   UNL     1       2.666  -6.547  26.040  0.00  0.00    -0.258 OA
ENDROOT
BRANCH   1   3
ATOM      3  O   UNL     1       3.811  -7.994  24.692  0.00  0.00    -0.323 OA
ATOM      4  H   UNL     1       3.333  -8.710  25.159  0.00  0.00    +0.220 HD
ENDBRANCH   1   3
BRANCH   1   5
ATOM      5  O   UNL     1       4.524  -5.459  26.937  0.00  0.00    -0.222 OA
BRANCH   5   6
ATOM      6  P   UNL     1       5.562  -6.158  28.132  0.00  0.00    +0.395 P 
ATOM      7  O   UNL     1       6.019  -5.026  29.065  0.00  0.00    -0.246 OA
BRANCH   6   8
ATOM      8  S   UNL     1       3.910  -6.368  29.444  0.00  0.00    -0.058 S 
ATOM      9  H   UNL     1       3.475  -7.500  28.876  0.00  0.00    +0.114 HD
ENDBRANCH   6   8
BRANCH   6  10
ATOM     10  O   UNL     1       6.910  -5.986  27.061  0.00  0.00    -0.297 OA
BRANCH  10  11
ATOM     11  C   UNL     1       7.388  -4.624  27.029  0.00  0.00    +0.205 C 
BRANCH  11  12
ATOM     12  C   UNL     1       8.595  -4.146  26.166  0.00  0.00    +0.178 C 
ATOM     13  C   UNL     1       8.988  -4.758  24.818  0.00  0.00    +0.178 C 
ATOM     14  C   UNL     1       8.588  -3.721  23.749  0.00  0.00    +0.195 C 
ATOM     15  C   UNL     1       7.837  -2.675  24.572  0.00  0.00    +0.253 C 
ATOM     16  O   UNL     1       8.433  -2.742  25.881  0.00  0.00    -0.346 OA
BRANCH  15  17
ATOM     17  N   UNL     1       7.838  -1.291  24.154  0.00  0.00    -0.286 N 
ATOM     18  C   UNL     1       8.870  -0.394  24.237  0.00  0.00    +0.167 A 
ATOM     19  N   UNL     1       9.943  -0.422  25.049  0.00  0.00    -0.216 NA
ATOM     20  C   UNL     1      10.782   0.601  24.757  0.00  0.00    +0.225 A 
ATOM     21  N   UNL     1      10.699   1.504  23.753  0.00  0.00    -0.219 NA
ATOM     22  C   UNL     1       9.628   1.447  22.932  0.00  0.00    +0.147 A 
ATOM     23  N   UNL     1       9.589   2.275  21.825  0.00  0.00    -0.341 N 
ATOM     24  H   UNL     1       8.694   2.349  21.358  0.00  0.00    +0.144 HD
ATOM     25  H   UNL     1      10.219   3.062  21.844  0.00  0.00    +0.144 HD
ATOM     26  C   UNL     1       8.620   0.513  23.214  0.00  0.00    +0.147 A 
ATOM     27  N   UNL     1       7.401   0.274  22.620  0.00  0.00    -0.231 NA
ATOM     28  C   UNL     1       6.945  -0.796  23.229  0.00  0.00    +0.203 A 
ENDBRANCH  15  17
BRANCH  14  29
ATOM     29  O   UNL     1       7.755  -4.328  22.759  0.00  0.00    -0.385 OA
ATOM     30  H   UNL     1       7.372  -3.600  22.228  0.00  0.00    +0.210 HD
ENDBRANCH  14  29
BRANCH  13  31
ATOM     31  O   UNL     1      10.431  -4.896  24.794  0.00  0.00    -0.386 OA
ATOM     32  H   UNL     1      10.830  -4.135  25.260  0.00  0.00    +0.210 HD
ENDBRANCH  13  31
ENDBRANCH  11  12
ENDBRANCH  10  11
ENDBRANCH   6  10
ENDBRANCH   5   6
ENDBRANCH   1   5
BRANCH   1  33
ATOM     33  C   UNL     1       4.713  -5.656  24.433  0.00  0.00    +0.254 C 
BRANCH  33  34
ATOM     34  P   UNL     1       4.323  -3.911  24.823  0.00  0.00    +0.342 P 
ATOM     35  O   UNL     1       4.809  -3.497  23.431  0.00  0.00    -0.258 OA
BRANCH  34  36
ATOM     36  O   UNL     1       2.722  -4.206  24.676  0.00  0.00    -0.324 OA
ATOM     37  H   UNL     1       2.108  -3.662  25.201  0.00  0.00    +0.220 HD
ENDBRANCH  34  36
BRANCH  34  38
ATOM     38  O   UNL     1       3.954  -2.262  25.191  0.00  0.00    -0.305 OA
BRANCH  38  39
ATOM     39  C   UNL     1       4.709  -1.704  26.256  0.00  0.00    +0.204 C 
BRANCH  39  43
ATOM     40  C   UNL     1       5.989   1.703  26.677  0.00  0.00    +0.253 C 
ATOM     41  C   UNL     1       4.748   1.746  27.581  0.00  0.00    +0.195 C 
ATOM     42  C   UNL     1       3.889   0.565  27.121  0.00  0.00    +0.178 C 
ATOM     43  C   UNL     1       4.771  -0.181  26.116  0.00  0.00    +0.178 C 
ATOM     44  O   UNL     1       6.114   0.293  26.334  0.00  0.00    -0.346 OA
BRANCH  40  52
ATOM     45  N   UNL     1       7.182   5.045  21.758  0.00  0.00    -0.341 N 
ATOM     46  H   UNL     1       6.206   5.004  21.512  0.00  0.00    +0.144 HD
ATOM     47  H   UNL     1       7.684   5.908  21.560  0.00  0.00    +0.144 HD
ATOM     48  C   UNL     1       7.453   4.578  23.040  0.00  0.00    +0.147 A 
ATOM     49  C   UNL     1       6.591   3.717  23.743  0.00  0.00    +0.147 A 
ATOM     50  N   UNL     1       5.375   3.159  23.417  0.00  0.00    -0.231 NA
ATOM     51  C   UNL     1       5.063   2.414  24.456  0.00  0.00    +0.203 A 
ATOM     52  N   UNL     1       6.003   2.493  25.459  0.00  0.00    -0.286 N 
ATOM     53  C   UNL     1       7.002   3.311  25.004  0.00  0.00    +0.167 A 
ATOM     54  N   UNL     1       8.145   3.650  25.630  0.00  0.00    -0.216 NA
ATOM     55  C   UNL     1       8.870   4.504  24.874  0.00  0.00    +0.225 A 
ATOM     56  N   UNL     1       8.594   4.978  23.642  0.00  0.00    -0.219 NA
ENDBRANCH  40  52
BRANCH  42  57
ATOM     57  O   UNL     1       2.691   1.020  26.507  0.00  0.00    -0.386 OA
ATOM     58  H   UNL     1       2.576   1.962  26.746  0.00  0.00    +0.210 HD
ENDBRANCH  42  57
BRANCH  41  59
ATOM     59  O   UNL     1       5.147   1.518  28.955  0.00  0.00    -0.385 OA
ATOM     60  H   UNL     1       5.625   2.304  29.272  0.00  0.00    +0.210 HD
ENDBRANCH  41  59
ENDBRANCH  39  43
ENDBRANCH  38  39
ENDBRANCH  34  38
ENDBRANCH  33  34
ENDBRANCH   1  33
TORSDOF 19
ENDMDL
MODEL 2
REMARK VINA RESULT:      -7.5      1.547      2.646
REMARK  Name = 
REMARK  19 active torsions:
REMARK  status: ('A' for Active; 'I' for Inactive)
REMARK    1  A    between atoms: N_10  and  C_11
REMARK    2  A    between atoms: C_14  and  C_16
REMARK    3  A    between atoms: C_16  and  O_17
REMARK    4  A    between atoms: O_17  and  P_18
REMARK    5  A    between atoms: P_18  and  O_19
REMARK    6  A    between atoms: P_18  and  C_21
REMARK    7  A    between atoms: C_21  and  P_22
REMARK    8  A    between atoms: P_22  and  O_23
REMARK    9  A    between atoms: P_22  and  O_25
REMARK   10  A    between atoms: O_25  and  P_26
REMARK   11  A    between atoms: P_26  and  S_27
REMARK   12  A    between atoms: P_26  and  O_29
REMARK   13  A    between atoms: O_29  and  C_30
REMARK   14  A    between atoms: C_30  and  C_31
REMARK   15  A    between atoms: C_34  and  N_42
REMARK   16  A    between atoms: C_36  and  O_38
REMARK   17  A    between atoms: C_39  and  O_41
REMARK   18  A    between atoms: C_52  and  O_54
REMARK   19  A    between atoms: C_55  and  O_57
REMARK                            x       y       z     vdW  Elec       q    Type
REMARK                         _______ _______ _______ _____ _____    ______ ____
ROOT
ATOM      1  P   UNL     1       3.637  -3.050  26.356  0.00  0.00    +0.349 P 
ATOM      2  O   UNL     1       2.455  -3.251  25.406  0.00  0.00    -0.258 OA
ENDROOT
BRANCH   1   3
ATOM      3  O   UNL     1       3.583  -1.356  26.005  0.00  0.00    -0.323 OA
ATOM      4  H   UNL     1       4.153  -1.171  25.230  0.00  0.00    +0.220 HD
ENDBRANCH   1   3
BRANCH   1   5
ATOM      5  O   UNL     1       3.692  -4.743  26.706  0.00  0.00    -0.222 OA
BRANCH   5   6
ATOM      6  P   UNL     1       5.161  -5.328  26.005  0.00  0.00    +0.395 P 
ATOM      7  O   UNL     1       5.634  -6.519  26.853  0.00  0.00    -0.246 OA
BRANCH   6   8
ATOM      8  S   UNL     1       4.060  -6.756  24.888  0.00  0.00    -0.058 S 
ATOM      9  H   UNL     1       4.583  -6.386  23.711  0.00  0.00    +0.114 HD
ENDBRANCH   6   8
BRANCH   6  10
ATOM     10  O   UNL     1       6.058  -4.164  26.917  0.00  0.00    -0.297 OA
BRANCH  10  11
ATOM     11  C   UNL     1       7.409  -4.611  27.159  0.00  0.00    +0.205 C 
BRANCH  11  12
ATOM     12  C   UNL     1       8.624  -4.243  26.254  0.00  0.00    +0.178 C 
ATOM     13  C   UNL     1       8.997  -4.986  24.968  0.00  0.00    +0.178 C 
ATOM     14  C   UNL     1       8.618  -4.041  23.809  0.00  0.00    +0.195 C 
ATOM     15  C   UNL     1       7.896  -2.906  24.534  0.00  0.00    +0.253 C 
ATOM     16  O   UNL     1       8.495  -2.868  25.842  0.00  0.00    -0.346 OA
BRANCH  15  17
ATOM     17  N   UNL     1       7.929  -1.567  23.991  0.00  0.00    -0.286 N 
ATOM     18  C   UNL     1       8.944  -0.652  24.086  0.00  0.00    +0.167 A 
ATOM     19  N   UNL     1       9.936  -0.589  24.994  0.00  0.00    -0.216 NA
ATOM     20  C   UNL     1      10.793   0.414  24.688  0.00  0.00    +0.225 A 
ATOM     21  N   UNL     1      10.801   1.219  23.602  0.00  0.00    -0.219 NA
ATOM     22  C   UNL     1       9.813   1.072  22.692  0.00  0.00    +0.147 A 
ATOM     23  N   UNL     1       9.874   1.794  21.515  0.00  0.00    -0.341 N 
ATOM     24  H   UNL     1       9.027   1.812  20.961  0.00  0.00    +0.144 HD
ATOM     25  H   UNL     1      10.496   2.588  21.519  0.00  0.00    +0.144 HD
ATOM     26  C   UNL     1       8.787   0.154  22.965  0.00  0.00    +0.147 A 
ATOM     27  N   UNL     1       7.631  -0.156  22.284  0.00  0.00    -0.231 NA
ATOM     28  C   UNL     1       7.125  -1.172  22.945  0.00  0.00    +0.203 A 
ENDBRANCH  15  17
BRANCH  14  29
ATOM     29  O   UNL     1       7.767  -4.715  22.880  0.00  0.00    -0.385 OA
ATOM     30  H   UNL     1       7.880  -4.267  22.017  0.00  0.00    +0.210 HD
ENDBRANCH  14  29
BRANCH  13  31
ATOM     31  O   UNL     1      10.436  -5.161  24.954  0.00  0.00    -0.386 OA
ATOM     32  H   UNL     1      10.640  -6.115  24.994  0.00  0.00    +0.210 HD
ENDBRANCH  13  31
ENDBRANCH  11  12
ENDBRANCH  10  11
ENDBRANCH   6  10
ENDBRANCH   5   6
ENDBRANCH   1   5
BRANCH   1  33
ATOM     33  C   UNL     1       3.018  -2.720  28.046  0.00  0.00    +0.254 C 
BRANCH  33  34
ATOM     34  P   UNL     1       3.819  -1.213  28.705  0.00  0.00    +0.342 P 
ATOM     35  O   UNL     1       3.754  -1.802  30.117  0.00  0.00    -0.258 OA
BRANCH  34  36
ATOM     36  O   UNL     1       5.260  -1.673  28.087  0.00  0.00    -0.324 OA
ATOM     37  H   UNL     1       5.942  -0.989  27.959  0.00  0.00    +0.220 HD
ENDBRANCH  34  36
BRANCH  34  38
ATOM     38  O   UNL     1       4.577   0.212  29.329  0.00  0.00    -0.305 OA
BRANCH  38  39
ATOM     39  C   UNL     1       4.200   1.419  28.684  0.00  0.00    +0.204 C 
BRANCH  39  43
ATOM     40  C   UNL     1       6.328   0.945  25.739  0.00  0.00    +0.253 C 
ATOM     41  C   UNL     1       7.383   0.992  26.855  0.00  0.00    +0.195 C 
ATOM     42  C   UNL     1       6.671   1.650  28.039  0.00  0.00    +0.178 C 
ATOM     43  C   UNL     1       5.212   1.769  27.590  0.00  0.00    +0.178 C 
ATOM     44  O   UNL     1       5.067   0.880  26.465  0.00  0.00    -0.346 OA
BRANCH  40  52
ATOM     45  N   UNL     1       7.226   5.513  21.852  0.00  0.00    -0.341 N 
ATOM     46  H   UNL     1       6.241   5.507  21.640  0.00  0.00    +0.144 HD
ATOM     47  H   UNL     1       7.700   6.415  21.873  0.00  0.00    +0.144 HD
ATOM     48  C   UNL     1       7.565   4.731  22.951  0.00  0.00    +0.147 A 
ATOM     49  C   UNL     1       6.754   3.686  23.430  0.00  0.00    +0.147 A 
ATOM     50  N   UNL     1       5.537   3.195  23.013  0.00  0.00    -0.231 NA
ATOM     51  C   UNL     1       5.289   2.190  23.824  0.00  0.00    +0.203 A 
ATOM     52  N   UNL     1       6.270   2.031  24.777  0.00  0.00    -0.286 N 
ATOM     53  C   UNL     1       7.229   2.973  24.521  0.00  0.00    +0.167 A 
ATOM     54  N   UNL     1       8.392   3.172  25.172  0.00  0.00    -0.216 NA
ATOM     55  C   UNL     1       9.063   4.220  24.646  0.00  0.00    +0.225 A 
ATOM     56  N   UNL     1       8.722   4.995  23.597  0.00  0.00    -0.219 NA
ENDBRANCH  40  52
BRANCH  42  57
ATOM     57  O   UNL     1       7.224   2.931  28.315  0.00  0.00    -0.386 OA
ATOM     58  H   UNL     1       6.947   3.183  29.219  0.00  0.00    +0.210 HD
ENDBRANCH  42  57
BRANCH  41  59
ATOM     59  O   UNL     1       7.747  -0.359  27.230  0.00  0.00    -0.385 OA
ATOM     60  H   UNL     1       7.432  -0.523  28.136  0.00  0.00    +0.210 HD
ENDBRANCH  41  59
ENDBRANCH  39  43
ENDBRANCH  38  39
ENDBRANCH  34  38
ENDBRANCH  33  34
ENDBRANCH   1  33
TORSDOF 19
ENDMDL
MODEL 3
REMARK VINA RESULT:      -7.2      4.617      7.847
REMARK  Name = 
REMARK  19 active torsions:
REMARK  status: ('A' for Active; 'I' for Inactive)
REMARK    1  A    between atoms: N_10  and  C_11
REMARK    2  A    between atoms: C_14  and  C_16
REMARK    3  A    between atoms: C_16  and  O_17
REMARK    4  A    between atoms: O_17  and  P_18
REMARK    5  A    between atoms: P_18  and  O_19
REMARK    6  A    between atoms: P_18  and  C_21
REMARK    7  A    between atoms: C_21  and  P_22
REMARK    8  A    between atoms: P_22  and  O_23
REMARK    9  A    between atoms: P_22  and  O_25
REMARK   10  A    between atoms: O_25  and  P_26
REMARK   11  A    between atoms: P_26  and  S_27
REMARK   12  A    between atoms: P_26  and  O_29
REMARK   13  A    between atoms: O_29  and  C_30
REMARK   14  A    between atoms: C_30  and  C_31
REMARK   15  A    between atoms: C_34  and  N_42
REMARK   16  A    between atoms: C_36  and  O_38
REMARK   17  A    between atoms: C_39  and  O_41
REMARK   18  A    between atoms: C_52  and  O_54
REMARK   19  A    between atoms: C_55  and  O_57
REMARK                            x       y       z     vdW  Elec       q    Type
REMARK                         _______ _______ _______ _____ _____    ______ ____
ROOT
ATOM      1  P   UNL     1       6.848   4.530  25.027  0.00  0.00    +0.349 P 
ATOM      2  O   UNL     1       7.096   5.818  24.241  0.00  0.00    -0.258 OA
ENDROOT
BRANCH   1   3
ATOM      3  O   UNL     1       8.561   4.325  25.161  0.00  0.00    -0.323 OA
ATOM      4  H   UNL     1       8.847   3.616  24.547  0.00  0.00    +0.220 HD
ENDBRANCH   1   3
BRANCH   1   5
ATOM      5  O   UNL     1       5.135   4.735  24.893  0.00  0.00    -0.222 OA
BRANCH   5   6
ATOM      6  P   UNL     1       4.652   3.818  23.508  0.00  0.00    +0.395 P 
ATOM      7  O   UNL     1       3.794   2.645  24.007  0.00  0.00    -0.246 OA
BRANCH   6   8
ATOM      8  S   UNL     1       2.836   4.911  23.419  0.00  0.00    -0.058 S 
ATOM      9  H   UNL     1       2.075   3.823  23.238  0.00  0.00    +0.114 HD
ENDBRANCH   6   8
BRANCH   6  10
ATOM     10  O   UNL     1       6.133   2.927  23.581  0.00  0.00    -0.297 OA
BRANCH  10  11
ATOM     11  C   UNL     1       6.517   2.435  22.279  0.00  0.00    +0.205 C 
BRANCH  11  12
ATOM     12  C   UNL     1       7.867   1.711  21.986  0.00  0.00    +0.178 C 
ATOM     13  C   UNL     1       9.196   2.060  22.662  0.00  0.00    +0.178 C 
ATOM     14  C   UNL     1       9.486   0.907  23.645  0.00  0.00    +0.195 C 
ATOM     15  C   UNL     1       8.201   0.083  23.572  0.00  0.00    +0.253 C 
ATOM     16  O   UNL     1       7.701   0.302  22.240  0.00  0.00    -0.346 OA
BRANCH  15  17
ATOM     17  N   UNL     1       8.245  -1.344  23.800  0.00  0.00    -0.286 N 
ATOM     18  C   UNL     1       7.269  -2.264  23.523  0.00  0.00    +0.167 A 
ATOM     19  N   UNL     1       5.946  -2.066  23.368  0.00  0.00    -0.216 NA
ATOM     20  C   UNL     1       5.335  -3.220  23.010  0.00  0.00    +0.225 A 
ATOM     21  N   UNL     1       5.891  -4.419  22.721  0.00  0.00    -0.219 NA
ATOM     22  C   UNL     1       7.231  -4.544  22.836  0.00  0.00    +0.147 A 
ATOM     23  N   UNL     1       7.831  -5.719  22.423  0.00  0.00    -0.341 N 
ATOM     24  H   UNL     1       8.792  -5.851  22.711  0.00  0.00    +0.144 HD
ATOM     25  H   UNL     1       7.217  -6.512  22.320  0.00  0.00    +0.144 HD
ATOM     26  C   UNL     1       7.962  -3.453  23.330  0.00  0.00    +0.147 A 
ATOM     27  N   UNL     1       9.299  -3.306  23.626  0.00  0.00    -0.231 NA
ATOM     28  C   UNL     1       9.428  -2.036  23.934  0.00  0.00    +0.203 A 
ENDBRANCH  15  17
BRANCH  14  29
ATOM     29  O   UNL     1       9.721   1.423  24.956  0.00  0.00    -0.385 OA
ATOM     30  H   UNL     1       8.878   1.817  25.260  0.00  0.00    +0.210 HD
ENDBRANCH  14  29
BRANCH  13  31
ATOM     31  O   UNL     1      10.230   2.053  21.645  0.00  0.00    -0.386 OA
ATOM     32  H   UNL     1       9.922   1.523  20.884  0.00  0.00    +0.210 HD
ENDBRANCH  13  31
ENDBRANCH  11  12
ENDBRANCH  10  11
ENDBRANCH   6  10
ENDBRANCH   5   6
ENDBRANCH   1   5
BRANCH   1  33
ATOM     33  C   UNL     1       6.754   4.910  26.815  0.00  0.00    +0.254 C 
BRANCH  33  34
ATOM     34  P   UNL     1       6.801   3.351  27.772  0.00  0.00    +0.342 P 
ATOM     35  O   UNL     1       5.361   3.596  28.231  0.00  0.00    -0.258 OA
BRANCH  34  36
ATOM     36  O   UNL     1       6.697   2.470  26.400  0.00  0.00    -0.324 OA
ATOM     37  H   UNL     1       6.918   1.522  26.448  0.00  0.00    +0.220 HD
ENDBRANCH  34  36
BRANCH  34  38
ATOM     38  O   UNL     1       6.845   1.878  28.678  0.00  0.00    -0.305 OA
BRANCH  38  39
ATOM     39  C   UNL     1       5.585   1.430  29.153  0.00  0.00    +0.204 C 
BRANCH  39  43
ATOM     40  C   UNL     1       5.722  -1.268  26.678  0.00  0.00    +0.253 C 
ATOM     41  C   UNL     1       4.543  -0.442  26.143  0.00  0.00    +0.195 C 
ATOM     42  C   UNL     1       4.098   0.418  27.328  0.00  0.00    +0.178 C 
ATOM     43  C   UNL     1       5.158   0.166  28.403  0.00  0.00    +0.178 C 
ATOM     44  O   UNL     1       6.284  -0.422  27.723  0.00  0.00    -0.346 OA
BRANCH  40  52
ATOM     45  N   UNL     1       5.813  -6.907  28.910  0.00  0.00    -0.341 N 
ATOM     46  H   UNL     1       4.812  -6.863  29.019  0.00  0.00    +0.144 HD
ATOM     47  H   UNL     1       6.220  -7.799  28.637  0.00  0.00    +0.144 HD
ATOM     48  C   UNL     1       6.337  -5.855  28.166  0.00  0.00    +0.147 A 
ATOM     49  C   UNL     1       5.667  -4.632  27.985  0.00  0.00    +0.147 A 
ATOM     50  N   UNL     1       4.446  -4.172  28.426  0.00  0.00    -0.231 NA
ATOM     51  C   UNL     1       4.370  -2.941  27.971  0.00  0.00    +0.203 A 
ATOM     52  N   UNL     1       5.470  -2.591  27.220  0.00  0.00    -0.286 N 
ATOM     53  C   UNL     1       6.322  -3.662  27.239  0.00  0.00    +0.167 A 
ATOM     54  N   UNL     1       7.538  -3.766  26.670  0.00  0.00    -0.216 NA
ATOM     55  C   UNL     1       8.064  -4.992  26.881  0.00  0.00    +0.225 A 
ATOM     56  N   UNL     1       7.543  -6.021  27.581  0.00  0.00    -0.219 NA
ENDBRANCH  40  52
BRANCH  42  57
ATOM     57  O   UNL     1       2.809   0.024  27.783  0.00  0.00    -0.386 OA
ATOM     58  H   UNL     1       2.488   0.717  28.394  0.00  0.00    +0.210 HD
ENDBRANCH  42  57
BRANCH  41  59
ATOM     59  O   UNL     1       5.009   0.434  25.088  0.00  0.00    -0.385 OA
ATOM     60  H   UNL     1       4.561   1.293  25.179  0.00  0.00    +0.210 HD
ENDBRANCH  41  59
ENDBRANCH  39  43
ENDBRANCH  38  39
ENDBRANCH  34  38
ENDBRANCH  33  34
ENDBRANCH   1  33
TORSDOF 19
ENDMDL
MODEL 4
REMARK VINA RESULT:      -7.2      3.747      7.976
REMARK  Name = 
REMARK  19 active torsions:
REMARK  status: ('A' for Active; 'I' for Inactive)
REMARK    1  A    between atoms: N_10  and  C_11
REMARK    2  A    between atoms: C_14  and  C_16
REMARK    3  A    between atoms: C_16  and  O_17
REMARK    4  A    between atoms: O_17  and  P_18
REMARK    5  A    between atoms: P_18  and  O_19
REMARK    6  A    between atoms: P_18  and  C_21
REMARK    7  A    between atoms: C_21  and  P_22
REMARK    8  A    between atoms: P_22  and  O_23
REMARK    9  A    between atoms: P_22  and  O_25
REMARK   10  A    between atoms: O_25  and  P_26
REMARK   11  A    between atoms: P_26  and  S_27
REMARK   12  A    between atoms: P_26  and  O_29
REMARK   13  A    between atoms: O_29  and  C_30
REMARK   14  A    between atoms: C_30  and  C_31
REMARK   15  A    between atoms: C_34  and  N_42
REMARK   16  A    between atoms: C_36  and  O_38
REMARK   17  A    between atoms: C_39  and  O_41
REMARK   18  A    between atoms: C_52  and  O_54
REMARK   19  A    between atoms: C_55  and  O_57
REMARK                            x       y       z     vdW  Elec       q    Type
REMARK                         _______ _______ _______ _____ _____    ______ ____
ROOT
ATOM      1  P   UNL     1       4.818   3.562  26.442  0.00  0.00    +0.349 P 
ATOM      2  O   UNL     1       5.096   4.911  27.106  0.00  0.00    -0.258 OA
ENDROOT
BRANCH   1   3
ATOM      3  O   UNL     1       6.383   3.029  26.957  0.00  0.00    -0.323 OA
ATOM      4  H   UNL     1       7.067   3.575  26.518  0.00  0.00    +0.220 HD
ENDBRANCH   1   3
BRANCH   1   5
ATOM      5  O   UNL     1       3.255   4.095  25.927  0.00  0.00    -0.222 OA
BRANCH   5   6
ATOM      6  P   UNL     1       3.325   4.181  24.201  0.00  0.00    +0.395 P 
ATOM      7  O   UNL     1       3.031   2.774  23.657  0.00  0.00    -0.246 OA
BRANCH   6   8
ATOM      8  S   UNL     1       1.227   4.481  24.131  0.00  0.00    -0.058 S 
ATOM      9  H   UNL     1       1.319   5.816  24.084  0.00  0.00    +0.114 HD
ENDBRANCH   6   8
BRANCH   6  10
ATOM     10  O   UNL     1       5.037   3.936  24.258  0.00  0.00    -0.297 OA
BRANCH  10  11
ATOM     11  C   UNL     1       5.661   4.282  23.004  0.00  0.00    +0.205 C 
BRANCH  11  12
ATOM     12  C   UNL     1       7.198   4.471  22.819  0.00  0.00    +0.178 C 
ATOM     13  C   UNL     1       8.053   5.439  23.642  0.00  0.00    +0.178 C 
ATOM     14  C   UNL     1       8.885   4.561  24.599  0.00  0.00    +0.195 C 
ATOM     15  C   UNL     1       8.300   3.170  24.359  0.00  0.00    +0.253 C 
ATOM     16  O   UNL     1       7.846   3.194  22.993  0.00  0.00    -0.346 OA
BRANCH  15  17
ATOM     17  N   UNL     1       9.131   1.998  24.528  0.00  0.00    -0.286 N 
ATOM     18  C   UNL     1       8.743   0.753  24.946  0.00  0.00    +0.167 A 
ATOM     19  N   UNL     1       7.657   0.408  25.663  0.00  0.00    -0.216 NA
ATOM     20  C   UNL     1       7.585  -0.939  25.790  0.00  0.00    +0.225 A 
ATOM     21  N   UNL     1       8.372  -1.886  25.232  0.00  0.00    -0.219 NA
ATOM     22  C   UNL     1       9.414  -1.482  24.472  0.00  0.00    +0.147 A 
ATOM     23  N   UNL     1      10.152  -2.431  23.789  0.00  0.00    -0.341 N 
ATOM     24  H   UNL     1      11.033  -2.115  23.404  0.00  0.00    +0.144 HD
ATOM     25  H   UNL     1      10.048  -3.381  24.111  0.00  0.00    +0.144 HD
ATOM     26  C   UNL     1       9.673  -0.106  24.374  0.00  0.00    +0.147 A 
ATOM     27  N   UNL     1      10.685   0.592  23.753  0.00  0.00    -0.231 NA
ATOM     28  C   UNL     1      10.343   1.852  23.891  0.00  0.00    +0.203 A 
ENDBRANCH  15  17
BRANCH  14  29
ATOM     29  O   UNL     1       8.707   4.995  25.948  0.00  0.00    -0.385 OA
ATOM     30  H   UNL     1       7.759   5.214  26.051  0.00  0.00    +0.210 HD
ENDBRANCH  14  29
BRANCH  13  31
ATOM     31  O   UNL     1       8.966   6.109  22.737  0.00  0.00    -0.386 OA
ATOM     32  H   UNL     1       9.751   6.403  23.239  0.00  0.00    +0.210 HD
ENDBRANCH  13  31
ENDBRANCH  11  12
ENDBRANCH  10  11
ENDBRANCH   6  10
ENDBRANCH   5   6
ENDBRANCH   1   5
BRANCH   1  33
ATOM     33  C   UNL     1       4.036   2.432  27.651  0.00  0.00    +0.254 C 
BRANCH  33  34
ATOM     34  P   UNL     1       3.941   0.749  26.939  0.00  0.00    +0.342 P 
ATOM     35  O   UNL     1       2.452   0.959  26.653  0.00  0.00    -0.258 OA
BRANCH  34  36
ATOM     36  O   UNL     1       4.735   1.239  25.598  0.00  0.00    -0.324 OA
ATOM     37  H   UNL     1       4.368   0.986  24.732  0.00  0.00    +0.220 HD
ENDBRANCH  34  36
BRANCH  34  38
ATOM     38  O   UNL     1       3.852  -0.842  26.267  0.00  0.00    -0.305 OA
BRANCH  38  39
ATOM     39  C   UNL     1       3.046  -1.755  26.997  0.00  0.00    +0.204 C 
BRANCH  39  43
ATOM     40  C   UNL     1       4.143  -5.191  26.353  0.00  0.00    +0.253 C 
ATOM     41  C   UNL     1       3.253  -5.397  27.588  0.00  0.00    +0.195 C 
ATOM     42  C   UNL     1       3.130  -4.008  28.217  0.00  0.00    +0.178 C 
ATOM     43  C   UNL     1       3.800  -3.070  27.209  0.00  0.00    +0.178 C 
ATOM     44  O   UNL     1       3.887  -3.808  25.974  0.00  0.00    -0.346 OA
BRANCH  40  52
ATOM     45  N   UNL     1      10.182  -5.467  25.863  0.00  0.00    -0.341 N 
ATOM     46  H   UNL     1      10.218  -5.928  26.759  0.00  0.00    +0.144 HD
ATOM     47  H   UNL     1      10.849  -5.761  25.152  0.00  0.00    +0.144 HD
ATOM     48  C   UNL     1       8.896  -5.359  25.345  0.00  0.00    +0.147 A 
ATOM     49  C   UNL     1       7.738  -5.435  26.139  0.00  0.00    +0.147 A 
ATOM     50  N   UNL     1       7.555  -5.623  27.491  0.00  0.00    -0.231 NA
ATOM     51  C   UNL     1       6.251  -5.569  27.661  0.00  0.00    +0.203 A 
ATOM     52  N   UNL     1       5.575  -5.395  26.474  0.00  0.00    -0.286 N 
ATOM     53  C   UNL     1       6.521  -5.285  25.490  0.00  0.00    +0.167 A 
ATOM     54  N   UNL     1       6.328  -5.070  24.174  0.00  0.00    -0.216 NA
ATOM     55  C   UNL     1       7.506  -5.053  23.513  0.00  0.00    +0.225 A 
ATOM     56  N   UNL     1       8.752  -5.184  24.013  0.00  0.00    -0.219 NA
ENDBRANCH  40  52
BRANCH  42  57
ATOM     57  O   UNL     1       3.793  -3.961  29.474  0.00  0.00    -0.386 OA
ATOM     58  H   UNL     1       3.899  -3.019  29.716  0.00  0.00    +0.210 HD
ENDBRANCH  42  57
BRANCH  41  59
ATOM     59  O   UNL     1       1.936  -5.829  27.164  0.00  0.00    -0.385 OA
ATOM     60  H   UNL     1       1.978  -6.062  26.220  0.00  0.00    +0.210 HD
ENDBRANCH  41  59
ENDBRANCH  39  43
ENDBRANCH  38  39
ENDBRANCH  34  38
ENDBRANCH  33  34
ENDBRANCH   1  33
TORSDOF 19
ENDMDL
MODEL 5
REMARK VINA RESULT:      -7.1      4.530      8.356
REMARK  Name = 
REMARK  19 active torsions:
REMARK  status: ('A' for Active; 'I' for Inactive)
REMARK    1  A    between atoms: N_10  and  C_11
REMARK    2  A    between atoms: C_14  and  C_16
REMARK    3  A    between atoms: C_16  and  O_17
REMARK    4  A    between atoms: O_17  and  P_18
REMARK    5  A    between atoms: P_18  and  O_19
REMARK    6  A    between atoms: P_18  and  C_21
REMARK    7  A    between atoms: C_21  and  P_22
REMARK    8  A    between atoms: P_22  and  O_23
REMARK    9  A    between atoms: P_22  and  O_25
REMARK   10  A    between atoms: O_25  and  P_26
REMARK   11  A    between atoms: P_26  and  S_27
REMARK   12  A    between atoms: P_26  and  O_29
REMARK   13  A    between atoms: O_29  and  C_30
REMARK   14  A    between atoms: C_30  and  C_31
REMARK   15  A    between atoms: C_34  and  N_42
REMARK   16  A    between atoms: C_36  and  O_38
REMARK   17  A    between atoms: C_39  and  O_41
REMARK   18  A    between atoms: C_52  and  O_54
REMARK   19  A    between atoms: C_55  and  O_57
REMARK                            x       y       z     vdW  Elec       q    Type
REMARK                         _______ _______ _______ _____ _____    ______ ____
ROOT
ATOM      1  P   UNL     1       6.778   3.097  26.009  0.00  0.00    +0.349 P 
ATOM      2  O   UNL     1       7.213   4.273  26.886  0.00  0.00    -0.258 OA
ENDROOT
BRANCH   1   3
ATOM      3  O   UNL     1       7.543   2.025  27.131  0.00  0.00    -0.323 OA
ATOM      4  H   UNL     1       7.381   2.346  28.043  0.00  0.00    +0.220 HD
ENDBRANCH   1   3
BRANCH   1   5
ATOM      5  O   UNL     1       6.013   4.169  24.888  0.00  0.00    -0.222 OA
BRANCH   5   6
ATOM      6  P   UNL     1       6.875   3.996  23.398  0.00  0.00    +0.395 P 
ATOM      7  O   UNL     1       5.930   3.316  22.394  0.00  0.00    -0.246 OA
BRANCH   6   8
ATOM      8  S   UNL     1       6.049   5.823  22.707  0.00  0.00    -0.058 S 
ATOM      9  H   UNL     1       4.785   5.381  22.744  0.00  0.00    +0.114 HD
ENDBRANCH   6   8
BRANCH   6  10
ATOM     10  O   UNL     1       7.549   2.506  23.962  0.00  0.00    -0.297 OA
BRANCH  10  11
ATOM     11  C   UNL     1       8.495   1.963  23.017  0.00  0.00    +0.205 C 
BRANCH  11  12
ATOM     12  C   UNL     1       9.569   0.892  23.377  0.00  0.00    +0.178 C 
ATOM     13  C   UNL     1      10.236   0.767  24.750  0.00  0.00    +0.178 C 
ATOM     14  C   UNL     1       9.631  -0.494  25.401  0.00  0.00    +0.195 C 
ATOM     15  C   UNL     1       8.537  -0.883  24.408  0.00  0.00    +0.253 C 
ATOM     16  O   UNL     1       9.017  -0.417  23.133  0.00  0.00    -0.346 OA
BRANCH  15  17
ATOM     17  N   UNL     1       8.157  -2.270  24.259  0.00  0.00    -0.286 N 
ATOM     18  C   UNL     1       7.223  -2.793  23.404  0.00  0.00    +0.167 A 
ATOM     19  N   UNL     1       6.182  -2.173  22.816  0.00  0.00    -0.216 NA
ATOM     20  C   UNL     1       5.549  -3.018  21.967  0.00  0.00    +0.225 A 
ATOM     21  N   UNL     1       5.893  -4.277  21.612  0.00  0.00    -0.219 NA
ATOM     22  C   UNL     1       6.982  -4.827  22.191  0.00  0.00    +0.147 A 
ATOM     23  N   UNL     1       7.424  -6.061  21.748  0.00  0.00    -0.341 N 
ATOM     24  H   UNL     1       8.106  -6.525  22.335  0.00  0.00    +0.144 HD
ATOM     25  H   UNL     1       6.757  -6.601  21.219  0.00  0.00    +0.144 HD
ATOM     26  C   UNL     1       7.646  -4.099  23.189  0.00  0.00    +0.147 A 
ATOM     27  N   UNL     1       8.714  -4.418  23.998  0.00  0.00    -0.231 NA
ATOM     28  C   UNL     1       8.974  -3.307  24.648  0.00  0.00    +0.203 A 
ENDBRANCH  15  17
BRANCH  14  29
ATOM     29  O   UNL     1       9.101  -0.180  26.690  0.00  0.00    -0.385 OA
ATOM     30  H   UNL     1       8.426  -0.858  26.891  0.00  0.00    +0.210 HD
ENDBRANCH  14  29
BRANCH  13  31
ATOM     31  O   UNL     1      11.650   0.531  24.541  0.00  0.00    -0.386 OA
ATOM     32  H   UNL     1      11.835  -0.421  24.666  0.00  0.00    +0.210 HD
ENDBRANCH  13  31
ENDBRANCH  11  12
ENDBRANCH  10  11
ENDBRANCH   6  10
ENDBRANCH   5   6
ENDBRANCH   1   5
BRANCH   1  33
ATOM     33  C   UNL     1       5.137   2.498  26.556  0.00  0.00    +0.254 C 
BRANCH  33  34
ATOM     34  P   UNL     1       4.934   0.747  26.066  0.00  0.00    +0.342 P 
ATOM     35  O   UNL     1       3.444   0.829  26.410  0.00  0.00    -0.258 OA
BRANCH  34  36
ATOM     36  O   UNL     1       5.057   1.144  24.485  0.00  0.00    -0.324 OA
ATOM     37  H   UNL     1       4.371   1.724  24.106  0.00  0.00    +0.220 HD
ENDBRANCH  34  36
BRANCH  34  38
ATOM     38  O   UNL     1       4.741  -0.909  25.602  0.00  0.00    -0.305 OA
BRANCH  38  39
ATOM     39  C   UNL     1       5.398  -1.845  26.443  0.00  0.00    +0.204 C 
BRANCH  39  43
ATOM     40  C   UNL     1       3.184  -4.762  26.543  0.00  0.00    +0.253 C 
ATOM     41  C   UNL     1       4.358  -5.259  27.400  0.00  0.00    +0.195 C 
ATOM     42  C   UNL     1       5.523  -4.334  27.041  0.00  0.00    +0.178 C 
ATOM     43  C   UNL     1       4.898  -3.261  26.146  0.00  0.00    +0.178 C 
ATOM     44  O   UNL     1       3.474  -3.347  26.354  0.00  0.00    -0.346 OA
BRANCH  40  52
ATOM     45  N   UNL     1       1.489  -8.036  21.727  0.00  0.00    -0.341 N 
ATOM     46  H   UNL     1       2.031  -7.424  21.139  0.00  0.00    +0.144 HD
ATOM     47  H   UNL     1       1.460  -9.025  21.483  0.00  0.00    +0.144 HD
ATOM     48  C   UNL     1       1.720  -7.851  23.086  0.00  0.00    +0.147 A 
ATOM     49  C   UNL     1       2.260  -6.667  23.620  0.00  0.00    +0.147 A 
ATOM     50  N   UNL     1       2.675  -5.493  23.032  0.00  0.00    -0.231 NA
ATOM     51  C   UNL     1       3.056  -4.735  24.037  0.00  0.00    +0.203 A 
ATOM     52  N   UNL     1       2.944  -5.377  25.250  0.00  0.00    -0.286 N 
ATOM     53  C   UNL     1       2.413  -6.613  24.998  0.00  0.00    +0.167 A 
ATOM     54  N   UNL     1       2.094  -7.576  25.885  0.00  0.00    -0.216 NA
ATOM     55  C   UNL     1       1.620  -8.672  25.253  0.00  0.00    +0.225 A 
ATOM     56  N   UNL     1       1.421  -8.861  23.933  0.00  0.00    -0.219 NA
ENDBRANCH  40  52
BRANCH  42  57
ATOM     57  O   UNL     1       6.539  -5.046  26.347  0.00  0.00    -0.386 OA
ATOM     58  H   UNL     1       7.045  -4.397  25.819  0.00  0.00    +0.210 HD
ENDBRANCH  42  57
BRANCH  41  59
ATOM     59  O   UNL     1       4.040  -5.077  28.802  0.00  0.00    -0.385 OA
ATOM     60  H   UNL     1       4.597  -4.360  29.153  0.00  0.00    +0.210 HD
ENDBRANCH  41  59
ENDBRANCH  39  43
ENDBRANCH  38  39
ENDBRANCH  34  38
ENDBRANCH  33  34
ENDBRANCH   1  33
TORSDOF 19
ENDMDL
MODEL 6
REMARK VINA RESULT:      -7.0      3.861      7.215
REMARK  Name = 
REMARK  19 active torsions:
REMARK  status: ('A' for Active; 'I' for Inactive)
REMARK    1  A    between atoms: N_10  and  C_11
REMARK    2  A    between atoms: C_14  and  C_16
REMARK    3  A    between atoms: C_16  and  O_17
REMARK    4  A    between atoms: O_17  and  P_18
REMARK    5  A    between atoms: P_18  and  O_19
REMARK    6  A    between atoms: P_18  and  C_21
REMARK    7  A    between atoms: C_21  and  P_22
REMARK    8  A    between atoms: P_22  and  O_23
REMARK    9  A    between atoms: P_22  and  O_25
REMARK   10  A    between atoms: O_25  and  P_26
REMARK   11  A    between atoms: P_26  and  S_27
REMARK   12  A    between atoms: P_26  and  O_29
REMARK   13  A    between atoms: O_29  and  C_30
REMARK   14  A    between atoms: C_30  and  C_31
REMARK   15  A    between atoms: C_34  and  N_42
REMARK   16  A    between atoms: C_36  and  O_38
REMARK   17  A    between atoms: C_39  and  O_41
REMARK   18  A    between atoms: C_52  and  O_54
REMARK   19  A    between atoms: C_55  and  O_57
REMARK                            x       y       z     vdW  Elec       q    Type
REMARK                         _______ _______ _______ _____ _____    ______ ____
ROOT
ATOM      1  P   UNL     1       4.868  -0.065  26.720  0.00  0.00    +0.349 P 
ATOM      2  O   UNL     1       5.492  -0.737  25.496  0.00  0.00    -0.258 OA
ENDROOT
BRANCH   1   3
ATOM      3  O   UNL     1       6.320   0.858  26.907  0.00  0.00    -0.323 OA
ATOM      4  H   UNL     1       7.081   0.325  26.594  0.00  0.00    +0.220 HD
ENDBRANCH   1   3
BRANCH   1   5
ATOM      5  O   UNL     1       3.418  -0.989  26.533  0.00  0.00    -0.222 OA
BRANCH   5   6
ATOM      6  P   UNL     1       2.956  -1.480  28.126  0.00  0.00    +0.395 P 
ATOM      7  O   UNL     1       2.998  -0.234  29.023  0.00  0.00    -0.246 OA
BRANCH   6   8
ATOM      8  S   UNL     1       0.950  -0.929  27.714  0.00  0.00    -0.058 S 
ATOM      9  H   UNL     1       1.050   0.266  28.313  0.00  0.00    +0.114 HD
ENDBRANCH   6   8
BRANCH   6  10
ATOM     10  O   UNL     1       4.592  -1.929  28.461  0.00  0.00    -0.297 OA
BRANCH  10  11
ATOM     11  C   UNL     1       4.755  -3.364  28.464  0.00  0.00    +0.205 C 
BRANCH  11  12
ATOM     12  C   UNL     1       5.714  -4.132  27.504  0.00  0.00    +0.178 C 
ATOM     13  C   UNL     1       6.283  -5.525  27.787  0.00  0.00    +0.178 C 
ATOM     14  C   UNL     1       5.539  -6.488  26.839  0.00  0.00    +0.195 C 
ATOM     15  C   UNL     1       4.479  -5.581  26.217  0.00  0.00    +0.253 C 
ATOM     16  O   UNL     1       5.072  -4.269  26.220  0.00  0.00    -0.346 OA
BRANCH  15  17
ATOM     17  N   UNL     1       3.995  -5.846  24.881  0.00  0.00    -0.286 N 
ATOM     18  C   UNL     1       3.164  -6.857  24.478  0.00  0.00    +0.167 A 
ATOM     19  N   UNL     1       2.925  -8.038  25.080  0.00  0.00    -0.216 NA
ATOM     20  C   UNL     1       1.967  -8.723  24.411  0.00  0.00    +0.225 A 
ATOM     21  N   UNL     1       1.226  -8.326  23.352  0.00  0.00    -0.219 NA
ATOM     22  C   UNL     1       1.469  -7.106  22.826  0.00  0.00    +0.147 A 
ATOM     23  N   UNL     1       0.637  -6.630  21.828  0.00  0.00    -0.341 N 
ATOM     24  H   UNL     1       0.969  -5.817  21.325  0.00  0.00    +0.144 HD
ATOM     25  H   UNL     1       0.073  -7.323  21.360  0.00  0.00    +0.144 HD
ATOM     26  C   UNL     1       2.531  -6.354  23.349  0.00  0.00    +0.147 A 
ATOM     27  N   UNL     1       3.061  -5.137  22.978  0.00  0.00    -0.231 NA
ATOM     28  C   UNL     1       3.958  -4.878  23.902  0.00  0.00    +0.203 A 
ENDBRANCH  15  17
BRANCH  14  29
ATOM     29  O   UNL     1       4.960  -7.563  27.581  0.00  0.00    -0.385 OA
ATOM     30  H   UNL     1       4.153  -7.209  28.007  0.00  0.00    +0.210 HD
ENDBRANCH  14  29
BRANCH  13  31
ATOM     31  O   UNL     1       7.684  -5.520  27.414  0.00  0.00    -0.386 OA
ATOM     32  H   UNL     1       7.752  -5.465  26.440  0.00  0.00    +0.210 HD
ENDBRANCH  13  31
ENDBRANCH  11  12
ENDBRANCH  10  11
ENDBRANCH   6  10
ENDBRANCH   5   6
ENDBRANCH   1   5
BRANCH   1  33
ATOM     33  C   UNL     1       3.974   1.445  26.202  0.00  0.00    +0.254 C 
BRANCH  33  34
ATOM     34  P   UNL     1       4.908   2.279  24.868  0.00  0.00    +0.342 P 
ATOM     35  O   UNL     1       3.590   2.639  24.177  0.00  0.00    -0.258 OA
BRANCH  34  36
ATOM     36  O   UNL     1       5.260   3.532  25.857  0.00  0.00    -0.324 OA
ATOM     37  H   UNL     1       5.391   4.409  25.453  0.00  0.00    +0.220 HD
ENDBRANCH  34  36
BRANCH  34  38
ATOM     38  O   UNL     1       5.792   3.067  23.606  0.00  0.00    -0.305 OA
BRANCH  38  39
ATOM     39  C   UNL     1       7.100   3.484  23.964  0.00  0.00    +0.204 C 
BRANCH  39  43
ATOM     40  C   UNL     1      10.191   1.521  24.085  0.00  0.00    +0.253 C 
ATOM     41  C   UNL     1      10.412   2.330  22.799  0.00  0.00    +0.195 C 
ATOM     42  C   UNL     1       9.017   2.816  22.398  0.00  0.00    +0.178 C 
ATOM     43  C   UNL     1       8.120   2.412  23.571  0.00  0.00    +0.178 C 
ATOM     44  O   UNL     1       9.006   2.130  24.673  0.00  0.00    -0.346 OA
BRANCH  40  52
ATOM     45  N   UNL     1       8.649  -4.324  24.580  0.00  0.00    -0.341 N 
ATOM     46  H   UNL     1       9.214  -4.526  23.771  0.00  0.00    +0.144 HD
ATOM     47  H   UNL     1       8.624  -5.018  25.326  0.00  0.00    +0.144 HD
ATOM     48  C   UNL     1       8.833  -3.040  25.081  0.00  0.00    +0.147 A 
ATOM     49  C   UNL     1       9.360  -1.984  24.316  0.00  0.00    +0.147 A 
ATOM     50  N   UNL     1       9.802  -1.917  23.013  0.00  0.00    -0.231 NA
ATOM     51  C   UNL     1      10.150  -0.660  22.845  0.00  0.00    +0.203 A 
ATOM     52  N   UNL     1       9.994   0.086  23.991  0.00  0.00    -0.286 N 
ATOM     53  C   UNL     1       9.466  -0.749  24.939  0.00  0.00    +0.167 A 
ATOM     54  N   UNL     1       9.112  -0.449  26.204  0.00  0.00    -0.216 NA
ATOM     55  C   UNL     1       8.655  -1.546  26.847  0.00  0.00    +0.225 A 
ATOM     56  N   UNL     1       8.501  -2.798  26.368  0.00  0.00    -0.219 NA
ENDBRANCH  40  52
BRANCH  42  57
ATOM     57  O   UNL     1       8.590   2.192  21.194  0.00  0.00    -0.386 OA
ATOM     58  H   UNL     1       9.279   2.354  20.518  0.00  0.00    +0.210 HD
ENDBRANCH  42  57
BRANCH  41  59
ATOM     59  O   UNL     1      11.235   3.485  23.093  0.00  0.00    -0.385 OA
ATOM     60  H   UNL     1      12.170   3.227  23.010  0.00  0.00    +0.210 HD
ENDBRANCH  41  59
ENDBRANCH  39  43
ENDBRANCH  38  39
ENDBRANCH  34  38
ENDBRANCH  33  34
ENDBRANCH   1  33
TORSDOF 19
ENDMDL
MODEL 7
REMARK VINA RESULT:      -6.9      4.761      9.145
REMARK  Name = 
REMARK  19 active torsions:
REMARK  status: ('A' for Active; 'I' for Inactive)
REMARK    1  A    between atoms: N_10  and  C_11
REMARK    2  A    between atoms: C_14  and  C_16
REMARK    3  A    between atoms: C_16  and  O_17
REMARK    4  A    between atoms: O_17  and  P_18
REMARK    5  A    between atoms: P_18  and  O_19
REMARK    6  A    between atoms: P_18  and  C_21
REMARK    7  A    between atoms: C_21  and  P_22
REMARK    8  A    between atoms: P_22  and  O_23
REMARK    9  A    between atoms: P_22  and  O_25
REMARK   10  A    between atoms: O_25  and  P_26
REMARK   11  A    between atoms: P_26  and  S_27
REMARK   12  A    between atoms: P_26  and  O_29
REMARK   13  A    between atoms: O_29  and  C_30
REMARK   14  A    between atoms: C_30  and  C_31
REMARK   15  A    between atoms: C_34  and  N_42
REMARK   16  A    between atoms: C_36  and  O_38
REMARK   17  A    between atoms: C_39  and  O_41
REMARK   18  A    between atoms: C_52  and  O_54
REMARK   19  A    between atoms: C_55  and  O_57
REMARK                            x       y       z     vdW  Elec       q    Type
REMARK                         _______ _______ _______ _____ _____    ______ ____
ROOT
ATOM      1  P   UNL     1       9.638   3.087  23.379  0.00  0.00    +0.349 P 
ATOM      2  O   UNL     1      11.142   3.365  23.361  0.00  0.00    -0.258 OA
ENDROOT
BRANCH   1   3
ATOM      3  O   UNL     1       9.911   1.744  22.321  0.00  0.00    -0.323 OA
ATOM      4  H   UNL     1       9.669   2.003  21.407  0.00  0.00    +0.220 HD
ENDBRANCH   1   3
BRANCH   1   5
ATOM      5  O   UNL     1       9.365   4.429  24.436  0.00  0.00    -0.222 OA
BRANCH   5   6
ATOM      6  P   UNL     1       9.470   5.844  23.447  0.00  0.00    +0.395 P 
ATOM      7  O   UNL     1       8.740   6.977  24.184  0.00  0.00    -0.246 OA
BRANCH   6   8
ATOM      8  S   UNL     1      11.194   6.463  24.516  0.00  0.00    -0.058 S 
ATOM      9  H   UNL     1      10.635   7.598  24.957  0.00  0.00    +0.114 HD
ENDBRANCH   6   8
BRANCH   6  10
ATOM     10  O   UNL     1       8.064   5.338  22.575  0.00  0.00    -0.297 OA
BRANCH  10  11
ATOM     11  C   UNL     1       6.968   6.259  22.763  0.00  0.00    +0.205 C 
BRANCH  11  12
ATOM     12  C   UNL     1       5.647   5.898  23.509  0.00  0.00    +0.178 C 
ATOM     13  C   UNL     1       4.621   4.881  23.003  0.00  0.00    +0.178 C 
ATOM     14  C   UNL     1       4.765   3.646  23.917  0.00  0.00    +0.195 C 
ATOM     15  C   UNL     1       5.989   4.001  24.758  0.00  0.00    +0.253 C 
ATOM     16  O   UNL     1       5.976   5.439  24.835  0.00  0.00    -0.346 OA
BRANCH  15  17
ATOM     17  N   UNL     1       6.115   3.486  26.104  0.00  0.00    -0.286 N 
ATOM     18  C   UNL     1       6.112   2.175  26.500  0.00  0.00    +0.167 A 
ATOM     19  N   UNL     1       5.609   1.105  25.858  0.00  0.00    -0.216 NA
ATOM     20  C   UNL     1       5.890  -0.031  26.541  0.00  0.00    +0.225 A 
ATOM     21  N   UNL     1       6.646  -0.185  27.652  0.00  0.00    -0.219 NA
ATOM     22  C   UNL     1       7.176   0.920  28.220  0.00  0.00    +0.147 A 
ATOM     23  N   UNL     1       8.055   0.772  29.278  0.00  0.00    -0.341 N 
ATOM     24  H   UNL     1       8.266   1.612  29.801  0.00  0.00    +0.144 HD
ATOM     25  H   UNL     1       8.036  -0.124  29.741  0.00  0.00    +0.144 HD
ATOM     26  C   UNL     1       6.844   2.172  27.681  0.00  0.00    +0.147 A 
ATOM     27  N   UNL     1       7.158   3.452  28.080  0.00  0.00    -0.231 NA
ATOM     28  C   UNL     1       6.678   4.217  27.126  0.00  0.00    +0.203 A 
ENDBRANCH  15  17
BRANCH  14  29
ATOM     29  O   UNL     1       4.974   2.471  23.130  0.00  0.00    -0.385 OA
ATOM     30  H   UNL     1       4.090   2.152  22.859  0.00  0.00    +0.210 HD
ENDBRANCH  14  29
BRANCH  13  31
ATOM     31  O   UNL     1       3.299   5.439  23.208  0.00  0.00    -0.386 OA
ATOM     32  H   UNL     1       2.932   5.088  24.042  0.00  0.00    +0.210 HD
ENDBRANCH  13  31
ENDBRANCH  11  12
ENDBRANCH  10  11
ENDBRANCH   6  10
ENDBRANCH   5   6
ENDBRANCH   1   5
BRANCH   1  33
ATOM     33  C   UNL     1       9.244   1.932  24.742  0.00  0.00    +0.254 C 
BRANCH  33  34
ATOM     34  P   UNL     1       9.721   0.232  24.259  0.00  0.00    +0.342 P 
ATOM     35  O   UNL     1      11.170   0.532  24.652  0.00  0.00    -0.258 OA
BRANCH  34  36
ATOM     36  O   UNL     1       9.006  -0.380  25.595  0.00  0.00    -0.324 OA
ATOM     37  H   UNL     1       8.105  -0.077  25.810  0.00  0.00    +0.220 HD
ENDBRANCH  34  36
BRANCH  34  38
ATOM     38  O   UNL     1      10.171  -1.374  23.801  0.00  0.00    -0.305 OA
BRANCH  38  39
ATOM     39  C   UNL     1       9.360  -1.958  22.794  0.00  0.00    +0.204 C 
BRANCH  39  43
ATOM     40  C   UNL     1       6.581  -3.155  24.860  0.00  0.00    +0.253 C 
ATOM     41  C   UNL     1       7.782  -3.711  25.639  0.00  0.00    +0.195 C 
ATOM     42  C   UNL     1       8.941  -3.686  24.640  0.00  0.00    +0.178 C 
ATOM     43  C   UNL     1       8.379  -2.953  23.419  0.00  0.00    +0.178 C 
ATOM     44  O   UNL     1       7.191  -2.274  23.873  0.00  0.00    -0.346 OA
BRANCH  40  52
ATOM     45  N   UNL     1       2.622  -7.401  23.103  0.00  0.00    -0.341 N 
ATOM     46  H   UNL     1       2.727  -7.084  22.152  0.00  0.00    +0.144 HD
ATOM     47  H   UNL     1       2.498  -8.400  23.258  0.00  0.00    +0.144 HD
ATOM     48  C   UNL     1       3.559  -6.860  23.977  0.00  0.00    +0.147 A 
ATOM     49  C   UNL     1       4.262  -5.672  23.711  0.00  0.00    +0.147 A 
ATOM     50  N   UNL     1       4.242  -4.806  22.640  0.00  0.00    -0.231 NA
ATOM     51  C   UNL     1       5.088  -3.853  22.967  0.00  0.00    +0.203 A 
ATOM     52  N   UNL     1       5.688  -4.080  24.186  0.00  0.00    -0.286 N 
ATOM     53  C   UNL     1       5.149  -5.236  24.684  0.00  0.00    +0.167 A 
ATOM     54  N   UNL     1       5.408  -5.829  25.866  0.00  0.00    -0.216 NA
ATOM     55  C   UNL     1       4.703  -6.975  25.991  0.00  0.00    +0.225 A 
ATOM     56  N   UNL     1       3.814  -7.513  25.132  0.00  0.00    -0.219 NA
ENDBRANCH  40  52
BRANCH  42  57
ATOM     57  O   UNL     1       9.343  -5.007  24.299  0.00  0.00    -0.386 OA
ATOM     58  H   UNL     1       8.659  -5.380  23.708  0.00  0.00    +0.210 HD
ENDBRANCH  42  57
BRANCH  41  59
ATOM     59  O   UNL     1       8.099  -2.817  26.734  0.00  0.00    -0.385 OA
ATOM     60  H   UNL     1       8.148  -1.909  26.387  0.00  0.00    +0.210 HD
ENDBRANCH  41  59
ENDBRANCH  39  43
ENDBRANCH  38  39
ENDBRANCH  34  38
ENDBRANCH  33  34
ENDBRANCH   1  33
TORSDOF 19
ENDMDL
MODEL 8
REMARK VINA RESULT:      -6.9      5.212      9.590
REMARK  Name = 
REMARK  19 active torsions:
REMARK  status: ('A' for Active; 'I' for Inactive)
REMARK    1  A    between atoms: N_10  and  C_11
REMARK    2  A    between atoms: C_14  and  C_16
REMARK    3  A    between atoms: C_16  and  O_17
REMARK    4  A    between atoms: O_17  and  P_18
REMARK    5  A    between atoms: P_18  and  O_19
REMARK    6  A    between atoms: P_18  and  C_21
REMARK    7  A    between atoms: C_21  and  P_22
REMARK    8  A    between atoms: P_22  and  O_23
REMARK    9  A    between atoms: P_22  and  O_25
REMARK   10  A    between atoms: O_25  and  P_26
REMARK   11  A    between atoms: P_26  and  S_27
REMARK   12  A    between atoms: P_26  and  O_29
REMARK   13  A    between atoms: O_29  and  C_30
REMARK   14  A    between atoms: C_30  and  C_31
REMARK   15  A    between atoms: C_34  and  N_42
REMARK   16  A    between atoms: C_36  and  O_38
REMARK   17  A    between atoms: C_39  and  O_41
REMARK   18  A    between atoms: C_52  and  O_54
REMARK   19  A    between atoms: C_55  and  O_57
REMARK                            x       y       z     vdW  Elec       q    Type
REMARK                         _______ _______ _______ _____ _____    ______ ____
ROOT
ATOM      1  P   UNL     1      10.172   2.760  23.310  0.00  0.00    +0.349 P 
ATOM      2  O   UNL     1      10.492   2.349  21.872  0.00  0.00    -0.258 OA
ENDROOT
BRANCH   1   3
ATOM      3  O   UNL     1       8.640   1.970  23.157  0.00  0.00    -0.323 OA
ATOM      4  H   UNL     1       8.772   1.095  22.735  0.00  0.00    +0.220 HD
ENDBRANCH   1   3
BRANCH   1   5
ATOM      5  O   UNL     1      11.703   3.551  23.464  0.00  0.00    -0.222 OA
BRANCH   5   6
ATOM      6  P   UNL     1      11.386   5.242  23.288  0.00  0.00    +0.395 P 
ATOM      7  O   UNL     1      12.101   5.967  24.439  0.00  0.00    -0.246 OA
BRANCH   6   8
ATOM      8  S   UNL     1      13.202   5.471  22.218  0.00  0.00    -0.058 S 
ATOM      9  H   UNL     1      12.600   5.624  21.031  0.00  0.00    +0.114 HD
ENDBRANCH   6   8
BRANCH   6  10
ATOM     10  O   UNL     1       9.905   5.055  24.162  0.00  0.00    -0.297 OA
BRANCH  10  11
ATOM     11  C   UNL     1       9.147   6.284  24.185  0.00  0.00    +0.205 C 
BRANCH  11  12
ATOM     12  C   UNL     1       7.808   6.496  23.416  0.00  0.00    +0.178 C 
ATOM     13  C   UNL     1       7.535   5.978  22.000  0.00  0.00    +0.178 C 
ATOM     14  C   UNL     1       6.556   4.798  22.163  0.00  0.00    +0.195 C 
ATOM     15  C   UNL     1       6.491   4.632  23.680  0.00  0.00    +0.253 C 
ATOM     16  O   UNL     1       6.730   5.952  24.203  0.00  0.00    -0.346 OA
BRANCH  15  17
ATOM     17  N   UNL     1       5.289   4.120  24.300  0.00  0.00    -0.286 N 
ATOM     18  C   UNL     1       5.067   2.853  24.771  0.00  0.00    +0.167 A 
ATOM     19  N   UNL     1       5.693   1.710  24.434  0.00  0.00    -0.216 NA
ATOM     20  C   UNL     1       5.241   0.683  25.194  0.00  0.00    +0.225 A 
ATOM     21  N   UNL     1       4.374   0.715  26.231  0.00  0.00    -0.219 NA
ATOM     22  C   UNL     1       3.821   1.902  26.563  0.00  0.00    +0.147 A 
ATOM     23  N   UNL     1       3.035   1.980  27.698  0.00  0.00    -0.341 N 
ATOM     24  H   UNL     1       2.481   2.821  27.797  0.00  0.00    +0.144 HD
ATOM     25  H   UNL     1       2.693   1.101  28.056  0.00  0.00    +0.144 HD
ATOM     26  C   UNL     1       4.108   3.018  25.763  0.00  0.00    +0.147 A 
ATOM     27  N   UNL     1       3.645   4.315  25.801  0.00  0.00    -0.231 NA
ATOM     28  C   UNL     1       4.353   4.941  24.889  0.00  0.00    +0.203 A 
ENDBRANCH  15  17
BRANCH  14  29
ATOM     29  O   UNL     1       7.073   3.634  21.515  0.00  0.00    -0.385 OA
ATOM     30  H   UNL     1       6.379   2.947  21.573  0.00  0.00    +0.210 HD
ENDBRANCH  14  29
BRANCH  13  31
ATOM     31  O   UNL     1       6.858   7.027  21.264  0.00  0.00    -0.386 OA
ATOM     32  H   UNL     1       6.482   7.668  21.898  0.00  0.00    +0.210 HD
ENDBRANCH  13  31
ENDBRANCH  11  12
ENDBRANCH  10  11
ENDBRANCH   6  10
ENDBRANCH   5   6
ENDBRANCH   1   5
BRANCH   1  33
ATOM     33  C   UNL     1      10.731   1.453  24.462  0.00  0.00    +0.254 C 
BRANCH  33  34
ATOM     34  P   UNL     1       9.410   0.200  24.650  0.00  0.00    +0.342 P 
ATOM     35  O   UNL     1      10.228  -0.782  23.807  0.00  0.00    -0.258 OA
BRANCH  34  36
ATOM     36  O   UNL     1       9.842  -0.065  26.203  0.00  0.00    -0.324 OA
ATOM     37  H   UNL     1      10.792  -0.116  26.411  0.00  0.00    +0.220 HD
ENDBRANCH  34  36
BRANCH  34  38
ATOM     38  O   UNL     1       8.161  -0.983  24.827  0.00  0.00    -0.305 OA
BRANCH  38  39
ATOM     39  C   UNL     1       8.163  -1.674  26.067  0.00  0.00    +0.204 C 
BRANCH  39  43
ATOM     40  C   UNL     1       8.089  -5.311  26.501  0.00  0.00    +0.253 C 
ATOM     41  C   UNL     1       8.667  -5.200  25.082  0.00  0.00    +0.195 C 
ATOM     42  C   UNL     1       8.304  -3.786  24.622  0.00  0.00    +0.178 C 
ATOM     43  C   UNL     1       7.706  -3.121  25.865  0.00  0.00    +0.178 C 
ATOM     44  O   UNL     1       8.103  -3.937  26.984  0.00  0.00    -0.346 OA
BRANCH  40  52
ATOM     45  N   UNL     1       2.638  -7.245  28.328  0.00  0.00    -0.341 N 
ATOM     46  H   UNL     1       2.451  -7.558  27.388  0.00  0.00    +0.144 HD
ATOM     47  H   UNL     1       2.277  -7.809  29.095  0.00  0.00    +0.144 HD
ATOM     48  C   UNL     1       3.963  -6.881  28.539  0.00  0.00    +0.147 A 
ATOM     49  C   UNL     1       4.839  -6.526  27.498  0.00  0.00    +0.147 A 
ATOM     50  N   UNL     1       4.670  -6.452  26.133  0.00  0.00    -0.231 NA
ATOM     51  C   UNL     1       5.830  -6.031  25.677  0.00  0.00    +0.203 A 
ATOM     52  N   UNL     1       6.759  -5.866  26.680  0.00  0.00    -0.286 N 
ATOM     53  C   UNL     1       6.128  -6.160  27.858  0.00  0.00    +0.167 A 
ATOM     54  N   UNL     1       6.632  -6.104  29.106  0.00  0.00    -0.216 NA
ATOM     55  C   UNL     1       5.712  -6.498  30.014  0.00  0.00    +0.225 A 
ATOM     56  N   UNL     1       4.435  -6.877  29.805  0.00  0.00    -0.219 NA
ENDBRANCH  40  52
BRANCH  42  57
ATOM     57  O   UNL     1       7.356  -3.827  23.562  0.00  0.00    -0.386 OA
ATOM     58  H   UNL     1       7.378  -4.728  23.183  0.00  0.00    +0.210 HD
ENDBRANCH  42  57
BRANCH  41  59
ATOM     59  O   UNL     1      10.110  -5.308  25.142  0.00  0.00    -0.385 OA
ATOM     60  H   UNL     1      10.385  -5.249  26.074  0.00  0.00    +0.210 HD
ENDBRANCH  41  59
ENDBRANCH  39  43
ENDBRANCH  38  39
ENDBRANCH  34  38
ENDBRANCH  33  34
ENDBRANCH   1  33
TORSDOF 19
ENDMDL
MODEL 9
REMARK VINA RESULT:      -6.8      4.587      7.994
REMARK  Name = 
REMARK  19 active torsions:
REMARK  status: ('A' for Active; 'I' for Inactive)
REMARK    1  A    between atoms: N_10  and  C_11
REMARK    2  A    between atoms: C_14  and  C_16
REMARK    3  A    between atoms: C_16  and  O_17
REMARK    4  A    between atoms: O_17  and  P_18
REMARK    5  A    between atoms: P_18  and  O_19
REMARK    6  A    between atoms: P_18  and  C_21
REMARK    7  A    between atoms: C_21  and  P_22
REMARK    8  A    between atoms: P_22  and  O_23
REMARK    9  A    between atoms: P_22  and  O_25
REMARK   10  A    between atoms: O_25  and  P_26
REMARK   11  A    between atoms: P_26  and  S_27
REMARK   12  A    between atoms: P_26  and  O_29
REMARK   13  A    between atoms: O_29  and  C_30
REMARK   14  A    between atoms: C_30  and  C_31
REMARK   15  A    between atoms: C_34  and  N_42
REMARK   16  A    between atoms: C_36  and  O_38
REMARK   17  A    between atoms: C_39  and  O_41
REMARK   18  A    between atoms: C_52  and  O_54
REMARK   19  A    between atoms: C_55  and  O_57
REMARK                            x       y       z     vdW  Elec       q    Type
REMARK                         _______ _______ _______ _____ _____    ______ ____
ROOT
ATOM      1  P   UNL     1       7.221   2.974  26.021  0.00  0.00    +0.349 P 
ATOM      2  O   UNL     1       5.840   3.583  25.773  0.00  0.00    -0.258 OA
ENDROOT
BRANCH   1   3
ATOM      3  O   UNL     1       6.895   1.819  24.774  0.00  0.00    -0.323 OA
ATOM      4  H   UNL     1       6.207   1.195  25.088  0.00  0.00    +0.220 HD
ENDBRANCH   1   3
BRANCH   1   5
ATOM      5  O   UNL     1       7.547   4.128  27.268  0.00  0.00    -0.222 OA
BRANCH   5   6
ATOM      6  P   UNL     1       6.765   3.528  28.689  0.00  0.00    +0.395 P 
ATOM      7  O   UNL     1       7.789   3.576  29.834  0.00  0.00    -0.246 OA
BRANCH   6   8
ATOM      8  S   UNL     1       6.269   5.511  29.254  0.00  0.00    -0.058 S 
ATOM      9  H   UNL     1       5.908   5.172  30.499  0.00  0.00    +0.114 HD
ENDBRANCH   6   8
BRANCH   6  10
ATOM     10  O   UNL     1       7.171   1.910  28.229  0.00  0.00    -0.297 OA
BRANCH  10  11
ATOM     11  C   UNL     1       6.481   0.940  29.046  0.00  0.00    +0.205 C 
BRANCH  11  12
ATOM     12  C   UNL     1       5.091   0.331  28.689  0.00  0.00    +0.178 C 
ATOM     13  C   UNL     1       4.084   0.981  27.736  0.00  0.00    +0.178 C 
ATOM     14  C   UNL     1       4.113   0.135  26.447  0.00  0.00    +0.195 C 
ATOM     15  C   UNL     1       5.270  -0.827  26.713  0.00  0.00    +0.253 C 
ATOM     16  O   UNL     1       5.291  -0.989  28.143  0.00  0.00    -0.346 OA
BRANCH  15  17
ATOM     17  N   UNL     1       5.264  -2.145  26.118  0.00  0.00    -0.286 N 
ATOM     18  C   UNL     1       6.156  -3.162  26.332  0.00  0.00    +0.167 A 
ATOM     19  N   UNL     1       7.420  -3.088  26.788  0.00  0.00    -0.216 NA
ATOM     20  C   UNL     1       7.938  -4.330  26.948  0.00  0.00    +0.225 A 
ATOM     21  N   UNL     1       7.326  -5.527  26.801  0.00  0.00    -0.219 NA
ATOM     22  C   UNL     1       6.037  -5.539  26.398  0.00  0.00    +0.147 A 
ATOM     23  N   UNL     1       5.356  -6.743  26.366  0.00  0.00    -0.341 N 
ATOM     24  H   UNL     1       4.473  -6.740  25.871  0.00  0.00    +0.144 HD
ATOM     25  H   UNL     1       5.931  -7.571  26.378  0.00  0.00    +0.144 HD
ATOM     26  C   UNL     1       5.429  -4.317  26.070  0.00  0.00    +0.147 A 
ATOM     27  N   UNL     1       4.182  -4.021  25.567  0.00  0.00    -0.231 NA
ATOM     28  C   UNL     1       4.129  -2.709  25.580  0.00  0.00    +0.203 A 
ENDBRANCH  15  17
BRANCH  14  29
ATOM     29  O   UNL     1       4.356   0.970  25.313  0.00  0.00    -0.385 OA
ATOM     30  H   UNL     1       3.686   1.683  25.340  0.00  0.00    +0.210 HD
ENDBRANCH  14  29
BRANCH  13  31
ATOM     31  O   UNL     1       2.766   0.856  28.327  0.00  0.00    -0.386 OA
ATOM     32  H   UNL     1       2.153   0.490  27.660  0.00  0.00    +0.210 HD
ENDBRANCH  13  31
ENDBRANCH  11  12
ENDBRANCH  10  11
ENDBRANCH   6  10
ENDBRANCH   5   6
ENDBRANCH   1   5
BRANCH   1  33
ATOM     33  C   UNL     1       8.455   3.789  24.943  0.00  0.00    +0.254 C 
BRANCH  33  34
ATOM     34  P   UNL     1       8.525   2.921  23.333  0.00  0.00    +0.342 P 
ATOM     35  O   UNL     1       7.573   3.960  22.737  0.00  0.00    -0.258 OA
BRANCH  34  36
ATOM     36  O   UNL     1      10.036   3.482  23.064  0.00  0.00    -0.324 OA
ATOM     37  H   UNL     1      10.661   3.488  23.811  0.00  0.00    +0.220 HD
ENDBRANCH  34  36
BRANCH  34  38
ATOM     38  O   UNL     1       8.592   2.100  21.812  0.00  0.00    -0.305 OA
BRANCH  38  39
ATOM     39  C   UNL     1       9.630   1.139  21.697  0.00  0.00    +0.204 C 
BRANCH  39  43
ATOM     40  C   UNL     1       7.766  -1.287  23.712  0.00  0.00    +0.253 C 
ATOM     41  C   UNL     1       9.193  -1.516  24.230  0.00  0.00    +0.195 C 
ATOM     42  C   UNL     1      10.101  -0.918  23.153  0.00  0.00    +0.178 C 
ATOM     43  C   UNL     1       9.138  -0.227  22.182  0.00  0.00    +0.178 C 
ATOM     44  O   UNL     1       7.889  -0.093  22.887  0.00  0.00    -0.346 OA
BRANCH  40  52
ATOM     45  N   UNL     1       5.534  -6.369  21.267  0.00  0.00    -0.341 N 
ATOM     46  H   UNL     1       5.041  -5.809  20.590  0.00  0.00    +0.144 HD
ATOM     47  H   UNL     1       5.911  -7.263  20.957  0.00  0.00    +0.144 HD
ATOM     48  C   UNL     1       6.464  -5.652  22.011  0.00  0.00    +0.147 A 
ATOM     49  C   UNL     1       6.414  -4.255  22.165  0.00  0.00    +0.147 A 
ATOM     50  N   UNL     1       5.546  -3.302  21.679  0.00  0.00    -0.231 NA
ATOM     51  C   UNL     1       5.981  -2.168  22.183  0.00  0.00    +0.203 A 
ATOM     52  N   UNL     1       7.118  -2.334  22.942  0.00  0.00    -0.286 N 
ATOM     53  C   UNL     1       7.394  -3.675  22.956  0.00  0.00    +0.167 A 
ATOM     54  N   UNL     1       8.393  -4.309  23.601  0.00  0.00    -0.216 NA
ATOM     55  C   UNL     1       8.358  -5.636  23.351  0.00  0.00    +0.225 A 
ATOM     56  N   UNL     1       7.471  -6.328  22.607  0.00  0.00    -0.219 NA
ENDBRANCH  40  52
BRANCH  42  57
ATOM     57  O   UNL     1      10.843  -1.936  22.493  0.00  0.00    -0.386 OA
ATOM     58  H   UNL     1      11.751  -1.920  22.856  0.00  0.00    +0.210 HD
ENDBRANCH  42  57
BRANCH  41  59
ATOM     59  O   UNL     1       9.384  -0.771  25.458  0.00  0.00    -0.385 OA
ATOM     60  H   UNL     1       9.819   0.073  25.242  0.00  0.00    +0.210 HD
ENDBRANCH  41  59
ENDBRANCH  39  43
ENDBRANCH  38  39
ENDBRANCH  34  38
ENDBRANCH  33  34
ENDBRANCH   1  33
TORSDOF 19
ENDMDL
