MODEL 1
REMARK VINA RESULT:      -6.0      0.000      0.000
REMARK  Name = 
REMARK  3 active torsions:
REMARK  status: ('A' for Active; 'I' for Inactive)
REMARK    1  A    between atoms: C_1  and  C_2
REMARK    2  A    between atoms: C_3  and  C_8
REMARK    3  A    between atoms: N_10  and  C_11
REMARK                            x       y       z     vdW  Elec       q    Type
REMARK                         _______ _______ _______ _____ _____    ______ ____
ROOT
ATOM      1  C   UNL     1       9.025  -2.686  23.834  0.00  0.00    +0.258 C 
ATOM      2  N   UNL     1       8.468  -1.418  23.781  0.00  0.00    -0.281 N 
ATOM      3  H   UNL     1       7.484  -1.354  24.018  0.00  0.00    +0.155 HD
ATOM      4  O   UNL     1      10.223  -2.900  23.718  0.00  0.00    -0.269 OA
ENDROOT
BRANCH   1  11
ATOM      5  C   UNL     1       8.674  -4.110  26.572  0.00  0.00    +0.087 C 
ATOM      6  C   UNL     1       7.906  -4.422  25.311  0.00  0.00    +0.113 C 
ATOM      7  O   UNL     1       7.088  -5.507  25.552  0.00  0.00    -0.494 OA
ATOM      8  C   UNL     1       5.853  -5.671  24.870  0.00  0.00    +0.239 C 
ATOM      9  C   UNL     1       5.678  -5.041  23.498  0.00  0.00    +0.115 C 
ATOM     10  S   UNL     1       7.185  -4.451  22.710  0.00  0.00    -0.114 S 
ATOM     11  C   UNL     1       8.034  -3.820  24.104  0.00  0.00    +0.107 C 
ENDBRANCH   1  11
BRANCH   2  12
ATOM     12  C   UNL     1       9.147  -0.210  23.505  0.00  0.00    +0.034 A 
ATOM     13  C   UNL     1       9.166   0.250  22.182  0.00  0.00    +0.023 A 
ATOM     14  C   UNL     1       9.791   1.462  21.859  0.00  0.00    +0.002 A 
ATOM     15  C   UNL     1      10.427   2.209  22.848  0.00  0.00    +0.000 A 
ATOM     16  C   UNL     1      10.448   1.739  24.156  0.00  0.00    +0.002 A 
ATOM     17  C   UNL     1       9.814   0.536  24.480  0.00  0.00    +0.023 A 
ENDBRANCH   2  12
TORSDOF 2
ENDMDL
MODEL 2
REMARK VINA RESULT:      -5.7      1.319      2.211
REMARK  Name = 
REMARK  3 active torsions:
REMARK  status: ('A' for Active; 'I' for Inactive)
REMARK    1  A    between atoms: C_1  and  C_2
REMARK    2  A    between atoms: C_3  and  C_8
REMARK    3  A    between atoms: N_10  and  C_11
REMARK                            x       y       z     vdW  Elec       q    Type
REMARK                         _______ _______ _______ _____ _____    ______ ____
ROOT
ATOM      1  C   UNL     1       8.867  -2.518  24.176  0.00  0.00    +0.258 C 
ATOM      2  N   UNL     1       8.398  -1.215  24.147  0.00  0.00    -0.281 N 
ATOM      3  H   UNL     1       7.522  -1.046  24.628  0.00  0.00    +0.155 HD
ATOM      4  O   UNL     1       9.972  -2.846  23.769  0.00  0.00    -0.269 OA
ENDROOT
BRANCH   1  11
ATOM      5  C   UNL     1       7.151  -4.565  22.589  0.00  0.00    +0.087 C 
ATOM      6  C   UNL     1       7.182  -4.416  24.091  0.00  0.00    +0.113 C 
ATOM      7  O   UNL     1       6.251  -5.277  24.636  0.00  0.00    -0.494 OA
ATOM      8  C   UNL     1       6.428  -5.841  25.927  0.00  0.00    +0.239 C 
ATOM      9  C   UNL     1       7.275  -5.098  26.947  0.00  0.00    +0.115 C 
ATOM     10  S   UNL     1       7.673  -3.391  26.538  0.00  0.00    -0.114 S 
ATOM     11  C   UNL     1       7.917  -3.537  24.812  0.00  0.00    +0.107 C 
ENDBRANCH   1  11
BRANCH   2  12
ATOM     12  C   UNL     1       9.051  -0.098  23.580  0.00  0.00    +0.034 A 
ATOM     13  C   UNL     1       9.815   0.720  24.423  0.00  0.00    +0.023 A 
ATOM     14  C   UNL     1      10.517   1.817  23.907  0.00  0.00    +0.002 A 
ATOM     15  C   UNL     1      10.438   2.125  22.550  0.00  0.00    +0.000 A 
ATOM     16  C   UNL     1       9.650   1.342  21.714  0.00  0.00    +0.002 A 
ATOM     17  C   UNL     1       8.960   0.240  22.228  0.00  0.00    +0.023 A 
ENDBRANCH   2  12
TORSDOF 2
ENDMDL
MODEL 3
REMARK VINA RESULT:      -5.6      1.759      2.516
REMARK  Name = 
REMARK  3 active torsions:
REMARK  status: ('A' for Active; 'I' for Inactive)
REMARK    1  A    between atoms: C_1  and  C_2
REMARK    2  A    between atoms: C_3  and  C_8
REMARK    3  A    between atoms: N_10  and  C_11
REMARK                            x       y       z     vdW  Elec       q    Type
REMARK                         _______ _______ _______ _____ _____    ______ ____
ROOT
ATOM      1  C   UNL     1       7.907  -4.031  24.045  0.00  0.00    +0.258 C 
ATOM      2  N   UNL     1       7.659  -2.679  23.867  0.00  0.00    -0.281 N 
ATOM      3  H   UNL     1       6.692  -2.388  23.959  0.00  0.00    +0.155 HD
ATOM      4  O   UNL     1       9.030  -4.506  24.109  0.00  0.00    -0.269 OA
ENDROOT
BRANCH   1  11
ATOM      5  C   UNL     1       6.642  -5.755  21.791  0.00  0.00    +0.087 C 
ATOM      6  C   UNL     1       6.133  -5.644  23.208  0.00  0.00    +0.113 C 
ATOM      7  O   UNL     1       4.959  -6.363  23.310  0.00  0.00    -0.494 OA
ATOM      8  C   UNL     1       4.567  -6.975  24.530  0.00  0.00    +0.239 C 
ATOM      9  C   UNL     1       5.066  -6.392  25.842  0.00  0.00    +0.115 C 
ATOM     10  S   UNL     1       5.815  -4.758  25.737  0.00  0.00    -0.114 S 
ATOM     11  C   UNL     1       6.660  -4.904  24.212  0.00  0.00    +0.107 C 
ENDBRANCH   1  11
BRANCH   2  12
ATOM     12  C   UNL     1       8.621  -1.669  23.647  0.00  0.00    +0.034 A 
ATOM     13  C   UNL     1       8.902  -1.299  22.326  0.00  0.00    +0.023 A 
ATOM     14  C   UNL     1       9.818  -0.274  22.052  0.00  0.00    +0.002 A 
ATOM     15  C   UNL     1      10.483   0.369  23.093  0.00  0.00    +0.000 A 
ATOM     16  C   UNL     1      10.239  -0.020  24.406  0.00  0.00    +0.002 A 
ATOM     17  C   UNL     1       9.317  -1.033  24.679  0.00  0.00    +0.023 A 
ENDBRANCH   2  12
TORSDOF 2
ENDMDL
MODEL 4
REMARK VINA RESULT:      -5.6      1.335      1.581
REMARK  Name = 
REMARK  3 active torsions:
REMARK  status: ('A' for Active; 'I' for Inactive)
REMARK    1  A    between atoms: C_1  and  C_2
REMARK    2  A    between atoms: C_3  and  C_8
REMARK    3  A    between atoms: N_10  and  C_11
REMARK                            x       y       z     vdW  Elec       q    Type
REMARK                         _______ _______ _______ _____ _____    ______ ____
ROOT
ATOM      1  C   UNL     1       8.203  -3.976  24.181  0.00  0.00    +0.258 C 
ATOM      2  N   UNL     1       7.770  -2.701  23.851  0.00  0.00    -0.281 N 
ATOM      3  H   UNL     1       6.779  -2.522  23.973  0.00  0.00    +0.155 HD
ATOM      4  O   UNL     1       9.381  -4.296  24.226  0.00  0.00    -0.269 OA
ENDROOT
BRANCH   1  11
ATOM      5  C   UNL     1       7.665  -5.054  27.045  0.00  0.00    +0.087 C 
ATOM      6  C   UNL     1       6.885  -5.417  25.804  0.00  0.00    +0.113 C 
ATOM      7  O   UNL     1       5.953  -6.379  26.138  0.00  0.00    -0.494 OA
ATOM      8  C   UNL     1       4.716  -6.485  25.447  0.00  0.00    +0.239 C 
ATOM      9  C   UNL     1       4.628  -5.991  24.013  0.00  0.00    +0.115 C 
ATOM     10  S   UNL     1       6.200  -5.649  23.204  0.00  0.00    -0.114 S 
ATOM     11  C   UNL     1       7.093  -4.965  24.545  0.00  0.00    +0.107 C 
ENDBRANCH   1  11
BRANCH   2  12
ATOM     12  C   UNL     1       8.578  -1.618  23.438  0.00  0.00    +0.034 A 
ATOM     13  C   UNL     1       8.785  -1.434  22.065  0.00  0.00    +0.023 A 
ATOM     14  C   UNL     1       9.544  -0.353  21.598  0.00  0.00    +0.002 A 
ATOM     15  C   UNL     1      10.127   0.536  22.499  0.00  0.00    +0.000 A 
ATOM     16  C   UNL     1       9.959   0.336  23.865  0.00  0.00    +0.002 A 
ATOM     17  C   UNL     1       9.192  -0.735  24.329  0.00  0.00    +0.023 A 
ENDBRANCH   2  12
TORSDOF 2
ENDMDL
MODEL 5
REMARK VINA RESULT:      -5.6      2.759      6.173
REMARK  Name = 
REMARK  3 active torsions:
REMARK  status: ('A' for Active; 'I' for Inactive)
REMARK    1  A    between atoms: C_1  and  C_2
REMARK    2  A    between atoms: C_3  and  C_8
REMARK    3  A    between atoms: N_10  and  C_11
REMARK                            x       y       z     vdW  Elec       q    Type
REMARK                         _______ _______ _______ _____ _____    ______ ____
ROOT
ATOM      1  C   UNL     1       8.498  -0.901  22.574  0.00  0.00    +0.258 C 
ATOM      2  N   UNL     1       7.490  -1.700  23.093  0.00  0.00    -0.281 N 
ATOM      3  H   UNL     1       6.802  -1.229  23.670  0.00  0.00    +0.155 HD
ATOM      4  O   UNL     1       9.310  -1.293  21.750  0.00  0.00    -0.269 OA
ENDROOT
BRANCH   1  11
ATOM      5  C   UNL     1      10.354   0.205  24.806  0.00  0.00    +0.087 C 
ATOM      6  C   UNL     1       9.320   0.999  24.045  0.00  0.00    +0.113 C 
ATOM      7  O   UNL     1       9.272   2.274  24.570  0.00  0.00    -0.494 OA
ATOM      8  C   UNL     1       8.922   3.394  23.769  0.00  0.00    +0.239 C 
ATOM      9  C   UNL     1       8.045   3.181  22.546  0.00  0.00    +0.115 C 
ATOM     10  S   UNL     1       7.233   1.578  22.435  0.00  0.00    -0.114 S 
ATOM     11  C   UNL     1       8.497   0.548  23.068  0.00  0.00    +0.107 C 
ENDBRANCH   1  11
BRANCH   2  12
ATOM     12  C   UNL     1       7.292  -3.075  22.839  0.00  0.00    +0.034 A 
ATOM     13  C   UNL     1       6.369  -3.439  21.850  0.00  0.00    +0.023 A 
ATOM     14  C   UNL     1       6.163  -4.787  21.530  0.00  0.00    +0.002 A 
ATOM     15  C   UNL     1       6.854  -5.785  22.214  0.00  0.00    +0.000 A 
ATOM     16  C   UNL     1       7.743  -5.433  23.225  0.00  0.00    +0.002 A 
ATOM     17  C   UNL     1       7.956  -4.088  23.535  0.00  0.00    +0.023 A 
ENDBRANCH   2  12
TORSDOF 2
ENDMDL
MODEL 6
REMARK VINA RESULT:      -5.5      2.635      3.706
REMARK  Name = 
REMARK  3 active torsions:
REMARK  status: ('A' for Active; 'I' for Inactive)
REMARK    1  A    between atoms: C_1  and  C_2
REMARK    2  A    between atoms: C_3  and  C_8
REMARK    3  A    between atoms: N_10  and  C_11
REMARK                            x       y       z     vdW  Elec       q    Type
REMARK                         _______ _______ _______ _____ _____    ______ ____
ROOT
ATOM      1  C   UNL     1      10.299   0.664  24.250  0.00  0.00    +0.258 C 
ATOM      2  N   UNL     1       9.630   1.762  23.732  0.00  0.00    -0.281 N 
ATOM      3  H   UNL     1       8.709   1.580  23.348  0.00  0.00    +0.155 HD
ATOM      4  O   UNL     1      11.347   0.747  24.874  0.00  0.00    -0.269 OA
ENDROOT
BRANCH   1  11
ATOM      5  C   UNL     1       8.761  -0.904  26.447  0.00  0.00    +0.087 C 
ATOM      6  C   UNL     1       8.942  -1.342  25.014  0.00  0.00    +0.113 C 
ATOM      7  O   UNL     1       8.390  -2.598  24.866  0.00  0.00    -0.494 OA
ATOM      8  C   UNL     1       7.838  -3.025  23.629  0.00  0.00    +0.239 C 
ATOM      9  C   UNL     1       8.349  -2.404  22.339  0.00  0.00    +0.115 C 
ATOM     10  S   UNL     1       9.865  -1.444  22.480  0.00  0.00    -0.114 S 
ATOM     11  C   UNL     1       9.605  -0.683  24.033  0.00  0.00    +0.107 C 
ENDBRANCH   1  11
BRANCH   2  12
ATOM     12  C   UNL     1      10.070   3.104  23.755  0.00  0.00    +0.034 A 
ATOM     13  C   UNL     1       9.198   4.078  24.257  0.00  0.00    +0.023 A 
ATOM     14  C   UNL     1       9.598   5.418  24.340  0.00  0.00    +0.002 A 
ATOM     15  C   UNL     1      10.862   5.801  23.896  0.00  0.00    +0.000 A 
ATOM     16  C   UNL     1      11.719   4.847  23.359  0.00  0.00    +0.002 A 
ATOM     17  C   UNL     1      11.323   3.508  23.288  0.00  0.00    +0.023 A 
ENDBRANCH   2  12
TORSDOF 2
ENDMDL
MODEL 7
REMARK VINA RESULT:      -5.4      1.814      2.149
REMARK  Name = 
REMARK  3 active torsions:
REMARK  status: ('A' for Active; 'I' for Inactive)
REMARK    1  A    between atoms: C_1  and  C_2
REMARK    2  A    between atoms: C_3  and  C_8
REMARK    3  A    between atoms: N_10  and  C_11
REMARK                            x       y       z     vdW  Elec       q    Type
REMARK                         _______ _______ _______ _____ _____    ______ ____
ROOT
ATOM      1  C   UNL     1       7.677  -3.105  23.831  0.00  0.00    +0.258 C 
ATOM      2  N   UNL     1       7.959  -1.797  24.192  0.00  0.00    -0.281 N 
ATOM      3  H   UNL     1       7.981  -1.605  25.188  0.00  0.00    +0.155 HD
ATOM      4  O   UNL     1       7.758  -3.519  22.685  0.00  0.00    -0.269 OA
ENDROOT
BRANCH   1  11
ATOM      5  C   UNL     1       9.658  -4.992  25.303  0.00  0.00    +0.087 C 
ATOM      6  C   UNL     1       8.188  -4.844  25.611  0.00  0.00    +0.113 C 
ATOM      7  O   UNL     1       7.851  -5.754  26.591  0.00  0.00    -0.494 OA
ATOM      8  C   UNL     1       6.806  -5.494  27.517  0.00  0.00    +0.239 C 
ATOM      9  C   UNL     1       5.682  -4.553  27.116  0.00  0.00    +0.115 C 
ATOM     10  S   UNL     1       5.594  -4.140  25.366  0.00  0.00    -0.114 S 
ATOM     11  C   UNL     1       7.299  -4.032  24.990  0.00  0.00    +0.107 C 
ENDBRANCH   1  11
BRANCH   2  12
ATOM     12  C   UNL     1       8.289  -0.735  23.320  0.00  0.00    +0.034 A 
ATOM     13  C   UNL     1       7.291   0.195  23.004  0.00  0.00    +0.023 A 
ATOM     14  C   UNL     1       7.574   1.290  22.177  0.00  0.00    +0.002 A 
ATOM     15  C   UNL     1       8.848   1.448  21.634  0.00  0.00    +0.000 A 
ATOM     16  C   UNL     1       9.833   0.507  21.911  0.00  0.00    +0.002 A 
ATOM     17  C   UNL     1       9.553  -0.578  22.747  0.00  0.00    +0.023 A 
ENDBRANCH   2  12
TORSDOF 2
ENDMDL
MODEL 8
REMARK VINA RESULT:      -5.4      2.859      3.205
REMARK  Name = 
REMARK  3 active torsions:
REMARK  status: ('A' for Active; 'I' for Inactive)
REMARK    1  A    between atoms: C_1  and  C_2
REMARK    2  A    between atoms: C_3  and  C_8
REMARK    3  A    between atoms: N_10  and  C_11
REMARK                            x       y       z     vdW  Elec       q    Type
REMARK                         _______ _______ _______ _____ _____    ______ ____
ROOT
ATOM      1  C   UNL     1       5.863  -3.256  22.613  0.00  0.00    +0.258 C 
ATOM      2  N   UNL     1       6.905  -2.585  23.233  0.00  0.00    -0.281 N 
ATOM      3  H   UNL     1       7.238  -2.987  24.103  0.00  0.00    +0.155 HD
ATOM      4  O   UNL     1       5.454  -2.979  21.495  0.00  0.00    -0.269 OA
ENDROOT
BRANCH   1  11
ATOM      5  C   UNL     1       6.526  -6.249  22.103  0.00  0.00    +0.087 C 
ATOM      6  C   UNL     1       5.587  -5.721  23.162  0.00  0.00    +0.113 C 
ATOM      7  O   UNL     1       5.001  -6.793  23.803  0.00  0.00    -0.494 OA
ATOM      8  C   UNL     1       4.595  -6.714  25.161  0.00  0.00    +0.239 C 
ATOM      9  C   UNL     1       4.241  -5.357  25.747  0.00  0.00    +0.115 C 
ATOM     10  S   UNL     1       4.021  -4.024  24.558  0.00  0.00    -0.114 S 
ATOM     11  C   UNL     1       5.278  -4.425  23.409  0.00  0.00    +0.107 C 
ENDBRANCH   1  11
BRANCH   2  12
ATOM     12  C   UNL     1       7.587  -1.451  22.740  0.00  0.00    +0.034 A 
ATOM     13  C   UNL     1       8.778  -1.652  22.030  0.00  0.00    +0.023 A 
ATOM     14  C   UNL     1       9.474  -0.565  21.484  0.00  0.00    +0.002 A 
ATOM     15  C   UNL     1       9.003   0.733  21.667  0.00  0.00    +0.000 A 
ATOM     16  C   UNL     1       7.843   0.944  22.405  0.00  0.00    +0.002 A 
ATOM     17  C   UNL     1       7.143  -0.141  22.939  0.00  0.00    +0.023 A 
ENDBRANCH   2  12
TORSDOF 2
ENDMDL
MODEL 9
REMARK VINA RESULT:      -5.4      2.145      6.091
REMARK  Name = 
REMARK  3 active torsions:
REMARK  status: ('A' for Active; 'I' for Inactive)
REMARK    1  A    between atoms: C_1  and  C_2
REMARK    2  A    between atoms: C_3  and  C_8
REMARK    3  A    between atoms: N_10  and  C_11
REMARK                            x       y       z     vdW  Elec       q    Type
REMARK                         _______ _______ _______ _____ _____    ______ ____
ROOT
ATOM      1  C   UNL     1       8.843  -1.969  23.281  0.00  0.00    +0.258 C 
ATOM      2  N   UNL     1       7.518  -2.294  23.036  0.00  0.00    -0.281 N 
ATOM      3  H   UNL     1       6.900  -1.518  22.831  0.00  0.00    +0.155 HD
ATOM      4  O   UNL     1       9.730  -2.801  23.399  0.00  0.00    -0.269 OA
ENDROOT
BRANCH   1  11
ATOM      5  C   UNL     1       9.215  -0.352  25.908  0.00  0.00    +0.087 C 
ATOM      6  C   UNL     1       9.299   0.208  24.508  0.00  0.00    +0.113 C 
ATOM      7  O   UNL     1       9.475   1.574  24.591  0.00  0.00    -0.494 OA
ATOM      8  C   UNL     1      10.183   2.293  23.592  0.00  0.00    +0.239 C 
ATOM      9  C   UNL     1      10.237   1.734  22.179  0.00  0.00    +0.115 C 
ATOM     10  S   UNL     1       9.090   0.394  21.824  0.00  0.00    -0.114 S 
ATOM     11  C   UNL     1       9.143  -0.469  23.345  0.00  0.00    +0.107 C 
ENDBRANCH   1  11
BRANCH   2  12
ATOM     12  C   UNL     1       6.969  -3.594  22.973  0.00  0.00    +0.034 A 
ATOM     13  C   UNL     1       6.949  -4.244  21.732  0.00  0.00    +0.023 A 
ATOM     14  C   UNL     1       6.453  -5.550  21.620  0.00  0.00    +0.002 A 
ATOM     15  C   UNL     1       5.945  -6.206  22.740  0.00  0.00    +0.000 A 
ATOM     16  C   UNL     1       5.925  -5.552  23.968  0.00  0.00    +0.002 A 
ATOM     17  C   UNL     1       6.432  -4.255  24.080  0.00  0.00    +0.023 A 
ENDBRANCH   2  12
TORSDOF 2
ENDMDL
