MODEL 1
REMARK VINA RESULT:      -4.5      0.000      0.000
REMARK  Name = 
REMARK  3 active torsions:
REMARK  status: ('A' for Active; 'I' for Inactive)
REMARK    1  A    between atoms: C_1  and  C_2
REMARK    2  A    between atoms: C_6  and  O_7
REMARK    3  A    between atoms: C_8  and  O_9
REMARK                            x       y       z     vdW  Elec       q    Type
REMARK                         _______ _______ _______ _____ _____    ______ ____
ROOT
ATOM      1  C   UNL     1       9.425  -2.381  23.108  0.00  0.00    +0.047 C 
ATOM      2  C   UNL     1       9.761  -0.936  23.328  0.00  0.00    -0.005 A 
ATOM      3  C   UNL     1       9.770  -0.031  22.266  0.00  0.00    +0.161 A 
ATOM      4  C   UNL     1      10.081   1.314  22.469  0.00  0.00    +0.158 A 
ATOM      5  C   UNL     1      10.404   1.783  23.735  0.00  0.00    +0.049 A 
ATOM      6  C   UNL     1      10.410   0.888  24.807  0.00  0.00    +0.004 A 
ATOM      7  C   UNL     1      10.090  -0.461  24.605  0.00  0.00    +0.007 A 
ENDROOT
BRANCH   3   8
ATOM      8  O   UNL     1       9.470  -0.457  21.000  0.00  0.00    -0.503 OA
ATOM      9  H   UNL     1       8.886  -1.230  21.137  0.00  0.00    +0.292 HD
ENDBRANCH   3   8
BRANCH   4  10
ATOM     10  O   UNL     1      10.056   2.142  21.379  0.00  0.00    -0.503 OA
ATOM     11  H   UNL     1      10.944   2.144  20.983  0.00  0.00    +0.292 HD
ENDBRANCH   4  10
TORSDOF 2
ENDMDL
MODEL 2
REMARK VINA RESULT:      -4.5      0.584      2.823
REMARK  Name = 
REMARK  3 active torsions:
REMARK  status: ('A' for Active; 'I' for Inactive)
REMARK    1  A    between atoms: C_1  and  C_2
REMARK    2  A    between atoms: C_6  and  O_7
REMARK    3  A    between atoms: C_8  and  O_9
REMARK                            x       y       z     vdW  Elec       q    Type
REMARK                         _______ _______ _______ _____ _____    ______ ____
ROOT
ATOM      1  C   UNL     1      10.172   3.336  23.751  0.00  0.00    +0.047 C 
ATOM      2  C   UNL     1      10.125   1.844  23.612  0.00  0.00    -0.005 A 
ATOM      3  C   UNL     1       9.842   1.244  22.385  0.00  0.00    +0.161 A 
ATOM      4  C   UNL     1       9.799  -0.144  22.255  0.00  0.00    +0.158 A 
ATOM      5  C   UNL     1      10.024  -0.965  23.351  0.00  0.00    +0.049 A 
ATOM      6  C   UNL     1      10.298  -0.381  24.589  0.00  0.00    +0.004 A 
ATOM      7  C   UNL     1      10.349   1.013  24.719  0.00  0.00    +0.007 A 
ENDROOT
BRANCH   3   8
ATOM      8  O   UNL     1       9.602   2.020  21.283  0.00  0.00    -0.503 OA
ATOM      9  H   UNL     1       9.942   2.903  21.530  0.00  0.00    +0.292 HD
ENDBRANCH   3   8
BRANCH   4  10
ATOM     10  O   UNL     1       9.529  -0.657  21.015  0.00  0.00    -0.503 OA
ATOM     11  H   UNL     1       9.489  -1.626  21.093  0.00  0.00    +0.292 HD
ENDBRANCH   4  10
TORSDOF 2
ENDMDL
MODEL 3
REMARK VINA RESULT:      -4.3      2.073      3.750
REMARK  Name = 
REMARK  3 active torsions:
REMARK  status: ('A' for Active; 'I' for Inactive)
REMARK    1  A    between atoms: C_1  and  C_2
REMARK    2  A    between atoms: C_6  and  O_7
REMARK    3  A    between atoms: C_8  and  O_9
REMARK                            x       y       z     vdW  Elec       q    Type
REMARK                         _______ _______ _______ _____ _____    ______ ____
ROOT
ATOM      1  C   UNL     1      10.582   2.805  23.612  0.00  0.00    +0.047 C 
ATOM      2  C   UNL     1      10.183   1.447  23.115  0.00  0.00    -0.005 A 
ATOM      3  C   UNL     1      10.232   0.332  23.951  0.00  0.00    +0.161 A 
ATOM      4  C   UNL     1       9.861  -0.931  23.490  0.00  0.00    +0.158 A 
ATOM      5  C   UNL     1       9.447  -1.112  22.177  0.00  0.00    +0.049 A 
ATOM      6  C   UNL     1       9.403  -0.008  21.324  0.00  0.00    +0.004 A 
ATOM      7  C   UNL     1       9.768   1.262  21.789  0.00  0.00    +0.007 A 
ENDROOT
BRANCH   3   8
ATOM      8  O   UNL     1      10.648   0.467  25.249  0.00  0.00    -0.503 OA
ATOM      9  H   UNL     1       9.874   0.845  25.713  0.00  0.00    +0.292 HD
ENDBRANCH   3   8
BRANCH   4  10
ATOM     10  O   UNL     1       9.923  -1.973  24.376  0.00  0.00    -0.503 OA
ATOM     11  H   UNL     1       9.579  -1.660  25.231  0.00  0.00    +0.292 HD
ENDBRANCH   4  10
TORSDOF 2
ENDMDL
MODEL 4
REMARK VINA RESULT:      -4.2      1.317      2.573
REMARK  Name = 
REMARK  3 active torsions:
REMARK  status: ('A' for Active; 'I' for Inactive)
REMARK    1  A    between atoms: C_1  and  C_2
REMARK    2  A    between atoms: C_6  and  O_7
REMARK    3  A    between atoms: C_8  and  O_9
REMARK                            x       y       z     vdW  Elec       q    Type
REMARK                         _______ _______ _______ _____ _____    ______ ____
ROOT
ATOM      1  C   UNL     1       9.428  -0.371  25.642  0.00  0.00    +0.047 C 
ATOM      2  C   UNL     1       9.449  -0.271  24.146  0.00  0.00    -0.005 A 
ATOM      3  C   UNL     1       9.787   0.924  23.511  0.00  0.00    +0.161 A 
ATOM      4  C   UNL     1       9.807   1.019  22.118  0.00  0.00    +0.158 A 
ATOM      5  C   UNL     1       9.476  -0.075  21.330  0.00  0.00    +0.049 A 
ATOM      6  C   UNL     1       9.125  -1.275  21.950  0.00  0.00    +0.004 A 
ATOM      7  C   UNL     1       9.112  -1.373  23.348  0.00  0.00    +0.007 A 
ENDROOT
BRANCH   3   8
ATOM      8  O   UNL     1      10.106   2.028  24.254  0.00  0.00    -0.503 OA
ATOM      9  H   UNL     1       9.243   2.378  24.551  0.00  0.00    +0.292 HD
ENDBRANCH   3   8
BRANCH   4  10
ATOM     10  O   UNL     1      10.162   2.221  21.570  0.00  0.00    -0.503 OA
ATOM     11  H   UNL     1      10.097   2.899  22.265  0.00  0.00    +0.292 HD
ENDBRANCH   4  10
TORSDOF 2
ENDMDL
MODEL 5
REMARK VINA RESULT:      -4.1      1.769      3.091
REMARK  Name = 
REMARK  3 active torsions:
REMARK  status: ('A' for Active; 'I' for Inactive)
REMARK    1  A    between atoms: C_1  and  C_2
REMARK    2  A    between atoms: C_6  and  O_7
REMARK    3  A    between atoms: C_8  and  O_9
REMARK                            x       y       z     vdW  Elec       q    Type
REMARK                         _______ _______ _______ _____ _____    ______ ____
ROOT
ATOM      1  C   UNL     1       9.453   1.123  21.607  0.00  0.00    +0.047 C 
ATOM      2  C   UNL     1       9.400   0.284  22.849  0.00  0.00    -0.005 A 
ATOM      3  C   UNL     1       9.804  -1.051  22.832  0.00  0.00    +0.161 A 
ATOM      4  C   UNL     1       9.756  -1.833  23.988  0.00  0.00    +0.158 A 
ATOM      5  C   UNL     1       9.290  -1.301  25.182  0.00  0.00    +0.049 A 
ATOM      6  C   UNL     1       8.871   0.030  25.214  0.00  0.00    +0.004 A 
ATOM      7  C   UNL     1       8.927   0.817  24.056  0.00  0.00    +0.007 A 
ENDROOT
BRANCH   3   8
ATOM      8  O   UNL     1      10.257  -1.615  21.671  0.00  0.00    -0.503 OA
ATOM      9  H   UNL     1       9.996  -2.555  21.740  0.00  0.00    +0.292 HD
ENDBRANCH   3   8
BRANCH   4  10
ATOM     10  O   UNL     1      10.182  -3.130  23.894  0.00  0.00    -0.503 OA
ATOM     11  H   UNL     1       9.476  -3.647  23.469  0.00  0.00    +0.292 HD
ENDBRANCH   4  10
TORSDOF 2
ENDMDL
MODEL 6
REMARK VINA RESULT:      -4.0      6.133      7.134
REMARK  Name = 
REMARK  3 active torsions:
REMARK  status: ('A' for Active; 'I' for Inactive)
REMARK    1  A    between atoms: C_1  and  C_2
REMARK    2  A    between atoms: C_6  and  O_7
REMARK    3  A    between atoms: C_8  and  O_9
REMARK                            x       y       z     vdW  Elec       q    Type
REMARK                         _______ _______ _______ _____ _____    ______ ____
ROOT
ATOM      1  C   UNL     1       5.209  -5.060  27.032  0.00  0.00    +0.047 C 
ATOM      2  C   UNL     1       6.295  -4.991  26.000  0.00  0.00    -0.005 A 
ATOM      3  C   UNL     1       7.595  -5.398  26.296  0.00  0.00    +0.161 A 
ATOM      4  C   UNL     1       8.606  -5.335  25.336  0.00  0.00    +0.158 A 
ATOM      5  C   UNL     1       8.343  -4.850  24.062  0.00  0.00    +0.049 A 
ATOM      6  C   UNL     1       7.049  -4.428  23.753  0.00  0.00    +0.004 A 
ATOM      7  C   UNL     1       6.032  -4.499  24.714  0.00  0.00    +0.007 A 
ENDROOT
BRANCH   3   8
ATOM      8  O   UNL     1       7.898  -5.869  27.545  0.00  0.00    -0.503 OA
ATOM      9  H   UNL     1       7.036  -6.150  27.913  0.00  0.00    +0.292 HD
ENDBRANCH   3   8
BRANCH   4  10
ATOM     10  O   UNL     1       9.854  -5.765  25.700  0.00  0.00    -0.503 OA
ATOM     11  H   UNL     1      10.170  -5.193  26.420  0.00  0.00    +0.292 HD
ENDBRANCH   4  10
TORSDOF 2
ENDMDL
MODEL 7
REMARK VINA RESULT:      -4.0      1.344      2.355
REMARK  Name = 
REMARK  3 active torsions:
REMARK  status: ('A' for Active; 'I' for Inactive)
REMARK    1  A    between atoms: C_1  and  C_2
REMARK    2  A    between atoms: C_6  and  O_7
REMARK    3  A    between atoms: C_8  and  O_9
REMARK                            x       y       z     vdW  Elec       q    Type
REMARK                         _______ _______ _______ _____ _____    ______ ____
ROOT
ATOM      1  C   UNL     1       9.423  -0.265  25.903  0.00  0.00    +0.047 C 
ATOM      2  C   UNL     1       9.625   0.294  24.526  0.00  0.00    -0.005 A 
ATOM      3  C   UNL     1       9.632  -0.537  23.406  0.00  0.00    +0.161 A 
ATOM      4  C   UNL     1       9.819  -0.017  22.124  0.00  0.00    +0.158 A 
ATOM      5  C   UNL     1      10.017   1.344  21.935  0.00  0.00    +0.049 A 
ATOM      6  C   UNL     1      10.023   2.188  23.046  0.00  0.00    +0.004 A 
ATOM      7  C   UNL     1       9.828   1.668  24.332  0.00  0.00    +0.007 A 
ENDROOT
BRANCH   3   8
ATOM      8  O   UNL     1       9.453  -1.886  23.553  0.00  0.00    -0.503 OA
ATOM      9  H   UNL     1      10.307  -2.274  23.276  0.00  0.00    +0.292 HD
ENDBRANCH   3   8
BRANCH   4  10
ATOM     10  O   UNL     1       9.800  -0.895  21.075  0.00  0.00    -0.503 OA
ATOM     11  H   UNL     1       9.635  -0.387  20.262  0.00  0.00    +0.292 HD
ENDBRANCH   4  10
TORSDOF 2
ENDMDL
MODEL 8
REMARK VINA RESULT:      -3.9      2.368      3.818
REMARK  Name = 
REMARK  3 active torsions:
REMARK  status: ('A' for Active; 'I' for Inactive)
REMARK    1  A    between atoms: C_1  and  C_2
REMARK    2  A    between atoms: C_6  and  O_7
REMARK    3  A    between atoms: C_8  and  O_9
REMARK                            x       y       z     vdW  Elec       q    Type
REMARK                         _______ _______ _______ _____ _____    ______ ____
ROOT
ATOM      1  C   UNL     1       7.657   3.443  22.325  0.00  0.00    +0.047 C 
ATOM      2  C   UNL     1       8.549   2.257  22.541  0.00  0.00    -0.005 A 
ATOM      3  C   UNL     1       9.147   2.024  23.779  0.00  0.00    +0.161 A 
ATOM      4  C   UNL     1       9.978   0.920  23.982  0.00  0.00    +0.158 A 
ATOM      5  C   UNL     1      10.240   0.033  22.947  0.00  0.00    +0.049 A 
ATOM      6  C   UNL     1       9.659   0.258  21.698  0.00  0.00    +0.004 A 
ATOM      7  C   UNL     1       8.819   1.361  21.497  0.00  0.00    +0.007 A 
ENDROOT
BRANCH   3   8
ATOM      8  O   UNL     1       8.923   2.883  24.821  0.00  0.00    -0.503 OA
ATOM      9  H   UNL     1       8.560   3.686  24.398  0.00  0.00    +0.292 HD
ENDBRANCH   3   8
BRANCH   4  10
ATOM     10  O   UNL     1      10.516   0.752  25.229  0.00  0.00    -0.503 OA
ATOM     11  H   UNL     1      10.124  -0.048  25.619  0.00  0.00    +0.292 HD
ENDBRANCH   4  10
TORSDOF 2
ENDMDL
MODEL 9
REMARK VINA RESULT:      -3.9      1.729      3.301
REMARK  Name = 
REMARK  3 active torsions:
REMARK  status: ('A' for Active; 'I' for Inactive)
REMARK    1  A    between atoms: C_1  and  C_2
REMARK    2  A    between atoms: C_6  and  O_7
REMARK    3  A    between atoms: C_8  and  O_9
REMARK                            x       y       z     vdW  Elec       q    Type
REMARK                         _______ _______ _______ _____ _____    ______ ____
ROOT
ATOM      1  C   UNL     1       8.884   3.963  24.652  0.00  0.00    +0.047 C 
ATOM      2  C   UNL     1       9.252   2.733  23.876  0.00  0.00    -0.005 A 
ATOM      3  C   UNL     1       8.767   2.526  22.585  0.00  0.00    +0.161 A 
ATOM      4  C   UNL     1       9.109   1.382  21.862  0.00  0.00    +0.158 A 
ATOM      5  C   UNL     1       9.933   0.414  22.419  0.00  0.00    +0.049 A 
ATOM      6  C   UNL     1      10.419   0.601  23.714  0.00  0.00    +0.004 A 
ATOM      7  C   UNL     1      10.081   1.752  24.437  0.00  0.00    +0.007 A 
ENDROOT
BRANCH   3   8
ATOM      8  O   UNL     1       7.941   3.452  22.007  0.00  0.00    -0.503 OA
ATOM      9  H   UNL     1       7.193   2.926  21.660  0.00  0.00    +0.292 HD
ENDBRANCH   3   8
BRANCH   4  10
ATOM     10  O   UNL     1       8.604   1.258  20.596  0.00  0.00    -0.503 OA
ATOM     11  H   UNL     1       9.010   1.947  20.042  0.00  0.00    +0.292 HD
ENDBRANCH   4  10
TORSDOF 2
ENDMDL
