MODEL 1
REMARK VINA RESULT:      -7.2      0.000      0.000
REMARK  Name = 
REMARK  28 active torsions:
REMARK  status: ('A' for Active; 'I' for Inactive)
REMARK    1  A    between atoms: C_1  and  C_2
REMARK    2  A    between atoms: C_5  and  O_7
REMARK    3  A    between atoms: O_7  and  C_8
REMARK    4  A    between atoms: C_10  and  O_12
REMARK    5  A    between atoms: C_13  and  O_15
REMARK    6  A    between atoms: C_16  and  N_18
REMARK    7  A    between atoms: N_18  and  C_19
REMARK    8  A    between atoms: C_21  and  C_23
REMARK    9  A    between atoms: C_25  and  O_27
REMARK   10  A    between atoms: O_27  and  C_28
REMARK   11  A    between atoms: C_30  and  C_32
REMARK   12  A    between atoms: C_32  and  O_33
REMARK   13  A    between atoms: C_35  and  O_37
REMARK   14  A    between atoms: O_37  and  C_38
REMARK   15  A    between atoms: C_40  and  C_42
REMARK   16  A    between atoms: C_42  and  O_43
REMARK   17  A    between atoms: C_45  and  O_47
REMARK   18  A    between atoms: C_48  and  O_50
REMARK   19  A    between atoms: C_51  and  O_53
REMARK   20  A    between atoms: C_54  and  O_56
REMARK   21  A    between atoms: C_57  and  O_59
REMARK   22  A    between atoms: C_60  and  O_62
REMARK   23  A    between atoms: C_63  and  O_65
REMARK   24  A    between atoms: C_67  and  C_68
REMARK   25  A    between atoms: C_68  and  O_69
REMARK   26  A    between atoms: C_70  and  O_72
REMARK   27  A    between atoms: C_73  and  O_75
REMARK   28  A    between atoms: C_76  and  O_78
REMARK                            x       y       z     vdW  Elec       q    Type
REMARK                         _______ _______ _______ _____ _____    ______ ____
ROOT
ATOM      1  C   UNL     1       8.384  -1.081  23.432  0.00  0.00    +0.114 C 
ATOM      2  C   UNL     1       9.019  -0.307  22.211  0.00  0.00    +0.167 C 
ATOM      3  C   UNL     1       9.792   0.985  22.579  0.00  0.00    +0.200 C 
ATOM      4  C   UNL     1       9.078   1.525  23.804  0.00  0.00    +0.282 C 
ATOM      5  O   UNL     1       9.463   0.643  24.865  0.00  0.00    -0.344 OA
ATOM      6  C   UNL     1       8.596  -0.486  24.859  0.00  0.00    +0.138 C 
ATOM      7  C   UNL     1       9.015  -1.542  25.888  0.00  0.00    +0.039 C 
ENDROOT
BRANCH   3   8
ATOM      8  O   UNL     1       9.778   1.903  21.485  0.00  0.00    -0.384 OA
ATOM      9  H   UNL     1       9.625   2.786  21.876  0.00  0.00    +0.210 HD
ENDBRANCH   3   8
BRANCH   2  10
ATOM     10  O   UNL     1       9.860  -1.212  21.462  0.00  0.00    -0.387 OA
ATOM     11  H   UNL     1       9.330  -1.977  21.185  0.00  0.00    +0.210 HD
ENDBRANCH   2  10
BRANCH   1  12
ATOM     12  N   UNL     1       6.986  -1.519  23.178  0.00  0.00    -0.300 NA
ATOM     13  H   UNL     1       6.592  -0.797  22.571  0.00  0.00    +0.123 HD
BRANCH  12  17
ATOM     14  C   UNL     1       6.068  -4.469  24.940  0.00  0.00    +0.180 C 
ATOM     15  C   UNL     1       5.018  -3.660  24.186  0.00  0.00    -0.016 C 
ATOM     16  C   UNL     1       5.293  -3.083  23.001  0.00  0.00    -0.002 C 
ATOM     17  C   UNL     1       6.685  -2.831  22.533  0.00  0.00    +0.109 C 
ATOM     18  C   UNL     1       7.613  -4.031  22.853  0.00  0.00    +0.166 C 
ATOM     19  C   UNL     1       7.194  -4.969  24.000  0.00  0.00    +0.178 C 
BRANCH  19  20
ATOM     20  O   UNL     1       8.385  -5.302  24.741  0.00  0.00    -0.386 OA
ATOM     21  H   UNL     1       8.110  -6.041  25.324  0.00  0.00    +0.210 HD
ENDBRANCH  19  20
BRANCH  18  22
ATOM     22  O   UNL     1       7.705  -4.858  21.665  0.00  0.00    -0.387 OA
ATOM     23  H   UNL     1       7.098  -5.615  21.775  0.00  0.00    +0.210 HD
ENDBRANCH  18  22
BRANCH  15  24
ATOM     24  C   UNL     1       3.683  -3.455  24.805  0.00  0.00    +0.189 C 
BRANCH  24  25
ATOM     25  O   UNL     1       3.723  -2.261  25.606  0.00  0.00    -0.391 OA
ATOM     26  H   UNL     1       3.698  -2.553  26.536  0.00  0.00    +0.210 HD
ENDBRANCH  24  25
ENDBRANCH  15  24
BRANCH  14  27
ATOM     27  O   UNL     1       6.721  -3.750  25.972  0.00  0.00    -0.338 OA
BRANCH  27  33
ATOM     28  C   UNL     1       3.365  -3.236  29.359  0.00  0.00    +0.041 C 
ATOM     29  C   UNL     1       4.660  -3.948  28.978  0.00  0.00    +0.149 C 
ATOM     30  C   UNL     1       4.538  -5.465  29.132  0.00  0.00    +0.174 C 
ATOM     31  C   UNL     1       5.865  -6.127  28.748  0.00  0.00    +0.179 C 
ATOM     32  C   UNL     1       6.481  -5.592  27.457  0.00  0.00    +0.201 C 
ATOM     33  C   UNL     1       6.335  -4.062  27.316  0.00  0.00    +0.282 C 
ATOM     34  O   UNL     1       5.002  -3.642  27.620  0.00  0.00    -0.343 OA
BRANCH  32  35
ATOM     35  O   UNL     1       7.878  -5.943  27.480  0.00  0.00    -0.384 OA
ATOM     36  H   UNL     1       8.359  -5.250  27.962  0.00  0.00    +0.210 HD
ENDBRANCH  32  35
BRANCH  31  37
ATOM     37  O   UNL     1       5.657  -7.549  28.640  0.00  0.00    -0.386 OA
ATOM     38  H   UNL     1       6.256  -7.884  27.951  0.00  0.00    +0.210 HD
ENDBRANCH  31  37
BRANCH  30  39
ATOM     39  O   UNL     1       4.178  -5.776  30.484  0.00  0.00    -0.387 OA
ATOM     40  H   UNL     1       3.389  -6.345  30.469  0.00  0.00    +0.210 HD
ENDBRANCH  30  39
ENDBRANCH  27  33
ENDBRANCH  14  27
ENDBRANCH  12  17
ENDBRANCH   1  12
BRANCH   4  41
ATOM     41  O   UNL     1       9.335   2.888  24.122  0.00  0.00    -0.340 OA
BRANCH  41  42
ATOM     42  C   UNL     1       8.091   3.615  24.141  0.00  0.00    +0.183 C 
ATOM     43  C   UNL     1       7.764   4.170  25.531  0.00  0.00    +0.179 C 
ATOM     44  C   UNL     1       6.316   4.689  25.496  0.00  0.00    +0.201 C 
ATOM     45  C   UNL     1       6.034   5.637  24.288  0.00  0.00    +0.282 C 
ATOM     46  O   UNL     1       6.527   5.100  23.067  0.00  0.00    -0.341 OA
ATOM     47  C   UNL     1       7.920   4.776  23.123  0.00  0.00    +0.178 C 
BRANCH  44  48
ATOM     48  O   UNL     1       6.014   5.315  26.759  0.00  0.00    -0.384 OA
ATOM     49  H   UNL     1       5.916   4.584  27.398  0.00  0.00    +0.210 HD
ENDBRANCH  44  48
BRANCH  43  50
ATOM     50  O   UNL     1       7.857   3.163  26.554  0.00  0.00    -0.386 OA
ATOM     51  H   UNL     1       7.967   2.302  26.119  0.00  0.00    +0.210 HD
ENDBRANCH  43  50
BRANCH  45  52
ATOM     52  O   UNL     1       4.632   5.856  24.086  0.00  0.00    -0.340 OA
BRANCH  52  53
ATOM     53  C   UNL     1       3.785   4.750  24.400  0.00  0.00    +0.183 C 
ATOM     54  C   UNL     1       2.626   5.079  25.374  0.00  0.00    +0.179 C 
ATOM     55  C   UNL     1       1.810   3.820  25.612  0.00  0.00    +0.201 C 
ATOM     56  C   UNL     1       1.353   3.231  24.271  0.00  0.00    +0.279 C 
ATOM     57  O   UNL     1       2.419   2.995  23.368  0.00  0.00    -0.341 OA
ATOM     58  C   UNL     1       3.234   4.149  23.090  0.00  0.00    +0.178 C 
BRANCH  56  59
ATOM     59  O   UNL     1       0.719   1.982  24.520  0.00  0.00    -0.365 OA
ATOM     60  H   UNL     1       1.431   1.321  24.499  0.00  0.00    +0.213 HD
ENDBRANCH  56  59
BRANCH  55  61
ATOM     61  O   UNL     1       0.674   4.117  26.436  0.00  0.00    -0.384 OA
ATOM     62  H   UNL     1       0.836   4.991  26.839  0.00  0.00    +0.210 HD
ENDBRANCH  55  61
BRANCH  54  63
ATOM     63  O   UNL     1       3.059   5.571  26.653  0.00  0.00    -0.386 OA
ATOM     64  H   UNL     1       4.039   5.551  26.681  0.00  0.00    +0.210 HD
ENDBRANCH  54  63
BRANCH  58  65
ATOM     65  C   UNL     1       2.510   5.162  22.186  0.00  0.00    +0.190 C 
BRANCH  65  66
ATOM     66  O   UNL     1       3.452   5.869  21.381  0.00  0.00    -0.392 OA
ATOM     67  H   UNL     1       4.329   5.744  21.790  0.00  0.00    +0.210 HD
ENDBRANCH  65  66
ENDBRANCH  58  65
ENDBRANCH  52  53
ENDBRANCH  45  52
BRANCH  47  68
ATOM     68  C   UNL     1       8.820   6.017  23.339  0.00  0.00    +0.190 C 
BRANCH  68  69
ATOM     69  O   UNL     1      10.172   5.770  22.985  0.00  0.00    -0.392 OA
ATOM     70  H   UNL     1      10.389   6.324  22.216  0.00  0.00    +0.210 HD
ENDBRANCH  68  69
ENDBRANCH  47  68
ENDBRANCH  41  42
ENDBRANCH   4  41
TORSDOF 26
ENDMDL
MODEL 2
REMARK VINA RESULT:      -7.1      2.190      8.861
REMARK  Name = 
REMARK  28 active torsions:
REMARK  status: ('A' for Active; 'I' for Inactive)
REMARK    1  A    between atoms: C_1  and  C_2
REMARK    2  A    between atoms: C_5  and  O_7
REMARK    3  A    between atoms: O_7  and  C_8
REMARK    4  A    between atoms: C_10  and  O_12
REMARK    5  A    between atoms: C_13  and  O_15
REMARK    6  A    between atoms: C_16  and  N_18
REMARK    7  A    between atoms: N_18  and  C_19
REMARK    8  A    between atoms: C_21  and  C_23
REMARK    9  A    between atoms: C_25  and  O_27
REMARK   10  A    between atoms: O_27  and  C_28
REMARK   11  A    between atoms: C_30  and  C_32
REMARK   12  A    between atoms: C_32  and  O_33
REMARK   13  A    between atoms: C_35  and  O_37
REMARK   14  A    between atoms: O_37  and  C_38
REMARK   15  A    between atoms: C_40  and  C_42
REMARK   16  A    between atoms: C_42  and  O_43
REMARK   17  A    between atoms: C_45  and  O_47
REMARK   18  A    between atoms: C_48  and  O_50
REMARK   19  A    between atoms: C_51  and  O_53
REMARK   20  A    between atoms: C_54  and  O_56
REMARK   21  A    between atoms: C_57  and  O_59
REMARK   22  A    between atoms: C_60  and  O_62
REMARK   23  A    between atoms: C_63  and  O_65
REMARK   24  A    between atoms: C_67  and  C_68
REMARK   25  A    between atoms: C_68  and  O_69
REMARK   26  A    between atoms: C_70  and  O_72
REMARK   27  A    between atoms: C_73  and  O_75
REMARK   28  A    between atoms: C_76  and  O_78
REMARK                            x       y       z     vdW  Elec       q    Type
REMARK                         _______ _______ _______ _____ _____    ______ ____
ROOT
ATOM      1  C   UNL     1       8.540   1.975  23.161  0.00  0.00    +0.114 C 
ATOM      2  C   UNL     1       9.681   1.904  24.251  0.00  0.00    +0.167 C 
ATOM      3  C   UNL     1      10.485   0.579  24.278  0.00  0.00    +0.200 C 
ATOM      4  C   UNL     1       9.493  -0.483  23.842  0.00  0.00    +0.282 C 
ATOM      5  O   UNL     1       9.331  -0.269  22.434  0.00  0.00    -0.344 OA
ATOM      6  C   UNL     1       8.341   0.735  22.235  0.00  0.00    +0.138 C 
ATOM      7  C   UNL     1       8.192   1.113  20.757  0.00  0.00    +0.039 C 
ENDROOT
BRANCH   3   8
ATOM      8  O   UNL     1      11.007   0.340  25.585  0.00  0.00    -0.384 OA
ATOM      9  H   UNL     1      11.313  -0.589  25.588  0.00  0.00    +0.210 HD
ENDBRANCH   3   8
BRANCH   2  10
ATOM     10  O   UNL     1      10.563   3.036  24.088  0.00  0.00    -0.387 OA
ATOM     11  H   UNL     1      10.550   3.313  23.157  0.00  0.00    +0.210 HD
ENDBRANCH   2  10
BRANCH   1  12
ATOM     12  N   UNL     1       7.264   2.524  23.691  0.00  0.00    -0.300 NA
ATOM     13  H   UNL     1       7.006   3.265  23.035  0.00  0.00    +0.123 HD
BRANCH  12  17
ATOM     14  C   UNL     1       4.190   3.624  25.104  0.00  0.00    +0.180 C 
ATOM     15  C   UNL     1       4.326   3.436  23.596  0.00  0.00    -0.016 C 
ATOM     16  C   UNL     1       5.038   2.420  23.075  0.00  0.00    -0.002 C 
ATOM     17  C   UNL     1       6.055   1.665  23.860  0.00  0.00    +0.109 C 
ATOM     18  C   UNL     1       5.558   1.382  25.302  0.00  0.00    +0.166 C 
ATOM     19  C   UNL     1       4.470   2.309  25.874  0.00  0.00    +0.178 C 
BRANCH  19  20
ATOM     20  O   UNL     1       4.808   2.571  27.251  0.00  0.00    -0.386 OA
ATOM     21  H   UNL     1       5.059   1.694  27.611  0.00  0.00    +0.210 HD
ENDBRANCH  19  20
BRANCH  18  22
ATOM     22  O   UNL     1       5.007   0.041  25.332  0.00  0.00    -0.387 OA
ATOM     23  H   UNL     1       5.431  -0.477  24.621  0.00  0.00    +0.210 HD
ENDBRANCH  18  22
BRANCH  15  24
ATOM     24  C   UNL     1       3.709   4.436  22.686  0.00  0.00    +0.189 C 
BRANCH  24  25
ATOM     25  O   UNL     1       3.422   5.629  23.436  0.00  0.00    -0.391 OA
ATOM     26  H   UNL     1       3.618   5.421  24.368  0.00  0.00    +0.210 HD
ENDBRANCH  24  25
ENDBRANCH  15  24
BRANCH  14  27
ATOM     27  O   UNL     1       5.079   4.585  25.649  0.00  0.00    -0.338 OA
BRANCH  27  33
ATOM     28  C   UNL     1       7.501   6.626  22.049  0.00  0.00    +0.041 C 
ATOM     29  C   UNL     1       7.618   5.799  23.327  0.00  0.00    +0.149 C 
ATOM     30  C   UNL     1       8.621   6.411  24.306  0.00  0.00    +0.174 C 
ATOM     31  C   UNL     1       8.707   5.539  25.562  0.00  0.00    +0.179 C 
ATOM     32  C   UNL     1       7.352   5.100  26.115  0.00  0.00    +0.201 C 
ATOM     33  C   UNL     1       6.349   4.723  25.004  0.00  0.00    +0.282 C 
ATOM     34  O   UNL     1       6.338   5.706  23.965  0.00  0.00    -0.343 OA
BRANCH  32  35
ATOM     35  O   UNL     1       7.592   3.958  26.958  0.00  0.00    -0.384 OA
ATOM     36  H   UNL     1       6.761   3.730  27.406  0.00  0.00    +0.210 HD
ENDBRANCH  32  35
BRANCH  31  37
ATOM     37  O   UNL     1       9.440   6.258  26.573  0.00  0.00    -0.386 OA
ATOM     38  H   UNL     1       9.110   5.967  27.441  0.00  0.00    +0.210 HD
ENDBRANCH  31  37
BRANCH  30  39
ATOM     39  O   UNL     1       9.898   6.524  23.667  0.00  0.00    -0.387 OA
ATOM     40  H   UNL     1      10.059   5.714  23.154  0.00  0.00    +0.210 HD
ENDBRANCH  30  39
ENDBRANCH  27  33
ENDBRANCH  14  27
ENDBRANCH  12  17
ENDBRANCH   1  12
BRANCH   4  41
ATOM     41  O   UNL     1       9.851  -1.828  24.140  0.00  0.00    -0.340 OA
BRANCH  41  42
ATOM     42  C   UNL     1       8.744  -2.480  24.792  0.00  0.00    +0.183 C 
ATOM     43  C   UNL     1       9.175  -3.747  25.539  0.00  0.00    +0.179 C 
ATOM     44  C   UNL     1       7.899  -4.492  25.967  0.00  0.00    +0.201 C 
ATOM     45  C   UNL     1       6.869  -3.574  26.698  0.00  0.00    +0.282 C 
ATOM     46  O   UNL     1       6.666  -2.350  26.004  0.00  0.00    -0.341 OA
ATOM     47  C   UNL     1       7.882  -1.633  25.769  0.00  0.00    +0.178 C 
BRANCH  44  48
ATOM     48  O   UNL     1       8.271  -5.633  26.766  0.00  0.00    -0.384 OA
ATOM     49  H   UNL     1       7.434  -5.995  27.112  0.00  0.00    +0.210 HD
ENDBRANCH  44  48
BRANCH  43  50
ATOM     50  O   UNL     1       9.955  -4.627  24.711  0.00  0.00    -0.386 OA
ATOM     51  H   UNL     1       9.940  -4.279  23.805  0.00  0.00    +0.210 HD
ENDBRANCH  43  50
BRANCH  45  52
ATOM     52  O   UNL     1       5.578  -4.187  26.806  0.00  0.00    -0.340 OA
BRANCH  52  53
ATOM     53  C   UNL     1       5.200  -5.024  25.712  0.00  0.00    +0.183 C 
ATOM     54  C   UNL     1       4.425  -6.303  26.116  0.00  0.00    +0.179 C 
ATOM     55  C   UNL     1       4.085  -7.090  24.861  0.00  0.00    +0.201 C 
ATOM     56  C   UNL     1       3.339  -6.191  23.865  0.00  0.00    +0.279 C 
ATOM     57  O   UNL     1       4.034  -4.996  23.557  0.00  0.00    -0.341 OA
ATOM     58  C   UNL     1       4.383  -4.194  24.700  0.00  0.00    +0.178 C 
BRANCH  56  59
ATOM     59  O   UNL     1       3.165  -6.911  22.652  0.00  0.00    -0.365 OA
ATOM     60  H   UNL     1       3.921  -6.664  22.093  0.00  0.00    +0.213 HD
ENDBRANCH  56  59
BRANCH  55  61
ATOM     61  O   UNL     1       3.284  -8.231  25.196  0.00  0.00    -0.384 OA
ATOM     62  H   UNL     1       3.641  -8.987  24.693  0.00  0.00    +0.210 HD
ENDBRANCH  55  61
BRANCH  54  63
ATOM     63  O   UNL     1       5.151  -7.174  26.998  0.00  0.00    -0.386 OA
ATOM     64  H   UNL     1       5.683  -7.795  26.458  0.00  0.00    +0.210 HD
ENDBRANCH  54  63
BRANCH  58  65
ATOM     65  C   UNL     1       3.158  -3.488  25.306  0.00  0.00    +0.190 C 
BRANCH  65  66
ATOM     66  O   UNL     1       3.542  -2.244  25.891  0.00  0.00    -0.392 OA
ATOM     67  H   UNL     1       3.550  -1.582  25.174  0.00  0.00    +0.210 HD
ENDBRANCH  65  66
ENDBRANCH  58  65
ENDBRANCH  52  53
ENDBRANCH  45  52
BRANCH  47  68
ATOM     68  C   UNL     1       8.575  -1.176  27.076  0.00  0.00    +0.190 C 
BRANCH  68  69
ATOM     69  O   UNL     1       8.441   0.220  27.295  0.00  0.00    -0.392 OA
ATOM     70  H   UNL     1       9.331   0.613  27.292  0.00  0.00    +0.210 HD
ENDBRANCH  68  69
ENDBRANCH  47  68
ENDBRANCH  41  42
ENDBRANCH   4  41
TORSDOF 26
ENDMDL
MODEL 3
REMARK VINA RESULT:      -6.9      2.655      6.636
REMARK  Name = 
REMARK  28 active torsions:
REMARK  status: ('A' for Active; 'I' for Inactive)
REMARK    1  A    between atoms: C_1  and  C_2
REMARK    2  A    between atoms: C_5  and  O_7
REMARK    3  A    between atoms: O_7  and  C_8
REMARK    4  A    between atoms: C_10  and  O_12
REMARK    5  A    between atoms: C_13  and  O_15
REMARK    6  A    between atoms: C_16  and  N_18
REMARK    7  A    between atoms: N_18  and  C_19
REMARK    8  A    between atoms: C_21  and  C_23
REMARK    9  A    between atoms: C_25  and  O_27
REMARK   10  A    between atoms: O_27  and  C_28
REMARK   11  A    between atoms: C_30  and  C_32
REMARK   12  A    between atoms: C_32  and  O_33
REMARK   13  A    between atoms: C_35  and  O_37
REMARK   14  A    between atoms: O_37  and  C_38
REMARK   15  A    between atoms: C_40  and  C_42
REMARK   16  A    between atoms: C_42  and  O_43
REMARK   17  A    between atoms: C_45  and  O_47
REMARK   18  A    between atoms: C_48  and  O_50
REMARK   19  A    between atoms: C_51  and  O_53
REMARK   20  A    between atoms: C_54  and  O_56
REMARK   21  A    between atoms: C_57  and  O_59
REMARK   22  A    between atoms: C_60  and  O_62
REMARK   23  A    between atoms: C_63  and  O_65
REMARK   24  A    between atoms: C_67  and  C_68
REMARK   25  A    between atoms: C_68  and  O_69
REMARK   26  A    between atoms: C_70  and  O_72
REMARK   27  A    between atoms: C_73  and  O_75
REMARK   28  A    between atoms: C_76  and  O_78
REMARK                            x       y       z     vdW  Elec       q    Type
REMARK                         _______ _______ _______ _____ _____    ______ ____
ROOT
ATOM      1  C   UNL     1       5.432  -5.638  25.376  0.00  0.00    +0.114 C 
ATOM      2  C   UNL     1       4.960  -6.170  23.966  0.00  0.00    +0.167 C 
ATOM      3  C   UNL     1       6.026  -6.095  22.843  0.00  0.00    +0.200 C 
ATOM      4  C   UNL     1       6.867  -4.881  23.190  0.00  0.00    +0.282 C 
ATOM      5  O   UNL     1       7.655  -5.297  24.312  0.00  0.00    -0.344 OA
ATOM      6  C   UNL     1       6.894  -5.107  25.500  0.00  0.00    +0.138 C 
ATOM      7  C   UNL     1       7.618  -5.641  26.742  0.00  0.00    +0.039 C 
ENDROOT
BRANCH   3   8
ATOM      8  O   UNL     1       5.397  -5.981  21.566  0.00  0.00    -0.384 OA
ATOM      9  H   UNL     1       5.657  -6.780  21.065  0.00  0.00    +0.210 HD
ENDBRANCH   3   8
BRANCH   2  10
ATOM     10  O   UNL     1       4.460  -7.517  24.110  0.00  0.00    -0.387 OA
ATOM     11  H   UNL     1       4.916  -8.091  23.472  0.00  0.00    +0.210 HD
ENDBRANCH   2  10
BRANCH   1  12
ATOM     12  N   UNL     1       4.428  -4.758  26.031  0.00  0.00    -0.300 NA
ATOM     13  H   UNL     1       4.042  -4.193  25.271  0.00  0.00    +0.123 HD
BRANCH  12  17
ATOM     14  C   UNL     1       2.938  -3.246  28.885  0.00  0.00    +0.180 C 
ATOM     15  C   UNL     1       2.252  -3.174  27.524  0.00  0.00    -0.016 C 
ATOM     16  C   UNL     1       2.274  -4.215  26.670  0.00  0.00    -0.002 C 
ATOM     17  C   UNL     1       3.265  -5.323  26.777  0.00  0.00    +0.109 C 
ATOM     18  C   UNL     1       3.482  -5.744  28.253  0.00  0.00    +0.166 C 
ATOM     19  C   UNL     1       3.150  -4.710  29.345  0.00  0.00    +0.178 C 
BRANCH  19  20
ATOM     20  O   UNL     1       4.182  -4.798  30.349  0.00  0.00    -0.386 OA
ATOM     21  H   UNL     1       4.593  -3.907  30.354  0.00  0.00    +0.210 HD
ENDBRANCH  19  20
BRANCH  18  22
ATOM     22  O   UNL     1       2.643  -6.898  28.519  0.00  0.00    -0.387 OA
ATOM     23  H   UNL     1       3.049  -7.674  28.087  0.00  0.00    +0.210 HD
ENDBRANCH  18  22
BRANCH  15  24
ATOM     24  C   UNL     1       1.600  -1.905  27.110  0.00  0.00    +0.189 C 
BRANCH  24  25
ATOM     25  O   UNL     1       1.174  -2.028  25.742  0.00  0.00    -0.391 OA
ATOM     26  H   UNL     1       0.409  -2.633  25.746  0.00  0.00    +0.210 HD
ENDBRANCH  24  25
ENDBRANCH  15  24
BRANCH  14  27
ATOM     27  O   UNL     1       4.220  -2.642  28.918  0.00  0.00    -0.338 OA
BRANCH  27  33
ATOM     28  C   UNL     1       4.359   2.022  30.019  0.00  0.00    +0.041 C 
ATOM     29  C   UNL     1       4.514   0.995  28.902  0.00  0.00    +0.149 C 
ATOM     30  C   UNL     1       5.841   1.163  28.160  0.00  0.00    +0.174 C 
ATOM     31  C   UNL     1       5.941   0.117  27.045  0.00  0.00    +0.179 C 
ATOM     32  C   UNL     1       5.541  -1.294  27.472  0.00  0.00    +0.201 C 
ATOM     33  C   UNL     1       4.315  -1.307  28.410  0.00  0.00    +0.282 C 
ATOM     34  O   UNL     1       4.448  -0.330  29.445  0.00  0.00    -0.343 OA
BRANCH  32  35
ATOM     35  O   UNL     1       5.238  -2.027  26.271  0.00  0.00    -0.384 OA
ATOM     36  H   UNL     1       5.754  -1.645  25.542  0.00  0.00    +0.210 HD
ENDBRANCH  32  35
BRANCH  31  37
ATOM     37  O   UNL     1       7.289   0.112  26.536  0.00  0.00    -0.386 OA
ATOM     38  H   UNL     1       7.714  -0.711  26.833  0.00  0.00    +0.210 HD
ENDBRANCH  31  37
BRANCH  30  39
ATOM     39  O   UNL     1       5.922   2.492  27.630  0.00  0.00    -0.387 OA
ATOM     40  H   UNL     1       6.440   3.039  28.246  0.00  0.00    +0.210 HD
ENDBRANCH  30  39
ENDBRANCH  27  33
ENDBRANCH  14  27
ENDBRANCH  12  17
ENDBRANCH   1  12
BRANCH   4  41
ATOM     41  O   UNL     1       7.670  -4.360  22.137  0.00  0.00    -0.340 OA
BRANCH  41  42
ATOM     42  C   UNL     1       7.710  -2.924  22.235  0.00  0.00    +0.183 C 
ATOM     43  C   UNL     1       6.619  -2.375  23.160  0.00  0.00    +0.179 C 
ATOM     44  C   UNL     1       6.587  -0.847  22.988  0.00  0.00    +0.201 C 
ATOM     45  C   UNL     1       7.996  -0.186  23.111  0.00  0.00    +0.282 C 
ATOM     46  O   UNL     1       8.972  -0.874  22.339  0.00  0.00    -0.341 OA
ATOM     47  C   UNL     1       9.053  -2.267  22.657  0.00  0.00    +0.178 C 
BRANCH  44  48
ATOM     48  O   UNL     1       5.643  -0.291  23.926  0.00  0.00    -0.384 OA
ATOM     49  H   UNL     1       6.121   0.424  24.387  0.00  0.00    +0.210 HD
ENDBRANCH  44  48
BRANCH  43  50
ATOM     50  O   UNL     1       5.318  -2.894  22.835  0.00  0.00    -0.386 OA
ATOM     51  H   UNL     1       5.094  -2.602  21.936  0.00  0.00    +0.210 HD
ENDBRANCH  43  50
BRANCH  45  52
ATOM     52  O   UNL     1       8.003   1.168  22.640  0.00  0.00    -0.340 OA
BRANCH  52  53
ATOM     53  C   UNL     1       8.491   2.140  23.567  0.00  0.00    +0.183 C 
ATOM     54  C   UNL     1       9.377   3.243  22.938  0.00  0.00    +0.179 C 
ATOM     55  C   UNL     1       9.818   4.203  24.030  0.00  0.00    +0.201 C 
ATOM     56  C   UNL     1       8.593   4.737  24.784  0.00  0.00    +0.279 C 
ATOM     57  O   UNL     1       7.760   3.713  25.298  0.00  0.00    -0.341 OA
ATOM     58  C   UNL     1       7.297   2.767  24.316  0.00  0.00    +0.178 C 
BRANCH  56  59
ATOM     59  O   UNL     1       9.045   5.514  25.886  0.00  0.00    -0.365 OA
ATOM     60  H   UNL     1       8.597   5.143  26.666  0.00  0.00    +0.213 HD
ENDBRANCH  56  59
BRANCH  55  61
ATOM     61  O   UNL     1      10.562   5.290  23.461  0.00  0.00    -0.384 OA
ATOM     62  H   UNL     1       9.913   5.967  23.191  0.00  0.00    +0.210 HD
ENDBRANCH  55  61
BRANCH  54  63
ATOM     63  O   UNL     1      10.557   2.746  22.286  0.00  0.00    -0.386 OA
ATOM     64  H   UNL     1      11.263   2.634  22.958  0.00  0.00    +0.210 HD
ENDBRANCH  54  63
BRANCH  58  65
ATOM     65  C   UNL     1       6.222   3.371  23.396  0.00  0.00    +0.190 C 
BRANCH  65  66
ATOM     66  O   UNL     1       5.328   2.354  22.945  0.00  0.00    -0.392 OA
ATOM     67  H   UNL     1       4.679   2.784  22.357  0.00  0.00    +0.210 HD
ENDBRANCH  65  66
ENDBRANCH  58  65
ENDBRANCH  52  53
ENDBRANCH  45  52
BRANCH  47  68
ATOM     68  C   UNL     1       9.519  -2.528  24.110  0.00  0.00    +0.190 C 
BRANCH  68  69
ATOM     69  O   UNL     1      10.017  -3.846  24.287  0.00  0.00    -0.392 OA
ATOM     70  H   UNL     1      10.490  -4.100  23.476  0.00  0.00    +0.210 HD
ENDBRANCH  68  69
ENDBRANCH  47  68
ENDBRANCH  41  42
ENDBRANCH   4  41
TORSDOF 26
ENDMDL
MODEL 4
REMARK VINA RESULT:      -6.8      2.357      9.400
REMARK  Name = 
REMARK  28 active torsions:
REMARK  status: ('A' for Active; 'I' for Inactive)
REMARK    1  A    between atoms: C_1  and  C_2
REMARK    2  A    between atoms: C_5  and  O_7
REMARK    3  A    between atoms: O_7  and  C_8
REMARK    4  A    between atoms: C_10  and  O_12
REMARK    5  A    between atoms: C_13  and  O_15
REMARK    6  A    between atoms: C_16  and  N_18
REMARK    7  A    between atoms: N_18  and  C_19
REMARK    8  A    between atoms: C_21  and  C_23
REMARK    9  A    between atoms: C_25  and  O_27
REMARK   10  A    between atoms: O_27  and  C_28
REMARK   11  A    between atoms: C_30  and  C_32
REMARK   12  A    between atoms: C_32  and  O_33
REMARK   13  A    between atoms: C_35  and  O_37
REMARK   14  A    between atoms: O_37  and  C_38
REMARK   15  A    between atoms: C_40  and  C_42
REMARK   16  A    between atoms: C_42  and  O_43
REMARK   17  A    between atoms: C_45  and  O_47
REMARK   18  A    between atoms: C_48  and  O_50
REMARK   19  A    between atoms: C_51  and  O_53
REMARK   20  A    between atoms: C_54  and  O_56
REMARK   21  A    between atoms: C_57  and  O_59
REMARK   22  A    between atoms: C_60  and  O_62
REMARK   23  A    between atoms: C_63  and  O_65
REMARK   24  A    between atoms: C_67  and  C_68
REMARK   25  A    between atoms: C_68  and  O_69
REMARK   26  A    between atoms: C_70  and  O_72
REMARK   27  A    between atoms: C_73  and  O_75
REMARK   28  A    between atoms: C_76  and  O_78
REMARK                            x       y       z     vdW  Elec       q    Type
REMARK                         _______ _______ _______ _____ _____    ______ ____
ROOT
ATOM      1  C   UNL     1       5.669   2.583  26.872  0.00  0.00    +0.114 C 
ATOM      2  C   UNL     1       4.164   2.507  26.398  0.00  0.00    +0.167 C 
ATOM      3  C   UNL     1       3.224   1.686  27.317  0.00  0.00    +0.200 C 
ATOM      4  C   UNL     1       4.111   0.606  27.910  0.00  0.00    +0.282 C 
ATOM      5  O   UNL     1       4.927   1.294  28.866  0.00  0.00    -0.344 OA
ATOM      6  C   UNL     1       6.053   1.847  28.192  0.00  0.00    +0.138 C 
ATOM      7  C   UNL     1       6.918   2.706  29.122  0.00  0.00    +0.039 C 
ENDROOT
BRANCH   3   8
ATOM      8  O   UNL     1       2.134   1.151  26.566  0.00  0.00    -0.384 OA
ATOM      9  H   UNL     1       1.562   1.912  26.342  0.00  0.00    +0.210 HD
ENDBRANCH   3   8
BRANCH   2  10
ATOM     10  O   UNL     1       3.657   3.846  26.210  0.00  0.00    -0.387 OA
ATOM     11  H   UNL     1       4.294   4.478  26.583  0.00  0.00    +0.210 HD
ENDBRANCH   2  10
BRANCH   1  12
ATOM     12  N   UNL     1       6.638   2.355  25.767  0.00  0.00    -0.300 NA
ATOM     13  H   UNL     1       7.244   3.178  25.778  0.00  0.00    +0.123 HD
BRANCH  12  17
ATOM     14  C   UNL     1       8.043   0.928  22.828  0.00  0.00    +0.180 C 
ATOM     15  C   UNL     1       8.899   1.778  23.761  0.00  0.00    -0.016 C 
ATOM     16  C   UNL     1       8.756   1.715  25.098  0.00  0.00    -0.002 C 
ATOM     17  C   UNL     1       7.536   1.163  25.752  0.00  0.00    +0.109 C 
ATOM     18  C   UNL     1       7.039  -0.115  25.028  0.00  0.00    +0.166 C 
ATOM     19  C   UNL     1       7.448  -0.304  23.555  0.00  0.00    +0.178 C 
BRANCH  19  20
ATOM     20  O   UNL     1       6.301  -0.823  22.853  0.00  0.00    -0.386 OA
ATOM     21  H   UNL     1       5.631  -0.109  22.921  0.00  0.00    +0.210 HD
ENDBRANCH  19  20
BRANCH  18  22
ATOM     22  O   UNL     1       7.554  -1.266  25.744  0.00  0.00    -0.387 OA
ATOM     23  H   UNL     1       6.970  -2.026  25.557  0.00  0.00    +0.210 HD
ENDBRANCH  18  22
BRANCH  15  24
ATOM     24  C   UNL     1       9.868   2.740  23.175  0.00  0.00    +0.189 C 
BRANCH  24  25
ATOM     25  O   UNL     1       9.924   2.532  21.753  0.00  0.00    -0.391 OA
ATOM     26  H   UNL     1      10.363   1.672  21.618  0.00  0.00    +0.210 HD
ENDBRANCH  24  25
ENDBRANCH  15  24
BRANCH  14  27
ATOM     27  O   UNL     1       6.936   1.617  22.271  0.00  0.00    -0.338 OA
BRANCH  27  33
ATOM     28  C   UNL     1       7.928   6.307  22.366  0.00  0.00    +0.041 C 
ATOM     29  C   UNL     1       6.972   5.220  22.848  0.00  0.00    +0.149 C 
ATOM     30  C   UNL     1       5.516   5.567  22.530  0.00  0.00    +0.174 C 
ATOM     31  C   UNL     1       4.600   4.451  23.043  0.00  0.00    +0.179 C 
ATOM     32  C   UNL     1       5.083   3.041  22.708  0.00  0.00    +0.201 C 
ATOM     33  C   UNL     1       6.612   2.885  22.851  0.00  0.00    +0.282 C 
ATOM     34  O   UNL     1       7.301   3.972  22.226  0.00  0.00    -0.343 OA
BRANCH  32  35
ATOM     35  O   UNL     1       4.419   2.143  23.617  0.00  0.00    -0.384 OA
ATOM     36  H   UNL     1       4.814   1.261  23.518  0.00  0.00    +0.210 HD
ENDBRANCH  32  35
BRANCH  31  37
ATOM     37  O   UNL     1       3.278   4.658  22.507  0.00  0.00    -0.386 OA
ATOM     38  H   UNL     1       2.675   4.044  22.963  0.00  0.00    +0.210 HD
ENDBRANCH  31  37
BRANCH  30  39
ATOM     39  O   UNL     1       5.187   6.824  23.134  0.00  0.00    -0.387 OA
ATOM     40  H   UNL     1       4.732   6.652  23.976  0.00  0.00    +0.210 HD
ENDBRANCH  30  39
ENDBRANCH  27  33
ENDBRANCH  14  27
ENDBRANCH  12  17
ENDBRANCH   1  12
BRANCH   4  41
ATOM     41  O   UNL     1       3.435  -0.506  28.485  0.00  0.00    -0.340 OA
BRANCH  41  42
ATOM     42  C   UNL     1       3.954  -1.724  27.917  0.00  0.00    +0.183 C 
ATOM     43  C   UNL     1       3.763  -2.926  28.847  0.00  0.00    +0.179 C 
ATOM     44  C   UNL     1       4.574  -4.098  28.267  0.00  0.00    +0.201 C 
ATOM     45  C   UNL     1       4.296  -4.344  26.750  0.00  0.00    +0.282 C 
ATOM     46  O   UNL     1       4.335  -3.135  26.002  0.00  0.00    -0.341 OA
ATOM     47  C   UNL     1       3.444  -2.137  26.509  0.00  0.00    +0.178 C 
BRANCH  44  48
ATOM     48  O   UNL     1       4.327  -5.275  29.062  0.00  0.00    -0.384 OA
ATOM     49  H   UNL     1       4.538  -6.031  28.483  0.00  0.00    +0.210 HD
ENDBRANCH  44  48
BRANCH  43  50
ATOM     50  O   UNL     1       4.238  -2.664  30.179  0.00  0.00    -0.386 OA
ATOM     51  H   UNL     1       3.673  -1.979  30.571  0.00  0.00    +0.210 HD
ENDBRANCH  43  50
BRANCH  45  52
ATOM     52  O   UNL     1       5.270  -5.210  26.154  0.00  0.00    -0.340 OA
BRANCH  52  53
ATOM     53  C   UNL     1       6.522  -4.600  25.834  0.00  0.00    +0.183 C 
ATOM     54  C   UNL     1       7.765  -5.454  26.187  0.00  0.00    +0.179 C 
ATOM     55  C   UNL     1       9.017  -4.690  25.790  0.00  0.00    +0.201 C 
ATOM     56  C   UNL     1       8.935  -4.283  24.313  0.00  0.00    +0.279 C 
ATOM     57  O   UNL     1       7.761  -3.557  23.994  0.00  0.00    -0.341 OA
ATOM     58  C   UNL     1       6.532  -4.225  24.337  0.00  0.00    +0.178 C 
BRANCH  56  59
ATOM     59  O   UNL     1      10.047  -3.449  24.012  0.00  0.00    -0.365 OA
ATOM     60  H   UNL     1       9.904  -2.633  24.521  0.00  0.00    +0.213 HD
ENDBRANCH  56  59
BRANCH  55  61
ATOM     61  O   UNL     1      10.181  -5.497  26.018  0.00  0.00    -0.384 OA
ATOM     62  H   UNL     1       9.992  -6.379  25.645  0.00  0.00    +0.210 HD
ENDBRANCH  55  61
BRANCH  54  63
ATOM     63  O   UNL     1       7.873  -5.781  27.582  0.00  0.00    -0.386 OA
ATOM     64  H   UNL     1       7.960  -4.949  28.094  0.00  0.00    +0.210 HD
ENDBRANCH  54  63
BRANCH  58  65
ATOM     65  C   UNL     1       6.229  -5.399  23.391  0.00  0.00    +0.190 C 
BRANCH  65  66
ATOM     66  O   UNL     1       4.824  -5.636  23.328  0.00  0.00    -0.392 OA
ATOM     67  H   UNL     1       4.702  -6.573  23.088  0.00  0.00    +0.210 HD
ENDBRANCH  65  66
ENDBRANCH  58  65
ENDBRANCH  52  53
ENDBRANCH  45  52
BRANCH  47  68
ATOM     68  C   UNL     1       1.956  -2.551  26.413  0.00  0.00    +0.190 C 
BRANCH  68  69
ATOM     69  O   UNL     1       1.079  -1.445  26.559  0.00  0.00    -0.392 OA
ATOM     70  H   UNL     1       0.715  -1.465  27.461  0.00  0.00    +0.210 HD
ENDBRANCH  68  69
ENDBRANCH  47  68
ENDBRANCH  41  42
ENDBRANCH   4  41
TORSDOF 26
ENDMDL
MODEL 5
REMARK VINA RESULT:      -6.8      2.254      6.790
REMARK  Name = 
REMARK  28 active torsions:
REMARK  status: ('A' for Active; 'I' for Inactive)
REMARK    1  A    between atoms: C_1  and  C_2
REMARK    2  A    between atoms: C_5  and  O_7
REMARK    3  A    between atoms: O_7  and  C_8
REMARK    4  A    between atoms: C_10  and  O_12
REMARK    5  A    between atoms: C_13  and  O_15
REMARK    6  A    between atoms: C_16  and  N_18
REMARK    7  A    between atoms: N_18  and  C_19
REMARK    8  A    between atoms: C_21  and  C_23
REMARK    9  A    between atoms: C_25  and  O_27
REMARK   10  A    between atoms: O_27  and  C_28
REMARK   11  A    between atoms: C_30  and  C_32
REMARK   12  A    between atoms: C_32  and  O_33
REMARK   13  A    between atoms: C_35  and  O_37
REMARK   14  A    between atoms: O_37  and  C_38
REMARK   15  A    between atoms: C_40  and  C_42
REMARK   16  A    between atoms: C_42  and  O_43
REMARK   17  A    between atoms: C_45  and  O_47
REMARK   18  A    between atoms: C_48  and  O_50
REMARK   19  A    between atoms: C_51  and  O_53
REMARK   20  A    between atoms: C_54  and  O_56
REMARK   21  A    between atoms: C_57  and  O_59
REMARK   22  A    between atoms: C_60  and  O_62
REMARK   23  A    between atoms: C_63  and  O_65
REMARK   24  A    between atoms: C_67  and  C_68
REMARK   25  A    between atoms: C_68  and  O_69
REMARK   26  A    between atoms: C_70  and  O_72
REMARK   27  A    between atoms: C_73  and  O_75
REMARK   28  A    between atoms: C_76  and  O_78
REMARK                            x       y       z     vdW  Elec       q    Type
REMARK                         _______ _______ _______ _____ _____    ______ ____
ROOT
ATOM      1  C   UNL     1       3.875  -3.732  26.510  0.00  0.00    +0.114 C 
ATOM      2  C   UNL     1       4.371  -3.190  27.908  0.00  0.00    +0.167 C 
ATOM      3  C   UNL     1       3.645  -1.919  28.417  0.00  0.00    +0.200 C 
ATOM      4  C   UNL     1       3.272  -1.157  27.159  0.00  0.00    +0.282 C 
ATOM      5  O   UNL     1       2.189  -1.904  26.593  0.00  0.00    -0.344 OA
ATOM      6  C   UNL     1       2.725  -2.955  25.796  0.00  0.00    +0.138 C 
ATOM      7  C   UNL     1       1.632  -3.881  25.249  0.00  0.00    +0.039 C 
ENDROOT
BRANCH   3   8
ATOM      8  O   UNL     1       4.501  -1.169  29.280  0.00  0.00    -0.384 OA
ATOM      9  H   UNL     1       4.460  -0.244  28.963  0.00  0.00    +0.210 HD
ENDBRANCH   3   8
BRANCH   2  10
ATOM     10  O   UNL     1       4.290  -4.252  28.883  0.00  0.00    -0.387 OA
ATOM     11  H   UNL     1       3.436  -4.705  28.785  0.00  0.00    +0.210 HD
ENDBRANCH   2  10
BRANCH   1  12
ATOM     12  N   UNL     1       4.992  -4.097  25.599  0.00  0.00    -0.300 NA
ATOM     13  H   UNL     1       5.822  -3.674  26.021  0.00  0.00    +0.123 HD
BRANCH  12  17
ATOM     14  C   UNL     1       7.162  -5.175  22.996  0.00  0.00    +0.180 C 
ATOM     15  C   UNL     1       7.638  -5.164  24.445  0.00  0.00    -0.016 C 
ATOM     16  C   UNL     1       6.819  -5.507  25.456  0.00  0.00    -0.002 C 
ATOM     17  C   UNL     1       5.335  -5.523  25.319  0.00  0.00    +0.109 C 
ATOM     18  C   UNL     1       4.901  -6.123  23.957  0.00  0.00    +0.166 C 
ATOM     19  C   UNL     1       5.923  -6.084  22.805  0.00  0.00    +0.178 C 
BRANCH  19  20
ATOM     20  O   UNL     1       5.203  -5.740  21.603  0.00  0.00    -0.386 OA
ATOM     21  H   UNL     1       5.415  -4.794  21.455  0.00  0.00    +0.210 HD
ENDBRANCH  19  20
BRANCH  18  22
ATOM     22  O   UNL     1       4.578  -7.522  24.165  0.00  0.00    -0.387 OA
ATOM     23  H   UNL     1       4.533  -7.956  23.291  0.00  0.00    +0.210 HD
ENDBRANCH  18  22
BRANCH  15  24
ATOM     24  C   UNL     1       9.018  -4.703  24.748  0.00  0.00    +0.189 C 
BRANCH  24  25
ATOM     25  O   UNL     1       9.809  -5.839  25.141  0.00  0.00    -0.391 OA
ATOM     26  H   UNL     1       9.180  -6.561  25.326  0.00  0.00    +0.210 HD
ENDBRANCH  24  25
ENDBRANCH  15  24
BRANCH  14  27
ATOM     27  O   UNL     1       6.786  -3.901  22.501  0.00  0.00    -0.338 OA
BRANCH  27  33
ATOM     28  C   UNL     1      10.713  -1.151  22.423  0.00  0.00    +0.041 C 
ATOM     29  C   UNL     1       9.305  -1.307  22.991  0.00  0.00    +0.149 C 
ATOM     30  C   UNL     1       8.461  -0.052  22.759  0.00  0.00    +0.174 C 
ATOM     31  C   UNL     1       7.065  -0.258  23.356  0.00  0.00    +0.179 C 
ATOM     32  C   UNL     1       6.434  -1.609  23.024  0.00  0.00    +0.201 C 
ATOM     33  C   UNL     1       7.451  -2.768  23.071  0.00  0.00    +0.282 C 
ATOM     34  O   UNL     1       8.654  -2.427  22.378  0.00  0.00    -0.343 OA
BRANCH  32  35
ATOM     35  O   UNL     1       5.395  -1.837  23.993  0.00  0.00    -0.384 OA
ATOM     36  H   UNL     1       4.618  -2.192  23.530  0.00  0.00    +0.210 HD
ENDBRANCH  32  35
BRANCH  31  37
ATOM     37  O   UNL     1       6.208   0.809  22.902  0.00  0.00    -0.386 OA
ATOM     38  H   UNL     1       5.916   0.590  22.000  0.00  0.00    +0.210 HD
ENDBRANCH  31  37
BRANCH  30  39
ATOM     39  O   UNL     1       9.116   1.075  23.354  0.00  0.00    -0.387 OA
ATOM     40  H   UNL     1       9.064   1.824  22.735  0.00  0.00    +0.210 HD
ENDBRANCH  30  39
ENDBRANCH  27  33
ENDBRANCH  14  27
ENDBRANCH  12  17
ENDBRANCH   1  12
BRANCH   4  41
ATOM     41  O   UNL     1       2.939   0.215  27.339  0.00  0.00    -0.340 OA
BRANCH  41  42
ATOM     42  C   UNL     1       3.817   1.026  26.535  0.00  0.00    +0.183 C 
ATOM     43  C   UNL     1       3.200   2.385  26.191  0.00  0.00    +0.179 C 
ATOM     44  C   UNL     1       4.095   3.050  25.131  0.00  0.00    +0.201 C 
ATOM     45  C   UNL     1       5.607   3.055  25.522  0.00  0.00    +0.282 C 
ATOM     46  O   UNL     1       6.039   1.782  25.985  0.00  0.00    -0.341 OA
ATOM     47  C   UNL     1       5.251   1.288  27.073  0.00  0.00    +0.178 C 
BRANCH  44  48
ATOM     48  O   UNL     1       3.599   4.377  24.867  0.00  0.00    -0.384 OA
ATOM     49  H   UNL     1       4.255   4.790  24.275  0.00  0.00    +0.210 HD
ENDBRANCH  44  48
BRANCH  43  50
ATOM     50  O   UNL     1       1.875   2.258  25.647  0.00  0.00    -0.386 OA
ATOM     51  H   UNL     1       1.807   2.848  24.878  0.00  0.00    +0.210 HD
ENDBRANCH  43  50
BRANCH  45  52
ATOM     52  O   UNL     1       6.453   3.380  24.412  0.00  0.00    -0.340 OA
BRANCH  52  53
ATOM     53  C   UNL     1       7.700   3.992  24.746  0.00  0.00    +0.183 C 
ATOM     54  C   UNL     1       8.468   4.591  23.541  0.00  0.00    +0.179 C 
ATOM     55  C   UNL     1       9.763   5.209  24.041  0.00  0.00    +0.201 C 
ATOM     56  C   UNL     1       9.465   6.218  25.158  0.00  0.00    +0.279 C 
ATOM     57  O   UNL     1       8.706   5.670  26.222  0.00  0.00    -0.341 OA
ATOM     58  C   UNL     1       7.459   5.071  25.823  0.00  0.00    +0.178 C 
BRANCH  56  59
ATOM     59  O   UNL     1      10.700   6.668  25.701  0.00  0.00    -0.365 OA
ATOM     60  H   UNL     1      10.502   7.521  26.123  0.00  0.00    +0.213 HD
ENDBRANCH  56  59
BRANCH  55  61
ATOM     61  O   UNL     1      10.450   5.855  22.961  0.00  0.00    -0.384 OA
ATOM     62  H   UNL     1       9.987   5.604  22.139  0.00  0.00    +0.210 HD
ENDBRANCH  55  61
BRANCH  54  63
ATOM     63  O   UNL     1       8.802   3.632  22.525  0.00  0.00    -0.386 OA
ATOM     64  H   UNL     1       9.080   2.798  22.960  0.00  0.00    +0.210 HD
ENDBRANCH  54  63
BRANCH  58  65
ATOM     65  C   UNL     1       6.410   6.127  25.436  0.00  0.00    +0.190 C 
BRANCH  65  66
ATOM     66  O   UNL     1       5.454   6.282  26.483  0.00  0.00    -0.392 OA
ATOM     67  H   UNL     1       4.844   6.993  26.210  0.00  0.00    +0.210 HD
ENDBRANCH  65  66
ENDBRANCH  58  65
ENDBRANCH  52  53
ENDBRANCH  45  52
BRANCH  47  68
ATOM     68  C   UNL     1       5.358   2.168  28.343  0.00  0.00    +0.190 C 
BRANCH  68  69
ATOM     69  O   UNL     1       4.526   1.699  29.393  0.00  0.00    -0.392 OA
ATOM     70  H   UNL     1       3.904   2.409  29.626  0.00  0.00    +0.210 HD
ENDBRANCH  68  69
ENDBRANCH  47  68
ENDBRANCH  41  42
ENDBRANCH   4  41
TORSDOF 26
ENDMDL
MODEL 6
REMARK VINA RESULT:      -6.7      2.187      3.391
REMARK  Name = 
REMARK  28 active torsions:
REMARK  status: ('A' for Active; 'I' for Inactive)
REMARK    1  A    between atoms: C_1  and  C_2
REMARK    2  A    between atoms: C_5  and  O_7
REMARK    3  A    between atoms: O_7  and  C_8
REMARK    4  A    between atoms: C_10  and  O_12
REMARK    5  A    between atoms: C_13  and  O_15
REMARK    6  A    between atoms: C_16  and  N_18
REMARK    7  A    between atoms: N_18  and  C_19
REMARK    8  A    between atoms: C_21  and  C_23
REMARK    9  A    between atoms: C_25  and  O_27
REMARK   10  A    between atoms: O_27  and  C_28
REMARK   11  A    between atoms: C_30  and  C_32
REMARK   12  A    between atoms: C_32  and  O_33
REMARK   13  A    between atoms: C_35  and  O_37
REMARK   14  A    between atoms: O_37  and  C_38
REMARK   15  A    between atoms: C_40  and  C_42
REMARK   16  A    between atoms: C_42  and  O_43
REMARK   17  A    between atoms: C_45  and  O_47
REMARK   18  A    between atoms: C_48  and  O_50
REMARK   19  A    between atoms: C_51  and  O_53
REMARK   20  A    between atoms: C_54  and  O_56
REMARK   21  A    between atoms: C_57  and  O_59
REMARK   22  A    between atoms: C_60  and  O_62
REMARK   23  A    between atoms: C_63  and  O_65
REMARK   24  A    between atoms: C_67  and  C_68
REMARK   25  A    between atoms: C_68  and  O_69
REMARK   26  A    between atoms: C_70  and  O_72
REMARK   27  A    between atoms: C_73  and  O_75
REMARK   28  A    between atoms: C_76  and  O_78
REMARK                            x       y       z     vdW  Elec       q    Type
REMARK                         _______ _______ _______ _____ _____    ______ ____
ROOT
ATOM      1  C   UNL     1       7.828  -1.069  24.074  0.00  0.00    +0.114 C 
ATOM      2  C   UNL     1       6.510  -0.507  24.739  0.00  0.00    +0.167 C 
ATOM      3  C   UNL     1       6.302   1.023  24.600  0.00  0.00    +0.200 C 
ATOM      4  C   UNL     1       7.705   1.603  24.585  0.00  0.00    +0.282 C 
ATOM      5  O   UNL     1       8.223   1.260  23.294  0.00  0.00    -0.344 OA
ATOM      6  C   UNL     1       8.768  -0.054  23.354  0.00  0.00    +0.138 C 
ATOM      7  C   UNL     1       9.237  -0.548  21.981  0.00  0.00    +0.039 C 
ENDROOT
BRANCH   3   8
ATOM      8  O   UNL     1       5.514   1.519  25.682  0.00  0.00    -0.384 OA
ATOM      9  H   UNL     1       6.125   1.616  26.439  0.00  0.00    +0.210 HD
ENDBRANCH   3   8
BRANCH   2  10
ATOM     10  O   UNL     1       5.372  -1.228  24.219  0.00  0.00    -0.387 OA
ATOM     11  H   UNL     1       4.606  -1.062  24.793  0.00  0.00    +0.210 HD
ENDBRANCH   2  10
BRANCH   1  12
ATOM     12  N   UNL     1       8.555  -2.028  24.948  0.00  0.00    -0.300 NA
ATOM     13  H   UNL     1       7.885  -2.275  25.679  0.00  0.00    +0.123 HD
BRANCH  12  17
ATOM     14  C   UNL     1       6.838  -5.141  25.056  0.00  0.00    +0.180 C 
ATOM     15  C   UNL     1       6.936  -4.356  23.751  0.00  0.00    -0.016 C 
ATOM     16  C   UNL     1       8.055  -3.686  23.417  0.00  0.00    -0.002 C 
ATOM     17  C   UNL     1       9.097  -3.312  24.414  0.00  0.00    +0.109 C 
ATOM     18  C   UNL     1       9.358  -4.466  25.417  0.00  0.00    +0.166 C 
ATOM     19  C   UNL     1       8.236  -5.502  25.616  0.00  0.00    +0.178 C 
BRANCH  19  20
ATOM     20  O   UNL     1       8.173  -5.802  27.025  0.00  0.00    -0.386 OA
ATOM     21  H   UNL     1       7.987  -6.765  27.060  0.00  0.00    +0.210 HD
ENDBRANCH  19  20
BRANCH  18  22
ATOM     22  O   UNL     1      10.518  -5.206  24.958  0.00  0.00    -0.387 OA
ATOM     23  H   UNL     1      10.326  -6.159  25.053  0.00  0.00    +0.210 HD
ENDBRANCH  18  22
BRANCH  15  24
ATOM     24  C   UNL     1       5.747  -4.280  22.863  0.00  0.00    +0.189 C 
BRANCH  24  25
ATOM     25  O   UNL     1       5.875  -3.123  22.018  0.00  0.00    -0.391 OA
ATOM     26  H   UNL     1       6.343  -3.419  21.216  0.00  0.00    +0.210 HD
ENDBRANCH  24  25
ENDBRANCH  15  24
BRANCH  14  27
ATOM     27  O   UNL     1       6.173  -4.448  26.098  0.00  0.00    -0.338 OA
BRANCH  27  33
ATOM     28  C   UNL     1       1.536  -3.593  25.223  0.00  0.00    +0.041 C 
ATOM     29  C   UNL     1       2.532  -4.545  25.880  0.00  0.00    +0.149 C 
ATOM     30  C   UNL     1       2.319  -5.989  25.422  0.00  0.00    +0.174 C 
ATOM     31  C   UNL     1       3.334  -6.902  26.117  0.00  0.00    +0.179 C 
ATOM     32  C   UNL     1       4.762  -6.361  26.122  0.00  0.00    +0.201 C 
ATOM     33  C   UNL     1       4.823  -4.840  26.372  0.00  0.00    +0.282 C 
ATOM     34  O   UNL     1       3.870  -4.146  25.562  0.00  0.00    -0.343 OA
BRANCH  32  35
ATOM     35  O   UNL     1       5.470  -7.052  27.168  0.00  0.00    -0.384 OA
ATOM     36  H   UNL     1       4.882  -7.124  27.938  0.00  0.00    +0.210 HD
ENDBRANCH  32  35
BRANCH  31  37
ATOM     37  O   UNL     1       3.300  -8.196  25.483  0.00  0.00    -0.386 OA
ATOM     38  H   UNL     1       3.044  -8.849  26.158  0.00  0.00    +0.210 HD
ENDBRANCH  31  37
BRANCH  30  39
ATOM     39  O   UNL     1       0.975  -6.388  25.720  0.00  0.00    -0.387 OA
ATOM     40  H   UNL     1       1.006  -7.114  26.367  0.00  0.00    +0.210 HD
ENDBRANCH  30  39
ENDBRANCH  27  33
ENDBRANCH  14  27
ENDBRANCH  12  17
ENDBRANCH   1  12
BRANCH   4  41
ATOM     41  O   UNL     1       7.802   2.998  24.848  0.00  0.00    -0.340 OA
BRANCH  41  42
ATOM     42  C   UNL     1       6.608   3.654  24.380  0.00  0.00    +0.183 C 
ATOM     43  C   UNL     1       6.108   4.719  25.360  0.00  0.00    +0.179 C 
ATOM     44  C   UNL     1       4.711   5.162  24.896  0.00  0.00    +0.201 C 
ATOM     45  C   UNL     1       4.659   5.537  23.381  0.00  0.00    +0.282 C 
ATOM     46  O   UNL     1       5.298   4.558  22.571  0.00  0.00    -0.341 OA
ATOM     47  C   UNL     1       6.649   4.302  22.968  0.00  0.00    +0.178 C 
BRANCH  44  48
ATOM     48  O   UNL     1       4.259   6.241  25.738  0.00  0.00    -0.384 OA
ATOM     49  H   UNL     1       3.365   6.466  25.419  0.00  0.00    +0.210 HD
ENDBRANCH  44  48
BRANCH  43  50
ATOM     50  O   UNL     1       5.998   4.213  26.702  0.00  0.00    -0.386 OA
ATOM     51  H   UNL     1       6.377   4.874  27.305  0.00  0.00    +0.210 HD
ENDBRANCH  43  50
BRANCH  45  52
ATOM     52  O   UNL     1       3.315   5.638  22.893  0.00  0.00    -0.340 OA
BRANCH  52  53
ATOM     53  C   UNL     1       3.057   4.971  21.656  0.00  0.00    +0.183 C 
ATOM     54  C   UNL     1       2.391   3.580  21.799  0.00  0.00    +0.179 C 
ATOM     55  C   UNL     1       2.172   2.994  20.414  0.00  0.00    +0.201 C 
ATOM     56  C   UNL     1       1.382   3.982  19.546  0.00  0.00    +0.279 C 
ATOM     57  O   UNL     1       1.973   5.268  19.478  0.00  0.00    -0.341 OA
ATOM     58  C   UNL     1       2.204   5.889  20.756  0.00  0.00    +0.178 C 
BRANCH  56  59
ATOM     59  O   UNL     1       1.320   3.469  18.221  0.00  0.00    -0.365 OA
ATOM     60  H   UNL     1       1.193   2.510  18.320  0.00  0.00    +0.213 HD
ENDBRANCH  56  59
BRANCH  55  61
ATOM     61  O   UNL     1       1.469   1.748  20.511  0.00  0.00    -0.384 OA
ATOM     62  H   UNL     1       1.913   1.224  21.205  0.00  0.00    +0.210 HD
ENDBRANCH  55  61
BRANCH  54  63
ATOM     63  O   UNL     1       3.162   2.637  22.559  0.00  0.00    -0.386 OA
ATOM     64  H   UNL     1       4.078   2.976  22.643  0.00  0.00    +0.210 HD
ENDBRANCH  54  63
BRANCH  58  65
ATOM     65  C   UNL     1       0.897   6.373  21.407  0.00  0.00    +0.190 C 
BRANCH  65  66
ATOM     66  O   UNL     1       1.179   7.106  22.598  0.00  0.00    -0.392 OA
ATOM     67  H   UNL     1       1.071   6.489  23.346  0.00  0.00    +0.210 HD
ENDBRANCH  65  66
ENDBRANCH  58  65
ENDBRANCH  52  53
ENDBRANCH  45  52
BRANCH  47  68
ATOM     68  C   UNL     1       7.570   5.536  22.805  0.00  0.00    +0.190 C 
BRANCH  68  69
ATOM     69  O   UNL     1       7.586   6.024  21.472  0.00  0.00    -0.392 OA
ATOM     70  H   UNL     1       7.886   6.948  21.493  0.00  0.00    +0.210 HD
ENDBRANCH  68  69
ENDBRANCH  47  68
ENDBRANCH  41  42
ENDBRANCH   4  41
TORSDOF 26
ENDMDL
MODEL 7
REMARK VINA RESULT:      -6.7      2.520      3.772
REMARK  Name = 
REMARK  28 active torsions:
REMARK  status: ('A' for Active; 'I' for Inactive)
REMARK    1  A    between atoms: C_1  and  C_2
REMARK    2  A    between atoms: C_5  and  O_7
REMARK    3  A    between atoms: O_7  and  C_8
REMARK    4  A    between atoms: C_10  and  O_12
REMARK    5  A    between atoms: C_13  and  O_15
REMARK    6  A    between atoms: C_16  and  N_18
REMARK    7  A    between atoms: N_18  and  C_19
REMARK    8  A    between atoms: C_21  and  C_23
REMARK    9  A    between atoms: C_25  and  O_27
REMARK   10  A    between atoms: O_27  and  C_28
REMARK   11  A    between atoms: C_30  and  C_32
REMARK   12  A    between atoms: C_32  and  O_33
REMARK   13  A    between atoms: C_35  and  O_37
REMARK   14  A    between atoms: O_37  and  C_38
REMARK   15  A    between atoms: C_40  and  C_42
REMARK   16  A    between atoms: C_42  and  O_43
REMARK   17  A    between atoms: C_45  and  O_47
REMARK   18  A    between atoms: C_48  and  O_50
REMARK   19  A    between atoms: C_51  and  O_53
REMARK   20  A    between atoms: C_54  and  O_56
REMARK   21  A    between atoms: C_57  and  O_59
REMARK   22  A    between atoms: C_60  and  O_62
REMARK   23  A    between atoms: C_63  and  O_65
REMARK   24  A    between atoms: C_67  and  C_68
REMARK   25  A    between atoms: C_68  and  O_69
REMARK   26  A    between atoms: C_70  and  O_72
REMARK   27  A    between atoms: C_73  and  O_75
REMARK   28  A    between atoms: C_76  and  O_78
REMARK                            x       y       z     vdW  Elec       q    Type
REMARK                         _______ _______ _______ _____ _____    ______ ____
ROOT
ATOM      1  C   UNL     1       8.922  -1.983  23.348  0.00  0.00    +0.114 C 
ATOM      2  C   UNL     1       9.315  -1.207  22.031  0.00  0.00    +0.167 C 
ATOM      3  C   UNL     1       9.177   0.335  22.108  0.00  0.00    +0.200 C 
ATOM      4  C   UNL     1       8.023   0.571  23.065  0.00  0.00    +0.282 C 
ATOM      5  O   UNL     1       8.557   0.261  24.358  0.00  0.00    -0.344 OA
ATOM      6  C   UNL     1       8.448  -1.142  24.573  0.00  0.00    +0.138 C 
ATOM      7  C   UNL     1       9.109  -1.578  25.886  0.00  0.00    +0.039 C 
ENDROOT
BRANCH   3   8
ATOM      8  O   UNL     1       8.934   0.879  20.810  0.00  0.00    -0.384 OA
ATOM      9  H   UNL     1       8.009   0.649  20.590  0.00  0.00    +0.210 HD
ENDBRANCH   3   8
BRANCH   2  10
ATOM     10  O   UNL     1      10.654  -1.582  21.641  0.00  0.00    -0.387 OA
ATOM     11  H   UNL     1      11.283  -0.947  22.024  0.00  0.00    +0.210 HD
ENDBRANCH   2  10
BRANCH   1  12
ATOM     12  N   UNL     1       8.072  -3.175  23.088  0.00  0.00    -0.300 NA
ATOM     13  H   UNL     1       7.765  -3.484  24.013  0.00  0.00    +0.123 HD
BRANCH  12  17
ATOM     14  C   UNL     1       5.015  -4.855  23.782  0.00  0.00    +0.180 C 
ATOM     15  C   UNL     1       5.151  -3.358  24.041  0.00  0.00    -0.016 C 
ATOM     16  C   UNL     1       5.846  -2.561  23.208  0.00  0.00    -0.002 C 
ATOM     17  C   UNL     1       6.847  -3.089  22.238  0.00  0.00    +0.109 C 
ATOM     18  C   UNL     1       6.341  -4.386  21.556  0.00  0.00    +0.166 C 
ATOM     19  C   UNL     1       5.268  -5.207  22.295  0.00  0.00    +0.178 C 
BRANCH  19  20
ATOM     20  O   UNL     1       5.606  -6.600  22.138  0.00  0.00    -0.386 OA
ATOM     21  H   UNL     1       5.130  -7.050  22.868  0.00  0.00    +0.210 HD
ENDBRANCH  19  20
BRANCH  18  22
ATOM     22  O   UNL     1       5.765  -4.025  20.275  0.00  0.00    -0.387 OA
ATOM     23  H   UNL     1       5.162  -4.742  20.000  0.00  0.00    +0.210 HD
ENDBRANCH  18  22
BRANCH  15  24
ATOM     24  C   UNL     1       4.555  -2.781  25.274  0.00  0.00    +0.189 C 
BRANCH  24  25
ATOM     25  O   UNL     1       5.566  -2.728  26.295  0.00  0.00    -0.391 OA
ATOM     26  H   UNL     1       5.214  -2.156  27.002  0.00  0.00    +0.210 HD
ENDBRANCH  24  25
ENDBRANCH  15  24
BRANCH  14  27
ATOM     27  O   UNL     1       5.918  -5.655  24.526  0.00  0.00    -0.338 OA
BRANCH  27  33
ATOM     28  C   UNL     1       5.124  -5.687  29.255  0.00  0.00    +0.041 C 
ATOM     29  C   UNL     1       4.843  -6.397  27.933  0.00  0.00    +0.149 C 
ATOM     30  C   UNL     1       3.344  -6.607  27.712  0.00  0.00    +0.174 C 
ATOM     31  C   UNL     1       3.119  -7.330  26.381  0.00  0.00    +0.179 C 
ATOM     32  C   UNL     1       3.937  -6.771  25.218  0.00  0.00    +0.201 C 
ATOM     33  C   UNL     1       5.372  -6.384  25.631  0.00  0.00    +0.282 C 
ATOM     34  O   UNL     1       5.372  -5.628  26.846  0.00  0.00    -0.343 OA
BRANCH  32  35
ATOM     35  O   UNL     1       3.985  -7.795  24.207  0.00  0.00    -0.384 OA
ATOM     36  H   UNL     1       3.338  -7.574  23.517  0.00  0.00    +0.210 HD
ENDBRANCH  32  35
BRANCH  31  37
ATOM     37  O   UNL     1       1.715  -7.283  26.062  0.00  0.00    -0.386 OA
ATOM     38  H   UNL     1       1.565  -6.502  25.500  0.00  0.00    +0.210 HD
ENDBRANCH  31  37
BRANCH  30  39
ATOM     39  O   UNL     1       2.805  -7.359  28.807  0.00  0.00    -0.387 OA
ATOM     40  H   UNL     1       2.178  -6.793  29.290  0.00  0.00    +0.210 HD
ENDBRANCH  30  39
ENDBRANCH  27  33
ENDBRANCH  14  27
ENDBRANCH  12  17
ENDBRANCH   1  12
BRANCH   4  41
ATOM     41  O   UNL     1       7.438   1.867  23.025  0.00  0.00    -0.340 OA
BRANCH  41  42
ATOM     42  C   UNL     1       6.770   2.126  24.275  0.00  0.00    +0.183 C 
ATOM     43  C   UNL     1       7.460   3.228  25.085  0.00  0.00    +0.179 C 
ATOM     44  C   UNL     1       6.832   3.238  26.489  0.00  0.00    +0.201 C 
ATOM     45  C   UNL     1       5.271   3.272  26.462  0.00  0.00    +0.282 C 
ATOM     46  O   UNL     1       4.736   2.318  25.553  0.00  0.00    -0.341 OA
ATOM     47  C   UNL     1       5.254   2.461  24.227  0.00  0.00    +0.178 C 
BRANCH  44  48
ATOM     48  O   UNL     1       7.386   4.337  27.240  0.00  0.00    -0.384 OA
ATOM     49  H   UNL     1       7.634   5.009  26.578  0.00  0.00    +0.210 HD
ENDBRANCH  44  48
BRANCH  43  50
ATOM     50  O   UNL     1       8.873   2.998  25.224  0.00  0.00    -0.386 OA
ATOM     51  H   UNL     1       9.334   3.565  24.584  0.00  0.00    +0.210 HD
ENDBRANCH  43  50
BRANCH  45  52
ATOM     52  O   UNL     1       4.700   2.964  27.740  0.00  0.00    -0.340 OA
BRANCH  52  53
ATOM     53  C   UNL     1       3.852   1.814  27.775  0.00  0.00    +0.183 C 
ATOM     54  C   UNL     1       4.545   0.516  28.258  0.00  0.00    +0.179 C 
ATOM     55  C   UNL     1       3.530  -0.615  28.249  0.00  0.00    +0.201 C 
ATOM     56  C   UNL     1       2.297  -0.219  29.072  0.00  0.00    +0.279 C 
ATOM     57  O   UNL     1       1.714   1.004  28.658  0.00  0.00    -0.341 OA
ATOM     58  C   UNL     1       2.618   2.125  28.648  0.00  0.00    +0.178 C 
BRANCH  56  59
ATOM     59  O   UNL     1       1.312  -1.234  28.925  0.00  0.00    -0.365 OA
ATOM     60  H   UNL     1       1.686  -1.869  28.292  0.00  0.00    +0.213 HD
ENDBRANCH  56  59
BRANCH  55  61
ATOM     61  O   UNL     1       4.119  -1.810  28.783  0.00  0.00    -0.384 OA
ATOM     62  H   UNL     1       3.384  -2.390  29.057  0.00  0.00    +0.210 HD
ENDBRANCH  55  61
BRANCH  54  63
ATOM     63  O   UNL     1       5.661   0.112  27.448  0.00  0.00    -0.386 OA
ATOM     64  H   UNL     1       6.066   0.912  27.051  0.00  0.00    +0.210 HD
ENDBRANCH  54  63
BRANCH  58  65
ATOM     65  C   UNL     1       2.955   2.608  30.069  0.00  0.00    +0.190 C 
BRANCH  65  66
ATOM     66  O   UNL     1       3.330   3.984  30.048  0.00  0.00    -0.392 OA
ATOM     67  H   UNL     1       4.201   4.036  29.613  0.00  0.00    +0.210 HD
ENDBRANCH  65  66
ENDBRANCH  58  65
ENDBRANCH  52  53
ENDBRANCH  45  52
BRANCH  47  68
ATOM     68  C   UNL     1       4.870   3.811  23.572  0.00  0.00    +0.190 C 
BRANCH  68  69
ATOM     69  O   UNL     1       5.369   3.928  22.248  0.00  0.00    -0.392 OA
ATOM     70  H   UNL     1       5.659   4.846  22.115  0.00  0.00    +0.210 HD
ENDBRANCH  68  69
ENDBRANCH  47  68
ENDBRANCH  41  42
ENDBRANCH   4  41
TORSDOF 26
ENDMDL
MODEL 8
REMARK VINA RESULT:      -6.7      2.375      3.807
REMARK  Name = 
REMARK  28 active torsions:
REMARK  status: ('A' for Active; 'I' for Inactive)
REMARK    1  A    between atoms: C_1  and  C_2
REMARK    2  A    between atoms: C_5  and  O_7
REMARK    3  A    between atoms: O_7  and  C_8
REMARK    4  A    between atoms: C_10  and  O_12
REMARK    5  A    between atoms: C_13  and  O_15
REMARK    6  A    between atoms: C_16  and  N_18
REMARK    7  A    between atoms: N_18  and  C_19
REMARK    8  A    between atoms: C_21  and  C_23
REMARK    9  A    between atoms: C_25  and  O_27
REMARK   10  A    between atoms: O_27  and  C_28
REMARK   11  A    between atoms: C_30  and  C_32
REMARK   12  A    between atoms: C_32  and  O_33
REMARK   13  A    between atoms: C_35  and  O_37
REMARK   14  A    between atoms: O_37  and  C_38
REMARK   15  A    between atoms: C_40  and  C_42
REMARK   16  A    between atoms: C_42  and  O_43
REMARK   17  A    between atoms: C_45  and  O_47
REMARK   18  A    between atoms: C_48  and  O_50
REMARK   19  A    between atoms: C_51  and  O_53
REMARK   20  A    between atoms: C_54  and  O_56
REMARK   21  A    between atoms: C_57  and  O_59
REMARK   22  A    between atoms: C_60  and  O_62
REMARK   23  A    between atoms: C_63  and  O_65
REMARK   24  A    between atoms: C_67  and  C_68
REMARK   25  A    between atoms: C_68  and  O_69
REMARK   26  A    between atoms: C_70  and  O_72
REMARK   27  A    between atoms: C_73  and  O_75
REMARK   28  A    between atoms: C_76  and  O_78
REMARK                            x       y       z     vdW  Elec       q    Type
REMARK                         _______ _______ _______ _____ _____    ______ ____
ROOT
ATOM      1  C   UNL     1       8.638  -1.899  23.441  0.00  0.00    +0.114 C 
ATOM      2  C   UNL     1       9.174  -1.199  22.131  0.00  0.00    +0.167 C 
ATOM      3  C   UNL     1       9.109   0.350  22.138  0.00  0.00    +0.200 C 
ATOM      4  C   UNL     1       7.896   0.681  22.987  0.00  0.00    +0.282 C 
ATOM      5  O   UNL     1       8.309   0.401  24.330  0.00  0.00    -0.344 OA
ATOM      6  C   UNL     1       8.111  -0.985  24.590  0.00  0.00    +0.138 C 
ATOM      7  C   UNL     1       8.642  -1.396  25.969  0.00  0.00    +0.039 C 
ENDROOT
BRANCH   3   8
ATOM      8  O   UNL     1       8.999   0.849  20.804  0.00  0.00    -0.384 OA
ATOM      9  H   UNL     1       8.585   0.133  20.282  0.00  0.00    +0.210 HD
ENDBRANCH   3   8
BRANCH   2  10
ATOM     10  O   UNL     1      10.519  -1.654  21.867  0.00  0.00    -0.387 OA
ATOM     11  H   UNL     1      11.146  -1.047  22.294  0.00  0.00    +0.210 HD
ENDBRANCH   2  10
BRANCH   1  12
ATOM     12  N   UNL     1       7.751  -3.059  23.158  0.00  0.00    -0.300 NA
ATOM     13  H   UNL     1       7.584  -3.020  22.150  0.00  0.00    +0.123 HD
BRANCH  12  17
ATOM     14  C   UNL     1       6.032  -5.237  25.383  0.00  0.00    +0.180 C 
ATOM     15  C   UNL     1       5.914  -5.422  23.873  0.00  0.00    -0.016 C 
ATOM     16  C   UNL     1       6.967  -5.232  23.058  0.00  0.00    -0.002 C 
ATOM     17  C   UNL     1       8.172  -4.457  23.468  0.00  0.00    +0.109 C 
ATOM     18  C   UNL     1       8.586  -4.787  24.925  0.00  0.00    +0.166 C 
ATOM     19  C   UNL     1       7.500  -5.348  25.863  0.00  0.00    +0.178 C 
BRANCH  19  20
ATOM     20  O   UNL     1       7.678  -4.722  27.150  0.00  0.00    -0.386 OA
ATOM     21  H   UNL     1       8.168  -3.896  26.953  0.00  0.00    +0.210 HD
ENDBRANCH  19  20
BRANCH  18  22
ATOM     22  O   UNL     1       9.637  -5.785  24.879  0.00  0.00    -0.387 OA
ATOM     23  H   UNL     1       9.957  -5.931  25.790  0.00  0.00    +0.210 HD
ENDBRANCH  18  22
BRANCH  15  24
ATOM     24  C   UNL     1       4.590  -5.760  23.288  0.00  0.00    +0.189 C 
BRANCH  24  25
ATOM     25  O   UNL     1       3.872  -4.540  23.034  0.00  0.00    -0.391 OA
ATOM     26  H   UNL     1       4.438  -3.816  23.357  0.00  0.00    +0.210 HD
ENDBRANCH  24  25
ENDBRANCH  15  24
BRANCH  14  27
ATOM     27  O   UNL     1       5.568  -3.981  25.849  0.00  0.00    -0.338 OA
BRANCH  27  33
ATOM     28  C   UNL     1       4.236  -4.318  30.443  0.00  0.00    +0.041 C 
ATOM     29  C   UNL     1       3.763  -4.037  29.020  0.00  0.00    +0.149 C 
ATOM     30  C   UNL     1       3.000  -2.714  28.929  0.00  0.00    +0.174 C 
ATOM     31  C   UNL     1       2.540  -2.487  27.486  0.00  0.00    +0.179 C 
ATOM     32  C   UNL     1       3.614  -2.760  26.435  0.00  0.00    +0.201 C 
ATOM     33  C   UNL     1       4.468  -4.002  26.766  0.00  0.00    +0.282 C 
ATOM     34  O   UNL     1       4.888  -3.990  28.133  0.00  0.00    -0.343 OA
BRANCH  32  35
ATOM     35  O   UNL     1       2.935  -2.961  25.182  0.00  0.00    -0.384 OA
ATOM     36  H   UNL     1       3.583  -2.867  24.464  0.00  0.00    +0.210 HD
ENDBRANCH  32  35
BRANCH  31  37
ATOM     37  O   UNL     1       2.065  -1.132  27.362  0.00  0.00    -0.386 OA
ATOM     38  H   UNL     1       1.109  -1.135  27.545  0.00  0.00    +0.210 HD
ENDBRANCH  31  37
BRANCH  30  39
ATOM     39  O   UNL     1       1.885  -2.748  29.828  0.00  0.00    -0.387 OA
ATOM     40  H   UNL     1       1.875  -3.613  30.274  0.00  0.00    +0.210 HD
ENDBRANCH  30  39
ENDBRANCH  27  33
ENDBRANCH  14  27
ENDBRANCH  12  17
ENDBRANCH   1  12
BRANCH   4  41
ATOM     41  O   UNL     1       7.383   2.001  22.850  0.00  0.00    -0.340 OA
BRANCH  41  42
ATOM     42  C   UNL     1       6.942   2.476  24.137  0.00  0.00    +0.183 C 
ATOM     43  C   UNL     1       7.782   3.653  24.641  0.00  0.00    +0.179 C 
ATOM     44  C   UNL     1       7.401   3.903  26.110  0.00  0.00    +0.201 C 
ATOM     45  C   UNL     1       5.859   4.007  26.333  0.00  0.00    +0.282 C 
ATOM     46  O   UNL     1       5.157   2.954  25.683  0.00  0.00    -0.341 OA
ATOM     47  C   UNL     1       5.447   2.872  24.284  0.00  0.00    +0.178 C 
BRANCH  44  48
ATOM     48  O   UNL     1       8.097   5.074  26.581  0.00  0.00    -0.384 OA
ATOM     49  H   UNL     1       7.420   5.626  27.014  0.00  0.00    +0.210 HD
ENDBRANCH  44  48
BRANCH  43  50
ATOM     50  O   UNL     1       9.193   3.379  24.582  0.00  0.00    -0.386 OA
ATOM     51  H   UNL     1       9.308   2.445  24.342  0.00  0.00    +0.210 HD
ENDBRANCH  43  50
BRANCH  45  52
ATOM     52  O   UNL     1       5.505   3.921  27.719  0.00  0.00    -0.340 OA
BRANCH  52  53
ATOM     53  C   UNL     1       4.649   2.832  28.071  0.00  0.00    +0.183 C 
ATOM     54  C   UNL     1       5.231   1.871  29.137  0.00  0.00    +0.179 C 
ATOM     55  C   UNL     1       4.219   0.772  29.415  0.00  0.00    +0.201 C 
ATOM     56  C   UNL     1       2.867   1.390  29.798  0.00  0.00    +0.279 C 
ATOM     57  O   UNL     1       2.381   2.314  28.841  0.00  0.00    -0.341 OA
ATOM     58  C   UNL     1       3.287   3.390  28.532  0.00  0.00    +0.178 C 
BRANCH  56  59
ATOM     59  O   UNL     1       1.910   0.345  29.908  0.00  0.00    -0.365 OA
ATOM     60  H   UNL     1       1.137   0.646  29.400  0.00  0.00    +0.213 HD
ENDBRANCH  56  59
BRANCH  55  61
ATOM     61  O   UNL     1       4.692  -0.079  30.468  0.00  0.00    -0.384 OA
ATOM     62  H   UNL     1       5.558   0.272  30.750  0.00  0.00    +0.210 HD
ENDBRANCH  55  61
BRANCH  54  63
ATOM     63  O   UNL     1       6.465   1.246  28.750  0.00  0.00    -0.386 OA
ATOM     64  H   UNL     1       7.127   1.945  28.564  0.00  0.00    +0.210 HD
ENDBRANCH  54  63
BRANCH  58  65
ATOM     65  C   UNL     1       3.379   4.413  29.677  0.00  0.00    +0.190 C 
BRANCH  65  66
ATOM     66  O   UNL     1       3.407   5.740  29.155  0.00  0.00    -0.392 OA
ATOM     67  H   UNL     1       2.535   5.908  28.752  0.00  0.00    +0.210 HD
ENDBRANCH  65  66
ENDBRANCH  58  65
ENDBRANCH  52  53
ENDBRANCH  45  52
BRANCH  47  68
ATOM     68  C   UNL     1       4.988   4.126  23.499  0.00  0.00    +0.190 C 
BRANCH  68  69
ATOM     69  O   UNL     1       5.328   4.052  22.123  0.00  0.00    -0.392 OA
ATOM     70  H   UNL     1       4.827   3.318  21.727  0.00  0.00    +0.210 HD
ENDBRANCH  68  69
ENDBRANCH  47  68
ENDBRANCH  41  42
ENDBRANCH   4  41
TORSDOF 26
ENDMDL
MODEL 9
REMARK VINA RESULT:      -6.6      2.130      8.280
REMARK  Name = 
REMARK  28 active torsions:
REMARK  status: ('A' for Active; 'I' for Inactive)
REMARK    1  A    between atoms: C_1  and  C_2
REMARK    2  A    between atoms: C_5  and  O_7
REMARK    3  A    between atoms: O_7  and  C_8
REMARK    4  A    between atoms: C_10  and  O_12
REMARK    5  A    between atoms: C_13  and  O_15
REMARK    6  A    between atoms: C_16  and  N_18
REMARK    7  A    between atoms: N_18  and  C_19
REMARK    8  A    between atoms: C_21  and  C_23
REMARK    9  A    between atoms: C_25  and  O_27
REMARK   10  A    between atoms: O_27  and  C_28
REMARK   11  A    between atoms: C_30  and  C_32
REMARK   12  A    between atoms: C_32  and  O_33
REMARK   13  A    between atoms: C_35  and  O_37
REMARK   14  A    between atoms: O_37  and  C_38
REMARK   15  A    between atoms: C_40  and  C_42
REMARK   16  A    between atoms: C_42  and  O_43
REMARK   17  A    between atoms: C_45  and  O_47
REMARK   18  A    between atoms: C_48  and  O_50
REMARK   19  A    between atoms: C_51  and  O_53
REMARK   20  A    between atoms: C_54  and  O_56
REMARK   21  A    between atoms: C_57  and  O_59
REMARK   22  A    between atoms: C_60  and  O_62
REMARK   23  A    between atoms: C_63  and  O_65
REMARK   24  A    between atoms: C_67  and  C_68
REMARK   25  A    between atoms: C_68  and  O_69
REMARK   26  A    between atoms: C_70  and  O_72
REMARK   27  A    between atoms: C_73  and  O_75
REMARK   28  A    between atoms: C_76  and  O_78
REMARK                            x       y       z     vdW  Elec       q    Type
REMARK                         _______ _______ _______ _____ _____    ______ ____
ROOT
ATOM      1  C   UNL     1       8.056   1.119  23.106  0.00  0.00    +0.114 C 
ATOM      2  C   UNL     1       9.058   0.547  22.027  0.00  0.00    +0.167 C 
ATOM      3  C   UNL     1       9.152  -0.999  21.969  0.00  0.00    +0.200 C 
ATOM      4  C   UNL     1       8.897  -1.455  23.394  0.00  0.00    +0.282 C 
ATOM      5  O   UNL     1       7.492  -1.255  23.590  0.00  0.00    -0.344 OA
ATOM      6  C   UNL     1       7.272   0.095  23.984  0.00  0.00    +0.138 C 
ATOM      7  C   UNL     1       5.780   0.428  24.097  0.00  0.00    +0.039 C 
ENDROOT
BRANCH   3   8
ATOM      8  O   UNL     1      10.433  -1.402  21.485  0.00  0.00    -0.384 OA
ATOM      9  H   UNL     1      10.922  -1.739  22.262  0.00  0.00    +0.210 HD
ENDBRANCH   3   8
BRANCH   2  10
ATOM     10  O   UNL     1       8.721   1.089  20.732  0.00  0.00    -0.387 OA
ATOM     11  H   UNL     1       9.443   1.668  20.436  0.00  0.00    +0.210 HD
ENDBRANCH   2  10
BRANCH   1  12
ATOM     12  N   UNL     1       8.625   2.249  23.886  0.00  0.00    -0.300 NA
ATOM     13  H   UNL     1       9.631   2.065  23.917  0.00  0.00    +0.123 HD
BRANCH  12  17
ATOM     14  C   UNL     1       6.002   4.410  24.935  0.00  0.00    +0.180 C 
ATOM     15  C   UNL     1       7.408   4.567  25.504  0.00  0.00    -0.016 C 
ATOM     16  C   UNL     1       8.501   4.395  24.737  0.00  0.00    -0.002 C 
ATOM     17  C   UNL     1       8.465   3.665  23.439  0.00  0.00    +0.109 C 
ATOM     18  C   UNL     1       7.200   4.031  22.620  0.00  0.00    +0.166 C 
ATOM     19  C   UNL     1       5.984   4.573  23.395  0.00  0.00    +0.178 C 
BRANCH  19  20
ATOM     20  O   UNL     1       4.805   3.974  22.819  0.00  0.00    -0.386 OA
ATOM     21  H   UNL     1       5.093   3.073  22.559  0.00  0.00    +0.210 HD
ENDBRANCH  19  20
BRANCH  18  22
ATOM     22  O   UNL     1       7.564   5.060  21.665  0.00  0.00    -0.387 OA
ATOM     23  H   UNL     1       6.869   5.745  21.677  0.00  0.00    +0.210 HD
ENDBRANCH  18  22
BRANCH  15  24
ATOM     24  C   UNL     1       7.573   4.854  26.953  0.00  0.00    +0.189 C 
BRANCH  24  25
ATOM     25  O   UNL     1       7.516   3.615  27.680  0.00  0.00    -0.391 OA
ATOM     26  H   UNL     1       7.489   3.852  28.626  0.00  0.00    +0.210 HD
ENDBRANCH  24  25
ENDBRANCH  15  24
BRANCH  14  27
ATOM     27  O   UNL     1       5.411   3.148  25.195  0.00  0.00    -0.338 OA
BRANCH  27  33
ATOM     28  C   UNL     1       0.641   3.619  25.041  0.00  0.00    +0.041 C 
ATOM     29  C   UNL     1       1.835   3.250  25.917  0.00  0.00    +0.149 C 
ATOM     30  C   UNL     1       1.647   1.886  26.583  0.00  0.00    +0.174 C 
ATOM     31  C   UNL     1       2.865   1.570  27.457  0.00  0.00    +0.179 C 
ATOM     32  C   UNL     1       4.208   1.853  26.785  0.00  0.00    +0.201 C 
ATOM     33  C   UNL     1       4.195   3.151  25.952  0.00  0.00    +0.282 C 
ATOM     34  O   UNL     1       3.030   3.222  25.126  0.00  0.00    -0.343 OA
BRANCH  32  35
ATOM     35  O   UNL     1       5.188   1.961  27.834  0.00  0.00    -0.384 OA
ATOM     36  H   UNL     1       4.741   2.267  28.640  0.00  0.00    +0.210 HD
ENDBRANCH  32  35
BRANCH  31  37
ATOM     37  O   UNL     1       2.799   0.188  27.858  0.00  0.00    -0.386 OA
ATOM     38  H   UNL     1       3.565   0.009  28.432  0.00  0.00    +0.210 HD
ENDBRANCH  31  37
BRANCH  30  39
ATOM     39  O   UNL     1       0.443   1.901  27.361  0.00  0.00    -0.387 OA
ATOM     40  H   UNL     1       0.365   1.049  27.824  0.00  0.00    +0.210 HD
ENDBRANCH  30  39
ENDBRANCH  27  33
ENDBRANCH  14  27
ENDBRANCH  12  17
ENDBRANCH   1  12
BRANCH   4  41
ATOM     41  O   UNL     1       9.296  -2.786  23.701  0.00  0.00    -0.340 OA
BRANCH  41  42
ATOM     42  C   UNL     1       8.190  -3.486  24.304  0.00  0.00    +0.183 C 
ATOM     43  C   UNL     1       7.578  -4.526  23.360  0.00  0.00    +0.179 C 
ATOM     44  C   UNL     1       6.266  -5.017  23.996  0.00  0.00    +0.201 C 
ATOM     45  C   UNL     1       6.432  -5.449  25.487  0.00  0.00    +0.282 C 
ATOM     46  O   UNL     1       7.160  -4.485  26.239  0.00  0.00    -0.341 OA
ATOM     47  C   UNL     1       8.438  -4.184  25.670  0.00  0.00    +0.178 C 
BRANCH  44  48
ATOM     48  O   UNL     1       5.721  -6.076  23.182  0.00  0.00    -0.384 OA
ATOM     49  H   UNL     1       5.190  -5.631  22.495  0.00  0.00    +0.210 HD
ENDBRANCH  44  48
BRANCH  43  50
ATOM     50  O   UNL     1       7.274  -3.974  22.067  0.00  0.00    -0.386 OA
ATOM     51  H   UNL     1       8.015  -3.406  21.801  0.00  0.00    +0.210 HD
ENDBRANCH  43  50
BRANCH  45  52
ATOM     52  O   UNL     1       5.171  -5.598  26.152  0.00  0.00    -0.340 OA
BRANCH  52  53
ATOM     53  C   UNL     1       4.189  -4.608  25.840  0.00  0.00    +0.183 C 
ATOM     54  C   UNL     1       2.742  -5.146  25.729  0.00  0.00    +0.179 C 
ATOM     55  C   UNL     1       1.810  -3.991  25.402  0.00  0.00    +0.201 C 
ATOM     56  C   UNL     1       1.984  -2.869  26.434  0.00  0.00    +0.279 C 
ATOM     57  O   UNL     1       3.326  -2.433  26.568  0.00  0.00    -0.341 OA
ATOM     58  C   UNL     1       4.266  -3.476  26.886  0.00  0.00    +0.178 C 
BRANCH  56  59
ATOM     59  O   UNL     1       1.210  -1.751  26.019  0.00  0.00    -0.365 OA
ATOM     60  H   UNL     1       1.661  -0.972  26.388  0.00  0.00    +0.213 HD
ENDBRANCH  56  59
BRANCH  55  61
ATOM     61  O   UNL     1       0.449  -4.444  25.387  0.00  0.00    -0.384 OA
ATOM     62  H   UNL     1      -0.100  -3.700  25.700  0.00  0.00    +0.210 HD
ENDBRANCH  55  61
BRANCH  54  63
ATOM     63  O   UNL     1       2.567  -6.152  24.719  0.00  0.00    -0.386 OA
ATOM     64  H   UNL     1       1.813  -6.725  24.973  0.00  0.00    +0.210 HD
ENDBRANCH  54  63
BRANCH  58  65
ATOM     65  C   UNL     1       4.130  -3.952  28.343  0.00  0.00    +0.190 C 
BRANCH  65  66
ATOM     66  O   UNL     1       5.324  -4.609  28.763  0.00  0.00    -0.392 OA
ATOM     67  H   UNL     1       6.044  -3.953  28.711  0.00  0.00    +0.210 HD
ENDBRANCH  65  66
ENDBRANCH  58  65
ENDBRANCH  52  53
ENDBRANCH  45  52
BRANCH  47  68
ATOM     68  C   UNL     1       9.394  -5.402  25.655  0.00  0.00    +0.190 C 
BRANCH  68  69
ATOM     69  O   UNL     1      10.555  -5.164  24.873  0.00  0.00    -0.392 OA
ATOM     70  H   UNL     1      10.794  -4.226  24.965  0.00  0.00    +0.210 HD
ENDBRANCH  68  69
ENDBRANCH  47  68
ENDBRANCH  41  42
ENDBRANCH   4  41
TORSDOF 26
ENDMDL
