MODEL 1
REMARK VINA RESULT:      -7.0      0.000      0.000
REMARK  Name = 
REMARK  11 active torsions:
REMARK  status: ('A' for Active; 'I' for Inactive)
REMARK    1  A    between atoms: O_1  and  C_2
REMARK    2  A    between atoms: C_2  and  C_3
REMARK    3  A    between atoms: C_3  and  O_4
REMARK    4  A    between atoms: O_4  and  C_5
REMARK    5  A    between atoms: C_5  and  N_6
REMARK    6  A    between atoms: C_12  and  C_13
REMARK    7  A    between atoms: C_13  and  C_14
REMARK    8  A    between atoms: C_18  and  O_19
REMARK    9  A    between atoms: O_19  and  C_20
REMARK   10  A    between atoms: C_20  and  C_21
REMARK   11  A    between atoms: C_28  and  O_29
REMARK                            x       y       z     vdW  Elec       q    Type
REMARK                         _______ _______ _______ _____ _____    ______ ____
ROOT
ATOM      1  N   UNL     1       5.654  -4.424  25.940  0.00  0.00    -0.240 N 
ATOM      2  C   UNL     1       6.422  -3.272  25.881  0.00  0.00    +0.207 A 
ATOM      3  C   UNL     1       7.751  -3.281  26.056  0.00  0.00    +0.081 A 
ATOM      4  C   UNL     1       8.381  -4.562  26.432  0.00  0.00    +0.261 A 
ATOM      5  O   UNL     1       9.587  -4.669  26.640  0.00  0.00    -0.267 OA
ATOM      6  N   UNL     1       7.545  -5.630  26.572  0.00  0.00    -0.274 N 
ATOM      7  H   UNL     1       7.957  -6.506  26.842  0.00  0.00    +0.173 HD
ATOM      8  C   UNL     1       6.201  -5.639  26.310  0.00  0.00    +0.334 A 
ATOM      9  O   UNL     1       5.567  -6.683  26.418  0.00  0.00    -0.246 OA
ENDROOT
BRANCH   2  10
ATOM     10  O   UNL     1       5.772  -2.083  25.617  0.00  0.00    -0.493 OA
ATOM     11  H   UNL     1       6.436  -1.367  25.697  0.00  0.00    +0.294 HD
ENDBRANCH   2  10
BRANCH   1  12
ATOM     12  C   UNL     1       4.248  -4.407  25.585  0.00  0.00    +0.292 C 
BRANCH  12  13
ATOM     13  O   UNL     1       4.184  -4.010  24.218  0.00  0.00    -0.357 OA
BRANCH  13  14
ATOM     14  C   UNL     1       4.381  -5.067  23.280  0.00  0.00    +0.190 C 
BRANCH  14  15
ATOM     15  C   UNL     1       3.471  -6.261  23.556  0.00  0.00    +0.184 C 
BRANCH  15  16
ATOM     16  O   UNL     1       4.269  -7.406  23.848  0.00  0.00    -0.393 OA
ATOM     17  H   UNL     1       5.072  -7.092  24.300  0.00  0.00    +0.209 HD
ENDBRANCH  15  16
ENDBRANCH  14  15
ENDBRANCH  13  14
ENDBRANCH  12  13
ENDBRANCH   1  12
BRANCH   3  18
ATOM     18  C   UNL     1       8.622  -2.062  26.009  0.00  0.00    +0.081 C 
BRANCH  18  19
ATOM     19  C   UNL     1       8.983  -1.535  24.633  0.00  0.00    -0.039 A 
ATOM     20  C   UNL     1       8.551  -0.256  24.249  0.00  0.00    +0.049 A 
ATOM     21  C   UNL     1       9.087   0.384  23.124  0.00  0.00    +0.121 A 
ATOM     22  C   UNL     1       9.958  -0.319  22.294  0.00  0.00    +0.045 A 
ATOM     23  C   UNL     1      10.322  -1.634  22.613  0.00  0.00    +0.004 A 
ATOM     24  C   UNL     1       9.847  -2.234  23.784  0.00  0.00    +0.004 A 
BRANCH  21  25
ATOM     25  O   UNL     1       8.833   1.695  22.785  0.00  0.00    -0.487 OA
BRANCH  25  26
ATOM     26  C   UNL     1       8.836   2.584  23.913  0.00  0.00    +0.264 C 
BRANCH  26  27
ATOM     27  C   UNL     1       9.801   3.747  23.808  0.00  0.00    -0.010 A 
ATOM     28  C   UNL     1      11.114   3.474  23.380  0.00  0.00    +0.007 A 
ATOM     29  C   UNL     1      12.069   4.488  23.302  0.00  0.00    +0.000 A 
ATOM     30  C   UNL     1      11.724   5.791  23.645  0.00  0.00    +0.000 A 
ATOM     31  C   UNL     1      10.420   6.079  24.052  0.00  0.00    +0.000 A 
ATOM     32  C   UNL     1       9.461   5.064  24.131  0.00  0.00    +0.007 A 
ENDBRANCH  26  27
ENDBRANCH  25  26
ENDBRANCH  21  25
ENDBRANCH  18  19
ENDBRANCH   3  18
TORSDOF 11
ENDMDL
MODEL 2
REMARK VINA RESULT:      -7.0      3.536      9.579
REMARK  Name = 
REMARK  11 active torsions:
REMARK  status: ('A' for Active; 'I' for Inactive)
REMARK    1  A    between atoms: O_1  and  C_2
REMARK    2  A    between atoms: C_2  and  C_3
REMARK    3  A    between atoms: C_3  and  O_4
REMARK    4  A    between atoms: O_4  and  C_5
REMARK    5  A    between atoms: C_5  and  N_6
REMARK    6  A    between atoms: C_12  and  C_13
REMARK    7  A    between atoms: C_13  and  C_14
REMARK    8  A    between atoms: C_18  and  O_19
REMARK    9  A    between atoms: O_19  and  C_20
REMARK   10  A    between atoms: C_20  and  C_21
REMARK   11  A    between atoms: C_28  and  O_29
REMARK                            x       y       z     vdW  Elec       q    Type
REMARK                         _______ _______ _______ _____ _____    ______ ____
ROOT
ATOM      1  N   UNL     1       9.222   4.429  23.600  0.00  0.00    -0.240 N 
ATOM      2  C   UNL     1       9.714   3.148  23.405  0.00  0.00    +0.207 A 
ATOM      3  C   UNL     1       9.050   2.218  22.704  0.00  0.00    +0.081 A 
ATOM      4  C   UNL     1       7.696   2.562  22.225  0.00  0.00    +0.261 A 
ATOM      5  O   UNL     1       6.998   1.771  21.597  0.00  0.00    -0.267 OA
ATOM      6  N   UNL     1       7.239   3.806  22.544  0.00  0.00    -0.274 N 
ATOM      7  H   UNL     1       6.313   4.050  22.238  0.00  0.00    +0.173 HD
ATOM      8  C   UNL     1       7.950   4.784  23.186  0.00  0.00    +0.334 A 
ATOM      9  O   UNL     1       7.445   5.887  23.365  0.00  0.00    -0.246 OA
ENDROOT
BRANCH   2  10
ATOM     10  O   UNL     1      10.945   2.847  23.953  0.00  0.00    -0.493 OA
ATOM     11  H   UNL     1      11.361   3.696  24.209  0.00  0.00    +0.294 HD
ENDBRANCH   2  10
BRANCH   1  12
ATOM     12  C   UNL     1      10.033   5.458  24.219  0.00  0.00    +0.292 C 
BRANCH  12  13
ATOM     13  O   UNL     1      10.956   5.895  23.225  0.00  0.00    -0.357 OA
BRANCH  13  14
ATOM     14  C   UNL     1      12.317   5.932  23.651  0.00  0.00    +0.190 C 
BRANCH  14  15
ATOM     15  C   UNL     1      13.277   5.463  22.561  0.00  0.00    +0.184 C 
BRANCH  15  16
ATOM     16  O   UNL     1      14.489   5.013  23.160  0.00  0.00    -0.393 OA
ATOM     17  H   UNL     1      14.672   4.123  22.812  0.00  0.00    +0.209 HD
ENDBRANCH  15  16
ENDBRANCH  14  15
ENDBRANCH  13  14
ENDBRANCH  12  13
ENDBRANCH   1  12
BRANCH   3  18
ATOM     18  C   UNL     1       9.538   0.820  22.474  0.00  0.00    +0.081 C 
BRANCH  18  19
ATOM     19  C   UNL     1       9.145  -0.218  23.509  0.00  0.00    -0.039 A 
ATOM     20  C   UNL     1       9.382  -1.576  23.248  0.00  0.00    +0.049 A 
ATOM     21  C   UNL     1       9.306  -2.534  24.267  0.00  0.00    +0.121 A 
ATOM     22  C   UNL     1       8.850  -2.152  25.527  0.00  0.00    +0.045 A 
ATOM     23  C   UNL     1       8.515  -0.815  25.774  0.00  0.00    +0.004 A 
ATOM     24  C   UNL     1       8.675   0.151  24.773  0.00  0.00    +0.004 A 
BRANCH  21  25
ATOM     25  O   UNL     1       9.685  -3.852  24.120  0.00  0.00    -0.487 OA
BRANCH  25  26
ATOM     26  C   UNL     1       8.761  -4.777  24.714  0.00  0.00    +0.264 C 
BRANCH  26  27
ATOM     27  C   UNL     1       7.530  -5.072  23.883  0.00  0.00    -0.010 A 
ATOM     28  C   UNL     1       7.705  -5.772  22.675  0.00  0.00    +0.007 A 
ATOM     29  C   UNL     1       6.623  -6.041  21.836  0.00  0.00    +0.000 A 
ATOM     30  C   UNL     1       5.347  -5.618  22.197  0.00  0.00    +0.000 A 
ATOM     31  C   UNL     1       5.156  -4.938  23.401  0.00  0.00    +0.000 A 
ATOM     32  C   UNL     1       6.240  -4.668  24.243  0.00  0.00    +0.007 A 
ENDBRANCH  26  27
ENDBRANCH  25  26
ENDBRANCH  21  25
ENDBRANCH  18  19
ENDBRANCH   3  18
TORSDOF 11
ENDMDL
MODEL 3
REMARK VINA RESULT:      -6.9      3.269      9.317
REMARK  Name = 
REMARK  11 active torsions:
REMARK  status: ('A' for Active; 'I' for Inactive)
REMARK    1  A    between atoms: O_1  and  C_2
REMARK    2  A    between atoms: C_2  and  C_3
REMARK    3  A    between atoms: C_3  and  O_4
REMARK    4  A    between atoms: O_4  and  C_5
REMARK    5  A    between atoms: C_5  and  N_6
REMARK    6  A    between atoms: C_12  and  C_13
REMARK    7  A    between atoms: C_13  and  C_14
REMARK    8  A    between atoms: C_18  and  O_19
REMARK    9  A    between atoms: O_19  and  C_20
REMARK   10  A    between atoms: C_20  and  C_21
REMARK   11  A    between atoms: C_28  and  O_29
REMARK                            x       y       z     vdW  Elec       q    Type
REMARK                         _______ _______ _______ _____ _____    ______ ____
ROOT
ATOM      1  N   UNL     1       8.956   4.286  24.347  0.00  0.00    -0.240 N 
ATOM      2  C   UNL     1       8.723   3.138  23.606  0.00  0.00    +0.207 A 
ATOM      3  C   UNL     1       7.834   2.206  23.978  0.00  0.00    +0.081 A 
ATOM      4  C   UNL     1       7.172   2.378  25.287  0.00  0.00    +0.261 A 
ATOM      5  O   UNL     1       6.363   1.567  25.729  0.00  0.00    -0.267 OA
ATOM      6  N   UNL     1       7.530   3.481  26.006  0.00  0.00    -0.274 N 
ATOM      7  H   UNL     1       7.099   3.604  26.905  0.00  0.00    +0.173 HD
ATOM      8  C   UNL     1       8.373   4.475  25.588  0.00  0.00    +0.334 A 
ATOM      9  O   UNL     1       8.570   5.449  26.307  0.00  0.00    -0.246 OA
ENDROOT
BRANCH   2  10
ATOM     10  O   UNL     1       9.436   2.979  22.435  0.00  0.00    -0.493 OA
ATOM     11  H   UNL     1      10.337   2.686  22.684  0.00  0.00    +0.294 HD
ENDBRANCH   2  10
BRANCH   1  12
ATOM     12  C   UNL     1       9.798   5.350  23.838  0.00  0.00    +0.292 C 
BRANCH  12  13
ATOM     13  O   UNL     1      11.112   4.807  23.733  0.00  0.00    -0.357 OA
BRANCH  13  14
ATOM     14  C   UNL     1      12.155   5.777  23.681  0.00  0.00    +0.190 C 
BRANCH  14  15
ATOM     15  C   UNL     1      13.153   5.494  22.560  0.00  0.00    +0.184 C 
BRANCH  15  16
ATOM     16  O   UNL     1      14.403   5.110  23.125  0.00  0.00    -0.393 OA
ATOM     17  H   UNL     1      14.253   4.294  23.633  0.00  0.00    +0.209 HD
ENDBRANCH  15  16
ENDBRANCH  14  15
ENDBRANCH  13  14
ENDBRANCH  12  13
ENDBRANCH   1  12
BRANCH   3  18
ATOM     18  C   UNL     1       7.554   0.947  23.215  0.00  0.00    +0.081 C 
BRANCH  18  19
ATOM     19  C   UNL     1       8.507  -0.212  23.439  0.00  0.00    -0.039 A 
ATOM     20  C   UNL     1       8.234  -1.143  24.454  0.00  0.00    +0.049 A 
ATOM     21  C   UNL     1       8.910  -2.367  24.517  0.00  0.00    +0.121 A 
ATOM     22  C   UNL     1       9.970  -2.603  23.642  0.00  0.00    +0.045 A 
ATOM     23  C   UNL     1      10.318  -1.639  22.688  0.00  0.00    +0.004 A 
ATOM     24  C   UNL     1       9.581  -0.455  22.578  0.00  0.00    +0.004 A 
BRANCH  21  25
ATOM     25  O   UNL     1       8.581  -3.390  25.379  0.00  0.00    -0.487 OA
BRANCH  25  26
ATOM     26  C   UNL     1       8.616  -4.686  24.761  0.00  0.00    +0.264 C 
BRANCH  26  27
ATOM     27  C   UNL     1       7.380  -5.046  23.962  0.00  0.00    -0.010 A 
ATOM     28  C   UNL     1       6.139  -5.022  24.625  0.00  0.00    +0.007 A 
ATOM     29  C   UNL     1       4.964  -5.384  23.965  0.00  0.00    +0.000 A 
ATOM     30  C   UNL     1       5.014  -5.770  22.629  0.00  0.00    +0.000 A 
ATOM     31  C   UNL     1       6.235  -5.781  21.955  0.00  0.00    +0.000 A 
ATOM     32  C   UNL     1       7.414  -5.418  22.615  0.00  0.00    +0.007 A 
ENDBRANCH  26  27
ENDBRANCH  25  26
ENDBRANCH  21  25
ENDBRANCH  18  19
ENDBRANCH   3  18
TORSDOF 11
ENDMDL
MODEL 4
REMARK VINA RESULT:      -6.9      2.195      3.418
REMARK  Name = 
REMARK  11 active torsions:
REMARK  status: ('A' for Active; 'I' for Inactive)
REMARK    1  A    between atoms: O_1  and  C_2
REMARK    2  A    between atoms: C_2  and  C_3
REMARK    3  A    between atoms: C_3  and  O_4
REMARK    4  A    between atoms: O_4  and  C_5
REMARK    5  A    between atoms: C_5  and  N_6
REMARK    6  A    between atoms: C_12  and  C_13
REMARK    7  A    between atoms: C_13  and  C_14
REMARK    8  A    between atoms: C_18  and  O_19
REMARK    9  A    between atoms: O_19  and  C_20
REMARK   10  A    between atoms: C_20  and  C_21
REMARK   11  A    between atoms: C_28  and  O_29
REMARK                            x       y       z     vdW  Elec       q    Type
REMARK                         _______ _______ _______ _____ _____    ______ ____
ROOT
ATOM      1  N   UNL     1       4.022  -5.418  24.552  0.00  0.00    -0.240 N 
ATOM      2  C   UNL     1       4.658  -4.325  23.984  0.00  0.00    +0.207 A 
ATOM      3  C   UNL     1       5.442  -4.429  22.901  0.00  0.00    +0.081 A 
ATOM      4  C   UNL     1       5.711  -5.784  22.380  0.00  0.00    +0.261 A 
ATOM      5  O   UNL     1       6.437  -5.987  21.411  0.00  0.00    -0.267 OA
ATOM      6  N   UNL     1       5.132  -6.818  23.055  0.00  0.00    -0.274 N 
ATOM      7  H   UNL     1       5.317  -7.748  22.722  0.00  0.00    +0.173 HD
ATOM      8  C   UNL     1       4.263  -6.706  24.108  0.00  0.00    +0.334 A 
ATOM      9  O   UNL     1       3.762  -7.714  24.595  0.00  0.00    -0.246 OA
ENDROOT
BRANCH   2  10
ATOM     10  O   UNL     1       4.448  -3.091  24.565  0.00  0.00    -0.493 OA
ATOM     11  H   UNL     1       5.283  -2.837  25.011  0.00  0.00    +0.294 HD
ENDBRANCH   2  10
BRANCH   1  12
ATOM     12  C   UNL     1       3.053  -5.251  25.617  0.00  0.00    +0.292 C 
BRANCH  12  13
ATOM     13  O   UNL     1       3.778  -4.775  26.748  0.00  0.00    -0.357 OA
BRANCH  13  14
ATOM     14  C   UNL     1       3.981  -5.743  27.776  0.00  0.00    +0.190 C 
BRANCH  14  15
ATOM     15  C   UNL     1       5.390  -6.332  27.745  0.00  0.00    +0.184 C 
BRANCH  15  16
ATOM     16  O   UNL     1       5.383  -7.609  28.377  0.00  0.00    -0.393 OA
ATOM     17  H   UNL     1       5.281  -8.278  27.678  0.00  0.00    +0.209 HD
ENDBRANCH  15  16
ENDBRANCH  14  15
ENDBRANCH  13  14
ENDBRANCH  12  13
ENDBRANCH   1  12
BRANCH   3  18
ATOM     18  C   UNL     1       6.156  -3.280  22.257  0.00  0.00    +0.081 C 
BRANCH  18  19
ATOM     19  C   UNL     1       7.588  -3.034  22.697  0.00  0.00    -0.039 A 
ATOM     20  C   UNL     1       8.346  -2.043  22.055  0.00  0.00    +0.049 A 
ATOM     21  C   UNL     1       9.552  -1.585  22.600  0.00  0.00    +0.121 A 
ATOM     22  C   UNL     1      10.076  -2.224  23.722  0.00  0.00    +0.045 A 
ATOM     23  C   UNL     1       9.376  -3.281  24.317  0.00  0.00    +0.004 A 
ATOM     24  C   UNL     1       8.131  -3.676  23.815  0.00  0.00    +0.004 A 
BRANCH  21  25
ATOM     25  O   UNL     1      10.261  -0.508  22.114  0.00  0.00    -0.487 OA
BRANCH  25  26
ATOM     26  C   UNL     1       9.446   0.432  21.397  0.00  0.00    +0.264 C 
BRANCH  26  27
ATOM     27  C   UNL     1       9.215   1.750  22.107  0.00  0.00    -0.010 A 
ATOM     28  C   UNL     1      10.248   2.247  22.922  0.00  0.00    +0.007 A 
ATOM     29  C   UNL     1      10.090   3.431  23.642  0.00  0.00    +0.000 A 
ATOM     30  C   UNL     1       8.896   4.140  23.551  0.00  0.00    +0.000 A 
ATOM     31  C   UNL     1       7.869   3.668  22.732  0.00  0.00    +0.000 A 
ATOM     32  C   UNL     1       8.027   2.481  22.010  0.00  0.00    +0.007 A 
ENDBRANCH  26  27
ENDBRANCH  25  26
ENDBRANCH  21  25
ENDBRANCH  18  19
ENDBRANCH   3  18
TORSDOF 11
ENDMDL
MODEL 5
REMARK VINA RESULT:      -6.7      2.271      3.059
REMARK  Name = 
REMARK  11 active torsions:
REMARK  status: ('A' for Active; 'I' for Inactive)
REMARK    1  A    between atoms: O_1  and  C_2
REMARK    2  A    between atoms: C_2  and  C_3
REMARK    3  A    between atoms: C_3  and  O_4
REMARK    4  A    between atoms: O_4  and  C_5
REMARK    5  A    between atoms: C_5  and  N_6
REMARK    6  A    between atoms: C_12  and  C_13
REMARK    7  A    between atoms: C_13  and  C_14
REMARK    8  A    between atoms: C_18  and  O_19
REMARK    9  A    between atoms: O_19  and  C_20
REMARK   10  A    between atoms: C_20  and  C_21
REMARK   11  A    between atoms: C_28  and  O_29
REMARK                            x       y       z     vdW  Elec       q    Type
REMARK                         _______ _______ _______ _____ _____    ______ ____
ROOT
ATOM      1  N   UNL     1       6.778  -4.376  26.284  0.00  0.00    -0.240 N 
ATOM      2  C   UNL     1       7.142  -3.647  25.162  0.00  0.00    +0.207 A 
ATOM      3  C   UNL     1       8.339  -3.779  24.574  0.00  0.00    +0.081 A 
ATOM      4  C   UNL     1       9.329  -4.656  25.228  0.00  0.00    +0.261 A 
ATOM      5  O   UNL     1      10.462  -4.821  24.783  0.00  0.00    -0.267 OA
ATOM      6  N   UNL     1       8.933  -5.259  26.385  0.00  0.00    -0.274 N 
ATOM      7  H   UNL     1       9.601  -5.847  26.851  0.00  0.00    +0.173 HD
ATOM      8  C   UNL     1       7.683  -5.192  26.940  0.00  0.00    +0.334 A 
ATOM      9  O   UNL     1       7.433  -5.829  27.958  0.00  0.00    -0.246 OA
ENDROOT
BRANCH   2  10
ATOM     10  O   UNL     1       6.212  -2.770  24.641  0.00  0.00    -0.493 OA
ATOM     11  H   UNL     1       5.392  -3.282  24.482  0.00  0.00    +0.294 HD
ENDBRANCH   2  10
BRANCH   1  12
ATOM     12  C   UNL     1       5.424  -4.334  26.798  0.00  0.00    +0.292 C 
BRANCH  12  13
ATOM     13  O   UNL     1       4.617  -5.046  25.864  0.00  0.00    -0.357 OA
BRANCH  13  14
ATOM     14  C   UNL     1       4.559  -6.455  26.078  0.00  0.00    +0.190 C 
BRANCH  14  15
ATOM     15  C   UNL     1       4.126  -6.807  27.499  0.00  0.00    +0.184 C 
BRANCH  15  16
ATOM     16  O   UNL     1       5.168  -7.534  28.145  0.00  0.00    -0.393 OA
ATOM     17  H   UNL     1       5.083  -7.375  29.101  0.00  0.00    +0.209 HD
ENDBRANCH  15  16
ENDBRANCH  14  15
ENDBRANCH  13  14
ENDBRANCH  12  13
ENDBRANCH   1  12
BRANCH   3  18
ATOM     18  C   UNL     1       8.780  -3.008  23.365  0.00  0.00    +0.081 C 
BRANCH  18  19
ATOM     19  C   UNL     1       9.362  -1.629  23.612  0.00  0.00    -0.039 A 
ATOM     20  C   UNL     1       9.411  -0.703  22.559  0.00  0.00    +0.049 A 
ATOM     21  C   UNL     1       9.667   0.653  22.797  0.00  0.00    +0.121 A 
ATOM     22  C   UNL     1      10.019   1.063  24.082  0.00  0.00    +0.045 A 
ATOM     23  C   UNL     1      10.070   0.130  25.125  0.00  0.00    +0.004 A 
ATOM     24  C   UNL     1       9.730  -1.208  24.894  0.00  0.00    +0.004 A 
BRANCH  21  25
ATOM     25  O   UNL     1       9.568   1.640  21.839  0.00  0.00    -0.487 OA
BRANCH  25  26
ATOM     26  C   UNL     1       8.238   1.793  21.318  0.00  0.00    +0.264 C 
BRANCH  26  27
ATOM     27  C   UNL     1       7.303   2.608  22.185  0.00  0.00    -0.010 A 
ATOM     28  C   UNL     1       6.305   1.921  22.902  0.00  0.00    +0.007 A 
ATOM     29  C   UNL     1       5.379   2.610  23.686  0.00  0.00    +0.000 A 
ATOM     30  C   UNL     1       5.442   3.998  23.770  0.00  0.00    +0.000 A 
ATOM     31  C   UNL     1       6.437   4.690  23.079  0.00  0.00    +0.000 A 
ATOM     32  C   UNL     1       7.366   4.001  22.293  0.00  0.00    +0.007 A 
ENDBRANCH  26  27
ENDBRANCH  25  26
ENDBRANCH  21  25
ENDBRANCH  18  19
ENDBRANCH   3  18
TORSDOF 11
ENDMDL
MODEL 6
REMARK VINA RESULT:      -6.6      1.424      2.108
REMARK  Name = 
REMARK  11 active torsions:
REMARK  status: ('A' for Active; 'I' for Inactive)
REMARK    1  A    between atoms: O_1  and  C_2
REMARK    2  A    between atoms: C_2  and  C_3
REMARK    3  A    between atoms: C_3  and  O_4
REMARK    4  A    between atoms: O_4  and  C_5
REMARK    5  A    between atoms: C_5  and  N_6
REMARK    6  A    between atoms: C_12  and  C_13
REMARK    7  A    between atoms: C_13  and  C_14
REMARK    8  A    between atoms: C_18  and  O_19
REMARK    9  A    between atoms: O_19  and  C_20
REMARK   10  A    between atoms: C_20  and  C_21
REMARK   11  A    between atoms: C_28  and  O_29
REMARK                            x       y       z     vdW  Elec       q    Type
REMARK                         _______ _______ _______ _____ _____    ______ ____
ROOT
ATOM      1  N   UNL     1       6.492  -5.113  26.050  0.00  0.00    -0.240 N 
ATOM      2  C   UNL     1       6.661  -4.360  24.899  0.00  0.00    +0.207 A 
ATOM      3  C   UNL     1       7.870  -4.070  24.398  0.00  0.00    +0.081 A 
ATOM      4  C   UNL     1       9.051  -4.486  25.179  0.00  0.00    +0.261 A 
ATOM      5  O   UNL     1      10.200  -4.244  24.819  0.00  0.00    -0.267 OA
ATOM      6  N   UNL     1       8.803  -5.133  26.354  0.00  0.00    -0.274 N 
ATOM      7  H   UNL     1       9.597  -5.409  26.905  0.00  0.00    +0.173 HD
ATOM      8  C   UNL     1       7.572  -5.504  26.823  0.00  0.00    +0.334 A 
ATOM      9  O   UNL     1       7.484  -6.136  27.870  0.00  0.00    -0.246 OA
ENDROOT
BRANCH   2  10
ATOM     10  O   UNL     1       5.525  -3.916  24.254  0.00  0.00    -0.493 OA
ATOM     11  H   UNL     1       4.816  -3.855  24.928  0.00  0.00    +0.294 HD
ENDBRANCH   2  10
BRANCH   1  12
ATOM     12  C   UNL     1       5.177  -5.549  26.475  0.00  0.00    +0.292 C 
BRANCH  12  13
ATOM     13  O   UNL     1       4.856  -6.690  25.685  0.00  0.00    -0.357 OA
BRANCH  13  14
ATOM     14  C   UNL     1       3.494  -6.763  25.268  0.00  0.00    +0.190 C 
BRANCH  14  15
ATOM     15  C   UNL     1       3.337  -6.541  23.765  0.00  0.00    +0.184 C 
BRANCH  15  16
ATOM     16  O   UNL     1       4.610  -6.653  23.135  0.00  0.00    -0.393 OA
ATOM     17  H   UNL     1       4.749  -7.594  22.928  0.00  0.00    +0.209 HD
ENDBRANCH  15  16
ENDBRANCH  14  15
ENDBRANCH  13  14
ENDBRANCH  12  13
ENDBRANCH   1  12
BRANCH   3  18
ATOM     18  C   UNL     1       8.103  -3.254  23.162  0.00  0.00    +0.081 C 
BRANCH  18  19
ATOM     19  C   UNL     1       7.997  -1.747  23.311  0.00  0.00    -0.039 A 
ATOM     20  C   UNL     1       9.130  -1.011  23.692  0.00  0.00    +0.049 A 
ATOM     21  C   UNL     1       9.164   0.383  23.567  0.00  0.00    +0.121 A 
ATOM     22  C   UNL     1       8.004   1.060  23.194  0.00  0.00    +0.045 A 
ATOM     23  C   UNL     1       6.837   0.344  22.906  0.00  0.00    +0.004 A 
ATOM     24  C   UNL     1       6.837  -1.055  22.951  0.00  0.00    +0.004 A 
BRANCH  21  25
ATOM     25  O   UNL     1      10.292   1.151  23.764  0.00  0.00    -0.487 OA
BRANCH  25  26
ATOM     26  C   UNL     1      10.465   2.171  22.768  0.00  0.00    +0.264 C 
BRANCH  26  27
ATOM     27  C   UNL     1      10.703   3.563  23.315  0.00  0.00    -0.010 A 
ATOM     28  C   UNL     1       9.613   4.233  23.902  0.00  0.00    +0.007 A 
ATOM     29  C   UNL     1       9.746   5.535  24.386  0.00  0.00    +0.000 A 
ATOM     30  C   UNL     1      10.973   6.184  24.295  0.00  0.00    +0.000 A 
ATOM     31  C   UNL     1      12.066   5.525  23.731  0.00  0.00    +0.000 A 
ATOM     32  C   UNL     1      11.935   4.220  23.246  0.00  0.00    +0.007 A 
ENDBRANCH  26  27
ENDBRANCH  25  26
ENDBRANCH  21  25
ENDBRANCH  18  19
ENDBRANCH   3  18
TORSDOF 11
ENDMDL
MODEL 7
REMARK VINA RESULT:      -6.6      1.872      3.005
REMARK  Name = 
REMARK  11 active torsions:
REMARK  status: ('A' for Active; 'I' for Inactive)
REMARK    1  A    between atoms: O_1  and  C_2
REMARK    2  A    between atoms: C_2  and  C_3
REMARK    3  A    between atoms: C_3  and  O_4
REMARK    4  A    between atoms: O_4  and  C_5
REMARK    5  A    between atoms: C_5  and  N_6
REMARK    6  A    between atoms: C_12  and  C_13
REMARK    7  A    between atoms: C_13  and  C_14
REMARK    8  A    between atoms: C_18  and  O_19
REMARK    9  A    between atoms: O_19  and  C_20
REMARK   10  A    between atoms: C_20  and  C_21
REMARK   11  A    between atoms: C_28  and  O_29
REMARK                            x       y       z     vdW  Elec       q    Type
REMARK                         _______ _______ _______ _____ _____    ______ ____
ROOT
ATOM      1  N   UNL     1       6.857  -4.574  26.073  0.00  0.00    -0.240 N 
ATOM      2  C   UNL     1       8.034  -3.945  25.698  0.00  0.00    +0.207 A 
ATOM      3  C   UNL     1       8.360  -3.728  24.416  0.00  0.00    +0.081 A 
ATOM      4  C   UNL     1       7.469  -4.287  23.381  0.00  0.00    +0.261 A 
ATOM      5  O   UNL     1       7.694  -4.166  22.180  0.00  0.00    -0.267 OA
ATOM      6  N   UNL     1       6.385  -4.983  23.827  0.00  0.00    -0.274 N 
ATOM      7  H   UNL     1       5.776  -5.383  23.134  0.00  0.00    +0.173 HD
ATOM      8  C   UNL     1       6.006  -5.132  25.134  0.00  0.00    +0.334 A 
ATOM      9  O   UNL     1       4.973  -5.735  25.405  0.00  0.00    -0.246 OA
ENDROOT
BRANCH   2  10
ATOM     10  O   UNL     1       8.880  -3.522  26.704  0.00  0.00    -0.493 OA
ATOM     11  H   UNL     1       8.752  -4.129  27.462  0.00  0.00    +0.294 HD
ENDBRANCH   2  10
BRANCH   1  12
ATOM     12  C   UNL     1       6.455  -4.648  27.463  0.00  0.00    +0.292 C 
BRANCH  12  13
ATOM     13  O   UNL     1       7.153  -5.756  28.025  0.00  0.00    -0.357 OA
BRANCH  13  14
ATOM     14  C   UNL     1       6.394  -6.532  28.950  0.00  0.00    +0.190 C 
BRANCH  14  15
ATOM     15  C   UNL     1       4.890  -6.355  28.754  0.00  0.00    +0.184 C 
BRANCH  15  16
ATOM     16  O   UNL     1       4.404  -7.373  27.883  0.00  0.00    -0.393 OA
ATOM     17  H   UNL     1       5.083  -8.068  27.842  0.00  0.00    +0.209 HD
ENDBRANCH  15  16
ENDBRANCH  14  15
ENDBRANCH  13  14
ENDBRANCH  12  13
ENDBRANCH   1  12
BRANCH   3  18
ATOM     18  C   UNL     1       9.623  -3.059  23.963  0.00  0.00    +0.081 C 
BRANCH  18  19
ATOM     19  C   UNL     1       9.483  -1.668  23.375  0.00  0.00    -0.039 A 
ATOM     20  C   UNL     1       9.523  -0.552  24.226  0.00  0.00    +0.049 A 
ATOM     21  C   UNL     1       9.685   0.743  23.718  0.00  0.00    +0.121 A 
ATOM     22  C   UNL     1       9.664   0.938  22.339  0.00  0.00    +0.045 A 
ATOM     23  C   UNL     1       9.526  -0.157  21.478  0.00  0.00    +0.004 A 
ATOM     24  C   UNL     1       9.450  -1.456  21.993  0.00  0.00    +0.004 A 
BRANCH  21  25
ATOM     25  O   UNL     1       9.896   1.860  24.498  0.00  0.00    -0.487 OA
BRANCH  25  26
ATOM     26  C   UNL     1       8.690   2.582  24.793  0.00  0.00    +0.264 C 
BRANCH  26  27
ATOM     27  C   UNL     1       8.505   3.863  24.007  0.00  0.00    -0.010 A 
ATOM     28  C   UNL     1       9.369   4.938  24.290  0.00  0.00    +0.007 A 
ATOM     29  C   UNL     1       9.229   6.163  23.637  0.00  0.00    +0.000 A 
ATOM     30  C   UNL     1       8.225   6.330  22.688  0.00  0.00    +0.000 A 
ATOM     31  C   UNL     1       7.373   5.267  22.385  0.00  0.00    +0.000 A 
ATOM     32  C   UNL     1       7.512   4.038  23.038  0.00  0.00    +0.007 A 
ENDBRANCH  26  27
ENDBRANCH  25  26
ENDBRANCH  21  25
ENDBRANCH  18  19
ENDBRANCH   3  18
TORSDOF 11
ENDMDL
MODEL 8
REMARK VINA RESULT:      -6.6      1.932      2.643
REMARK  Name = 
REMARK  11 active torsions:
REMARK  status: ('A' for Active; 'I' for Inactive)
REMARK    1  A    between atoms: O_1  and  C_2
REMARK    2  A    between atoms: C_2  and  C_3
REMARK    3  A    between atoms: C_3  and  O_4
REMARK    4  A    between atoms: O_4  and  C_5
REMARK    5  A    between atoms: C_5  and  N_6
REMARK    6  A    between atoms: C_12  and  C_13
REMARK    7  A    between atoms: C_13  and  C_14
REMARK    8  A    between atoms: C_18  and  O_19
REMARK    9  A    between atoms: O_19  and  C_20
REMARK   10  A    between atoms: C_20  and  C_21
REMARK   11  A    between atoms: C_28  and  O_29
REMARK                            x       y       z     vdW  Elec       q    Type
REMARK                         _______ _______ _______ _____ _____    ______ ____
ROOT
ATOM      1  N   UNL     1       6.225  -4.812  26.587  0.00  0.00    -0.240 N 
ATOM      2  C   UNL     1       6.445  -4.221  25.353  0.00  0.00    +0.207 A 
ATOM      3  C   UNL     1       7.562  -4.432  24.641  0.00  0.00    +0.081 A 
ATOM      4  C   UNL     1       8.628  -5.239  25.267  0.00  0.00    +0.261 A 
ATOM      5  O   UNL     1       9.698  -5.466  24.708  0.00  0.00    -0.267 OA
ATOM      6  N   UNL     1       8.379  -5.700  26.526  0.00  0.00    -0.274 N 
ATOM      7  H   UNL     1       9.101  -6.238  26.971  0.00  0.00    +0.173 HD
ATOM      8  C   UNL     1       7.206  -5.556  27.217  0.00  0.00    +0.334 A 
ATOM      9  O   UNL     1       7.085  -6.069  28.325  0.00  0.00    -0.246 OA
ENDROOT
BRANCH   2  10
ATOM     10  O   UNL     1       5.455  -3.401  24.851  0.00  0.00    -0.493 OA
ATOM     11  H   UNL     1       4.870  -3.960  24.300  0.00  0.00    +0.294 HD
ENDBRANCH   2  10
BRANCH   1  12
ATOM     12  C   UNL     1       4.944  -4.697  27.255  0.00  0.00    +0.292 C 
BRANCH  12  13
ATOM     13  O   UNL     1       4.028  -5.492  26.507  0.00  0.00    -0.357 OA
BRANCH  13  14
ATOM     14  C   UNL     1       3.230  -6.379  27.290  0.00  0.00    +0.190 C 
BRANCH  14  15
ATOM     15  C   UNL     1       3.663  -6.404  28.754  0.00  0.00    +0.184 C 
BRANCH  15  16
ATOM     16  O   UNL     1       4.517  -7.523  28.975  0.00  0.00    -0.393 OA
ATOM     17  H   UNL     1       5.379  -7.177  29.265  0.00  0.00    +0.209 HD
ENDBRANCH  15  16
ENDBRANCH  14  15
ENDBRANCH  13  14
ENDBRANCH  12  13
ENDBRANCH   1  12
BRANCH   3  18
ATOM     18  C   UNL     1       7.848  -3.811  23.307  0.00  0.00    +0.081 C 
BRANCH  18  19
ATOM     19  C   UNL     1       8.442  -2.416  23.319  0.00  0.00    -0.039 A 
ATOM     20  C   UNL     1       7.632  -1.318  22.990  0.00  0.00    +0.049 A 
ATOM     21  C   UNL     1       8.043  -0.006  23.259  0.00  0.00    +0.121 A 
ATOM     22  C   UNL     1       9.336   0.217  23.730  0.00  0.00    +0.045 A 
ATOM     23  C   UNL     1      10.191  -0.865  23.969  0.00  0.00    +0.004 A 
ATOM     24  C   UNL     1       9.742  -2.177  23.778  0.00  0.00    +0.004 A 
BRANCH  21  25
ATOM     25  O   UNL     1       7.237   1.102  23.117  0.00  0.00    -0.487 OA
BRANCH  25  26
ATOM     26  C   UNL     1       7.691   2.007  22.099  0.00  0.00    +0.264 C 
BRANCH  26  27
ATOM     27  C   UNL     1       7.959   3.420  22.573  0.00  0.00    -0.010 A 
ATOM     28  C   UNL     1       7.133   4.447  22.078  0.00  0.00    +0.007 A 
ATOM     29  C   UNL     1       7.348   5.778  22.436  0.00  0.00    +0.000 A 
ATOM     30  C   UNL     1       8.389   6.102  23.300  0.00  0.00    +0.000 A 
ATOM     31  C   UNL     1       9.205   5.092  23.813  0.00  0.00    +0.000 A 
ATOM     32  C   UNL     1       8.990   3.757  23.455  0.00  0.00    +0.007 A 
ENDBRANCH  26  27
ENDBRANCH  25  26
ENDBRANCH  21  25
ENDBRANCH  18  19
ENDBRANCH   3  18
TORSDOF 11
ENDMDL
MODEL 9
REMARK VINA RESULT:      -6.5      1.442      2.411
REMARK  Name = 
REMARK  11 active torsions:
REMARK  status: ('A' for Active; 'I' for Inactive)
REMARK    1  A    between atoms: O_1  and  C_2
REMARK    2  A    between atoms: C_2  and  C_3
REMARK    3  A    between atoms: C_3  and  O_4
REMARK    4  A    between atoms: O_4  and  C_5
REMARK    5  A    between atoms: C_5  and  N_6
REMARK    6  A    between atoms: C_12  and  C_13
REMARK    7  A    between atoms: C_13  and  C_14
REMARK    8  A    between atoms: C_18  and  O_19
REMARK    9  A    between atoms: O_19  and  C_20
REMARK   10  A    between atoms: C_20  and  C_21
REMARK   11  A    between atoms: C_28  and  O_29
REMARK                            x       y       z     vdW  Elec       q    Type
REMARK                         _______ _______ _______ _____ _____    ______ ____
ROOT
ATOM      1  N   UNL     1       5.475  -4.451  25.735  0.00  0.00    -0.240 N 
ATOM      2  C   UNL     1       6.187  -3.273  25.903  0.00  0.00    +0.207 A 
ATOM      3  C   UNL     1       7.481  -3.256  26.250  0.00  0.00    +0.081 A 
ATOM      4  C   UNL     1       8.120  -4.548  26.569  0.00  0.00    +0.261 A 
ATOM      5  O   UNL     1       9.293  -4.635  26.923  0.00  0.00    -0.267 OA
ATOM      6  N   UNL     1       7.327  -5.653  26.482  0.00  0.00    -0.274 N 
ATOM      7  H   UNL     1       7.743  -6.539  26.710  0.00  0.00    +0.173 HD
ATOM      8  C   UNL     1       6.030  -5.680  26.045  0.00  0.00    +0.334 A 
ATOM      9  O   UNL     1       5.439  -6.751  25.956  0.00  0.00    -0.246 OA
ENDROOT
BRANCH   2  10
ATOM     10  O   UNL     1       5.517  -2.086  25.682  0.00  0.00    -0.493 OA
ATOM     11  H   UNL     1       6.154  -1.361  25.851  0.00  0.00    +0.294 HD
ENDBRANCH   2  10
BRANCH   1  12
ATOM     12  C   UNL     1       4.128  -4.444  25.201  0.00  0.00    +0.292 C 
BRANCH  12  13
ATOM     13  O   UNL     1       4.179  -3.693  23.991  0.00  0.00    -0.357 OA
BRANCH  13  14
ATOM     14  C   UNL     1       4.723  -4.397  22.875  0.00  0.00    +0.190 C 
BRANCH  14  15
ATOM     15  C   UNL     1       5.889  -3.650  22.234  0.00  0.00    +0.184 C 
BRANCH  15  16
ATOM     16  O   UNL     1       5.792  -2.263  22.545  0.00  0.00    -0.393 OA
ATOM     17  H   UNL     1       6.553  -1.819  22.133  0.00  0.00    +0.209 HD
ENDBRANCH  15  16
ENDBRANCH  14  15
ENDBRANCH  13  14
ENDBRANCH  12  13
ENDBRANCH   1  12
BRANCH   3  18
ATOM     18  C   UNL     1       8.289  -2.009  26.450  0.00  0.00    +0.081 C 
BRANCH  18  19
ATOM     19  C   UNL     1       8.935  -1.411  25.214  0.00  0.00    -0.039 A 
ATOM     20  C   UNL     1       9.344  -0.069  25.230  0.00  0.00    +0.049 A 
ATOM     21  C   UNL     1      10.189   0.445  24.239  0.00  0.00    +0.121 A 
ATOM     22  C   UNL     1      10.513  -0.353  23.143  0.00  0.00    +0.045 A 
ATOM     23  C   UNL     1      10.030  -1.665  23.065  0.00  0.00    +0.004 A 
ATOM     24  C   UNL     1       9.255  -2.196  24.102  0.00  0.00    +0.004 A 
BRANCH  21  25
ATOM     25  O   UNL     1      10.760   1.699  24.281  0.00  0.00    -0.487 OA
BRANCH  25  26
ATOM     26  C   UNL     1      10.459   2.498  23.127  0.00  0.00    +0.264 C 
BRANCH  26  27
ATOM     27  C   UNL     1       9.019   2.954  23.023  0.00  0.00    -0.010 A 
ATOM     28  C   UNL     1       8.544   3.859  23.991  0.00  0.00    +0.007 A 
ATOM     29  C   UNL     1       7.217   4.287  23.984  0.00  0.00    +0.000 A 
ATOM     30  C   UNL     1       6.345   3.821  23.005  0.00  0.00    +0.000 A 
ATOM     31  C   UNL     1       6.806   2.937  22.029  0.00  0.00    +0.000 A 
ATOM     32  C   UNL     1       8.137   2.507  22.034  0.00  0.00    +0.007 A 
ENDBRANCH  26  27
ENDBRANCH  25  26
ENDBRANCH  21  25
ENDBRANCH  18  19
ENDBRANCH   3  18
TORSDOF 11
ENDMDL
