MODEL 1
REMARK VINA RESULT:      -6.4      0.000      0.000
REMARK  Name = 
REMARK  14 active torsions:
REMARK  status: ('A' for Active; 'I' for Inactive)
REMARK    1  A    between atoms: C_1  and  C_2
REMARK    2  A    between atoms: C_2  and  C_3
REMARK    3  A    between atoms: C_3  and  C_4
REMARK    4  A    between atoms: C_5  and  O_6
REMARK    5  A    between atoms: O_6  and  C_7
REMARK    6  A    between atoms: C_7  and  C_8
REMARK    7  A    between atoms: C_8  and  C_9
REMARK    8  A    between atoms: C_9  and  O_10
REMARK    9  A    between atoms: O_10  and  C_11
REMARK   10  A    between atoms: N_17  and  C_18
REMARK   11  A    between atoms: C_18  and  C_19
REMARK   12  A    between atoms: C_19  and  O_20
REMARK   13  A    between atoms: C_30  and  C_32
REMARK   14  A    between atoms: C_32  and  C_34
REMARK                            x       y       z     vdW  Elec       q    Type
REMARK                         _______ _______ _______ _____ _____    ______ ____
ROOT
ATOM      1  C   UNL     1       6.200  -5.506  24.535  0.00  0.00    +0.002 A 
ATOM      2  C   UNL     1       7.069  -4.467  24.082  0.00  0.00    -0.011 A 
ATOM      3  C   UNL     1       7.069  -3.958  22.766  0.00  0.00    +0.009 A 
ATOM      4  C   UNL     1       7.945  -2.947  22.368  0.00  0.00    +0.012 A 
ATOM      5  C   UNL     1       8.910  -2.465  23.250  0.00  0.00    +0.023 A 
ATOM      6  C   UNL     1       8.900  -2.908  24.574  0.00  0.00    +0.020 A 
ATOM      7  C   UNL     1       7.988  -3.887  24.996  0.00  0.00    -0.017 A 
ATOM      8  C   UNL     1       8.005  -4.307  26.326  0.00  0.00    +0.012 A 
ATOM      9  C   UNL     1       7.146  -5.308  26.766  0.00  0.00    +0.046 A 
ATOM     10  C   UNL     1       6.228  -5.892  25.895  0.00  0.00    +0.124 A 
ENDROOT
BRANCH   5  11
ATOM     11  C   UNL     1       9.947  -1.489  22.829  0.00  0.00    +0.193 C 
ATOM     12  O   UNL     1      11.039  -1.896  22.434  0.00  0.00    -0.287 OA
BRANCH  11  13
ATOM     13  C   UNL     1       9.698  -0.021  22.883  0.00  0.00    +0.022 A 
ATOM     14  C   UNL     1      10.158   0.688  23.999  0.00  0.00    +0.012 A 
ATOM     15  C   UNL     1       9.884   2.050  24.123  0.00  0.00    +0.001 A 
ATOM     16  C   UNL     1       9.153   2.709  23.135  0.00  0.00    +0.000 A 
ATOM     17  C   UNL     1       8.725   2.018  22.002  0.00  0.00    +0.001 A 
ATOM     18  C   UNL     1       9.017   0.660  21.863  0.00  0.00    +0.012 A 
ENDBRANCH  11  13
ENDBRANCH   5  11
BRANCH   1  19
ATOM     19  C   UNL     1       5.297  -6.267  23.570  0.00  0.00    +0.039 C 
BRANCH  19  21
ATOM     20  C   UNL     1       2.775  -6.259  23.368  0.00  0.00    +0.004 C 
ATOM     21  C   UNL     1       4.050  -5.443  23.227  0.00  0.00    +0.001 C 
ENDBRANCH  19  21
ENDBRANCH   1  19
BRANCH  10  22
ATOM     22  O   UNL     1       5.307  -6.833  26.276  0.00  0.00    -0.492 OA
BRANCH  22  23
ATOM     23  C   UNL     1       4.506  -6.596  27.436  0.00  0.00    +0.232 C 
BRANCH  23  24
ATOM     24  C   UNL     1       3.014  -6.428  27.140  0.00  0.00    +0.082 C 
BRANCH  24  25
ATOM     25  C   UNL     1       2.544  -5.003  27.402  0.00  0.00    +0.232 C 
BRANCH  25  26
ATOM     26  O   UNL     1       2.893  -4.202  26.273  0.00  0.00    -0.492 OA
BRANCH  26  27
ATOM     27  C   UNL     1       3.843  -3.238  26.488  0.00  0.00    +0.121 A 
ATOM     28  C   UNL     1       4.432  -2.933  27.715  0.00  0.00    +0.048 A 
ATOM     29  C   UNL     1       5.425  -1.950  27.825  0.00  0.00    +0.030 A 
ATOM     30  C   UNL     1       5.819  -1.269  26.662  0.00  0.00    +0.050 A 
ATOM     31  N   UNL     1       6.773  -0.293  26.441  0.00  0.00    -0.336 N 
ATOM     32  C   UNL     1       6.792   0.050  25.112  0.00  0.00    +0.087 A 
ATOM     33  C   UNL     1       5.857  -0.716  24.460  0.00  0.00    +0.028 A 
ATOM     34  C   UNL     1       5.235  -1.553  25.422  0.00  0.00    +0.003 A 
ATOM     35  C   UNL     1       4.240  -2.545  25.339  0.00  0.00    +0.055 A 
BRANCH  31  36
ATOM     36  C   UNL     1       7.708   0.245  27.424  0.00  0.00    +0.242 C 
BRANCH  36  37
ATOM     37  C   UNL     1       7.145   1.248  28.399  0.00  0.00    +0.325 C 
ATOM     38  O   UNL     1       6.130   1.890  28.141  0.00  0.00    -0.249 OA
BRANCH  37  39
ATOM     39  O   UNL     1       7.805   1.448  29.555  0.00  0.00    -0.479 OA
ATOM     40  H   UNL     1       8.756   1.210  29.557  0.00  0.00    +0.295 HD
ENDBRANCH  37  39
ENDBRANCH  36  37
ENDBRANCH  31  36
ENDBRANCH  26  27
ENDBRANCH  25  26
ENDBRANCH  24  25
ENDBRANCH  23  24
ENDBRANCH  22  23
ENDBRANCH  10  22
TORSDOF 13
ENDMDL
MODEL 2
REMARK VINA RESULT:      -6.3      2.276      7.933
REMARK  Name = 
REMARK  14 active torsions:
REMARK  status: ('A' for Active; 'I' for Inactive)
REMARK    1  A    between atoms: C_1  and  C_2
REMARK    2  A    between atoms: C_2  and  C_3
REMARK    3  A    between atoms: C_3  and  C_4
REMARK    4  A    between atoms: C_5  and  O_6
REMARK    5  A    between atoms: O_6  and  C_7
REMARK    6  A    between atoms: C_7  and  C_8
REMARK    7  A    between atoms: C_8  and  C_9
REMARK    8  A    between atoms: C_9  and  O_10
REMARK    9  A    between atoms: O_10  and  C_11
REMARK   10  A    between atoms: N_17  and  C_18
REMARK   11  A    between atoms: C_18  and  C_19
REMARK   12  A    between atoms: C_19  and  O_20
REMARK   13  A    between atoms: C_30  and  C_32
REMARK   14  A    between atoms: C_32  and  C_34
REMARK                            x       y       z     vdW  Elec       q    Type
REMARK                         _______ _______ _______ _____ _____    ______ ____
ROOT
ATOM      1  C   UNL     1       7.135   0.292  24.808  0.00  0.00    +0.002 A 
ATOM      2  C   UNL     1       6.594  -0.936  25.298  0.00  0.00    -0.011 A 
ATOM      3  C   UNL     1       5.400  -1.517  24.820  0.00  0.00    +0.009 A 
ATOM      4  C   UNL     1       4.905  -2.714  25.337  0.00  0.00    +0.012 A 
ATOM      5  C   UNL     1       5.544  -3.335  26.408  0.00  0.00    +0.023 A 
ATOM      6  C   UNL     1       6.757  -2.815  26.867  0.00  0.00    +0.020 A 
ATOM      7  C   UNL     1       7.287  -1.639  26.317  0.00  0.00    -0.017 A 
ATOM      8  C   UNL     1       8.501  -1.148  26.798  0.00  0.00    +0.012 A 
ATOM      9  C   UNL     1       9.032   0.040  26.308  0.00  0.00    +0.046 A 
ATOM     10  C   UNL     1       8.378   0.749  25.301  0.00  0.00    +0.124 A 
ENDROOT
BRANCH   5  11
ATOM     11  C   UNL     1       4.980  -4.535  27.077  0.00  0.00    +0.193 C 
ATOM     12  O   UNL     1       5.327  -4.809  28.226  0.00  0.00    -0.287 OA
BRANCH  11  13
ATOM     13  C   UNL     1       4.007  -5.424  26.383  0.00  0.00    +0.022 A 
ATOM     14  C   UNL     1       4.448  -6.682  25.956  0.00  0.00    +0.012 A 
ATOM     15  C   UNL     1       3.591  -7.517  25.239  0.00  0.00    +0.001 A 
ATOM     16  C   UNL     1       2.292  -7.101  24.949  0.00  0.00    +0.000 A 
ATOM     17  C   UNL     1       1.833  -5.865  25.404  0.00  0.00    +0.001 A 
ATOM     18  C   UNL     1       2.682  -5.037  26.141  0.00  0.00    +0.012 A 
ENDBRANCH  11  13
ENDBRANCH   5  11
BRANCH   1  19
ATOM     19  C   UNL     1       6.366   1.165  23.821  0.00  0.00    +0.039 C 
BRANCH  19  21
ATOM     20  C   UNL     1       4.633   2.996  23.608  0.00  0.00    +0.004 C 
ATOM     21  C   UNL     1       5.334   2.033  24.553  0.00  0.00    +0.001 C 
ENDBRANCH  19  21
ENDBRANCH   1  19
BRANCH  10  22
ATOM     22  O   UNL     1       8.877   1.889  24.724  0.00  0.00    -0.492 OA
BRANCH  22  23
ATOM     23  C   UNL     1      10.182   1.862  24.142  0.00  0.00    +0.232 C 
BRANCH  23  24
ATOM     24  C   UNL     1      10.200   2.134  22.636  0.00  0.00    +0.082 C 
BRANCH  24  25
ATOM     25  C   UNL     1       9.715   0.930  21.840  0.00  0.00    +0.232 C 
BRANCH  25  26
ATOM     26  O   UNL     1      10.345  -0.238  22.366  0.00  0.00    -0.492 OA
BRANCH  26  27
ATOM     27  C   UNL     1       9.522  -1.306  22.613  0.00  0.00    +0.121 A 
ATOM     28  C   UNL     1       8.331  -1.590  21.946  0.00  0.00    +0.048 A 
ATOM     29  C   UNL     1       7.578  -2.732  22.249  0.00  0.00    +0.030 A 
ATOM     30  C   UNL     1       8.050  -3.595  23.249  0.00  0.00    +0.050 A 
ATOM     31  N   UNL     1       7.565  -4.792  23.744  0.00  0.00    -0.336 N 
ATOM     32  C   UNL     1       8.400  -5.266  24.724  0.00  0.00    +0.087 A 
ATOM     33  C   UNL     1       9.444  -4.384  24.860  0.00  0.00    +0.028 A 
ATOM     34  C   UNL     1       9.239  -3.325  23.938  0.00  0.00    +0.003 A 
ATOM     35  C   UNL     1       9.977  -2.171  23.614  0.00  0.00    +0.055 A 
BRANCH  31  36
ATOM     36  C   UNL     1       6.401  -5.523  23.255  0.00  0.00    +0.242 C 
BRANCH  36  37
ATOM     37  C   UNL     1       6.472  -6.009  21.829  0.00  0.00    +0.325 C 
ATOM     38  O   UNL     1       7.542  -6.083  21.230  0.00  0.00    -0.249 OA
BRANCH  37  39
ATOM     39  O   UNL     1       5.320  -6.330  21.211  0.00  0.00    -0.479 OA
ATOM     40  H   UNL     1       5.394  -6.617  20.277  0.00  0.00    +0.295 HD
ENDBRANCH  37  39
ENDBRANCH  36  37
ENDBRANCH  31  36
ENDBRANCH  26  27
ENDBRANCH  25  26
ENDBRANCH  24  25
ENDBRANCH  23  24
ENDBRANCH  22  23
ENDBRANCH  10  22
TORSDOF 13
ENDMDL
MODEL 3
REMARK VINA RESULT:      -6.2      2.384      7.673
REMARK  Name = 
REMARK  14 active torsions:
REMARK  status: ('A' for Active; 'I' for Inactive)
REMARK    1  A    between atoms: C_1  and  C_2
REMARK    2  A    between atoms: C_2  and  C_3
REMARK    3  A    between atoms: C_3  and  C_4
REMARK    4  A    between atoms: C_5  and  O_6
REMARK    5  A    between atoms: O_6  and  C_7
REMARK    6  A    between atoms: C_7  and  C_8
REMARK    7  A    between atoms: C_8  and  C_9
REMARK    8  A    between atoms: C_9  and  O_10
REMARK    9  A    between atoms: O_10  and  C_11
REMARK   10  A    between atoms: N_17  and  C_18
REMARK   11  A    between atoms: C_18  and  C_19
REMARK   12  A    between atoms: C_19  and  O_20
REMARK   13  A    between atoms: C_30  and  C_32
REMARK   14  A    between atoms: C_32  and  C_34
REMARK                            x       y       z     vdW  Elec       q    Type
REMARK                         _______ _______ _______ _____ _____    ______ ____
ROOT
ATOM      1  C   UNL     1       8.814   3.709  23.610  0.00  0.00    +0.002 A 
ATOM      2  C   UNL     1       9.074   2.305  23.582  0.00  0.00    -0.011 A 
ATOM      3  C   UNL     1      10.049   1.668  24.380  0.00  0.00    +0.009 A 
ATOM      4  C   UNL     1      10.274   0.293  24.310  0.00  0.00    +0.012 A 
ATOM      5  C   UNL     1       9.587  -0.485  23.381  0.00  0.00    +0.023 A 
ATOM      6  C   UNL     1       8.577   0.105  22.617  0.00  0.00    +0.020 A 
ATOM      7  C   UNL     1       8.310   1.477  22.719  0.00  0.00    -0.017 A 
ATOM      8  C   UNL     1       7.294   2.035  21.941  0.00  0.00    +0.012 A 
ATOM      9  C   UNL     1       7.035   3.400  21.983  0.00  0.00    +0.046 A 
ATOM     10  C   UNL     1       7.763   4.237  22.827  0.00  0.00    +0.124 A 
ENDROOT
BRANCH   5  11
ATOM     11  C   UNL     1       9.890  -1.925  23.179  0.00  0.00    +0.193 C 
ATOM     12  O   UNL     1      10.966  -2.255  22.681  0.00  0.00    -0.287 OA
BRANCH  11  13
ATOM     13  C   UNL     1       8.913  -2.984  23.559  0.00  0.00    +0.022 A 
ATOM     14  C   UNL     1       9.036  -3.576  24.820  0.00  0.00    +0.012 A 
ATOM     15  C   UNL     1       8.187  -4.621  25.188  0.00  0.00    +0.001 A 
ATOM     16  C   UNL     1       7.212  -5.074  24.300  0.00  0.00    +0.000 A 
ATOM     17  C   UNL     1       7.058  -4.463  23.056  0.00  0.00    +0.001 A 
ATOM     18  C   UNL     1       7.891  -3.403  22.695  0.00  0.00    +0.012 A 
ENDBRANCH  11  13
ENDBRANCH   5  11
BRANCH   1  19
ATOM     19  C   UNL     1       9.695   4.668  24.405  0.00  0.00    +0.039 C 
BRANCH  19  21
ATOM     20  C   UNL     1      11.996   4.631  23.354  0.00  0.00    +0.004 C 
ATOM     21  C   UNL     1      10.685   5.389  23.482  0.00  0.00    +0.001 C 
ENDBRANCH  19  21
ENDBRANCH   1  19
BRANCH  10  22
ATOM     22  O   UNL     1       7.515   5.578  22.970  0.00  0.00    -0.492 OA
BRANCH  22  23
ATOM     23  C   UNL     1       6.215   6.007  23.381  0.00  0.00    +0.232 C 
BRANCH  23  24
ATOM     24  C   UNL     1       6.167   6.582  24.799  0.00  0.00    +0.082 C 
BRANCH  24  25
ATOM     25  C   UNL     1       5.486   5.629  25.771  0.00  0.00    +0.232 C 
BRANCH  25  26
ATOM     26  O   UNL     1       6.477   4.754  26.309  0.00  0.00    -0.492 OA
BRANCH  26  27
ATOM     27  C   UNL     1       6.284   3.415  26.085  0.00  0.00    +0.121 A 
ATOM     28  C   UNL     1       5.321   2.859  25.244  0.00  0.00    +0.048 A 
ATOM     29  C   UNL     1       5.228   1.473  25.055  0.00  0.00    +0.030 A 
ATOM     30  C   UNL     1       6.134   0.646  25.737  0.00  0.00    +0.050 A 
ATOM     31  N   UNL     1       6.317  -0.724  25.734  0.00  0.00    -0.336 N 
ATOM     32  C   UNL     1       7.354  -1.059  26.569  0.00  0.00    +0.087 A 
ATOM     33  C   UNL     1       7.861   0.099  27.107  0.00  0.00    +0.028 A 
ATOM     34  C   UNL     1       7.103   1.182  26.593  0.00  0.00    +0.003 A 
ATOM     35  C   UNL     1       7.175   2.578  26.766  0.00  0.00    +0.055 A 
BRANCH  31  36
ATOM     36  C   UNL     1       5.606  -1.693  24.907  0.00  0.00    +0.242 C 
BRANCH  36  37
ATOM     37  C   UNL     1       4.424  -2.375  25.550  0.00  0.00    +0.325 C 
ATOM     38  O   UNL     1       3.513  -1.730  26.063  0.00  0.00    -0.249 OA
BRANCH  37  39
ATOM     39  O   UNL     1       4.407  -3.721  25.577  0.00  0.00    -0.479 OA
ATOM     40  H   UNL     1       5.237  -4.170  25.312  0.00  0.00    +0.295 HD
ENDBRANCH  37  39
ENDBRANCH  36  37
ENDBRANCH  31  36
ENDBRANCH  26  27
ENDBRANCH  25  26
ENDBRANCH  24  25
ENDBRANCH  23  24
ENDBRANCH  22  23
ENDBRANCH  10  22
TORSDOF 13
ENDMDL
MODEL 4
REMARK VINA RESULT:      -6.1      1.868      4.559
REMARK  Name = 
REMARK  14 active torsions:
REMARK  status: ('A' for Active; 'I' for Inactive)
REMARK    1  A    between atoms: C_1  and  C_2
REMARK    2  A    between atoms: C_2  and  C_3
REMARK    3  A    between atoms: C_3  and  C_4
REMARK    4  A    between atoms: C_5  and  O_6
REMARK    5  A    between atoms: O_6  and  C_7
REMARK    6  A    between atoms: C_7  and  C_8
REMARK    7  A    between atoms: C_8  and  C_9
REMARK    8  A    between atoms: C_9  and  O_10
REMARK    9  A    between atoms: O_10  and  C_11
REMARK   10  A    between atoms: N_17  and  C_18
REMARK   11  A    between atoms: C_18  and  C_19
REMARK   12  A    between atoms: C_19  and  O_20
REMARK   13  A    between atoms: C_30  and  C_32
REMARK   14  A    between atoms: C_32  and  C_34
REMARK                            x       y       z     vdW  Elec       q    Type
REMARK                         _______ _______ _______ _____ _____    ______ ____
ROOT
ATOM      1  C   UNL     1       6.731  -4.009  26.723  0.00  0.00    +0.002 A 
ATOM      2  C   UNL     1       6.899  -2.596  26.598  0.00  0.00    -0.011 A 
ATOM      3  C   UNL     1       8.153  -1.958  26.490  0.00  0.00    +0.009 A 
ATOM      4  C   UNL     1       8.267  -0.572  26.380  0.00  0.00    +0.012 A 
ATOM      5  C   UNL     1       7.133   0.235  26.455  0.00  0.00    +0.023 A 
ATOM      6  C   UNL     1       5.874  -0.368  26.507  0.00  0.00    +0.020 A 
ATOM      7  C   UNL     1       5.749  -1.764  26.566  0.00  0.00    -0.017 A 
ATOM      8  C   UNL     1       4.477  -2.334  26.616  0.00  0.00    +0.012 A 
ATOM      9  C   UNL     1       4.318  -3.710  26.722  0.00  0.00    +0.046 A 
ATOM     10  C   UNL     1       5.427  -4.554  26.748  0.00  0.00    +0.124 A 
ENDROOT
BRANCH   5  11
ATOM     11  C   UNL     1       7.219   1.717  26.478  0.00  0.00    +0.193 C 
ATOM     12  O   UNL     1       7.088   2.317  27.545  0.00  0.00    -0.287 OA
BRANCH  11  13
ATOM     13  C   UNL     1       7.451   2.500  25.232  0.00  0.00    +0.022 A 
ATOM     14  C   UNL     1       6.350   2.793  24.419  0.00  0.00    +0.012 A 
ATOM     15  C   UNL     1       6.534   3.461  23.208  0.00  0.00    +0.001 A 
ATOM     16  C   UNL     1       7.814   3.841  22.807  0.00  0.00    +0.000 A 
ATOM     17  C   UNL     1       8.911   3.587  23.629  0.00  0.00    +0.001 A 
ATOM     18  C   UNL     1       8.728   2.939  24.852  0.00  0.00    +0.012 A 
ENDBRANCH  11  13
ENDBRANCH   5  11
BRANCH   1  19
ATOM     19  C   UNL     1       7.925  -4.940  26.910  0.00  0.00    +0.039 C 
BRANCH  19  21
ATOM     20  C   UNL     1       9.863  -4.996  25.285  0.00  0.00    +0.004 C 
ATOM     21  C   UNL     1       8.437  -5.447  25.556  0.00  0.00    +0.001 C 
ENDBRANCH  19  21
ENDBRANCH   1  19
BRANCH  10  22
ATOM     22  O   UNL     1       5.344  -5.923  26.782  0.00  0.00    -0.492 OA
BRANCH  22  23
ATOM     23  C   UNL     1       4.294  -6.576  26.064  0.00  0.00    +0.232 C 
BRANCH  23  24
ATOM     24  C   UNL     1       4.606  -6.813  24.584  0.00  0.00    +0.082 C 
BRANCH  24  25
ATOM     25  C   UNL     1       3.835  -5.855  23.685  0.00  0.00    +0.232 C 
BRANCH  25  26
ATOM     26  O   UNL     1       4.566  -5.696  22.469  0.00  0.00    -0.492 OA
BRANCH  26  27
ATOM     27  C   UNL     1       5.598  -4.794  22.500  0.00  0.00    +0.121 A 
ATOM     28  C   UNL     1       6.932  -5.070  22.202  0.00  0.00    +0.048 A 
ATOM     29  C   UNL     1       7.909  -4.066  22.228  0.00  0.00    +0.030 A 
ATOM     30  C   UNL     1       7.515  -2.761  22.563  0.00  0.00    +0.050 A 
ATOM     31  N   UNL     1       8.219  -1.574  22.641  0.00  0.00    -0.336 N 
ATOM     32  C   UNL     1       7.375  -0.553  23.004  0.00  0.00    +0.087 A 
ATOM     33  C   UNL     1       6.112  -1.073  23.148  0.00  0.00    +0.028 A 
ATOM     34  C   UNL     1       6.183  -2.464  22.873  0.00  0.00    +0.003 A 
ATOM     35  C   UNL     1       5.220  -3.491  22.841  0.00  0.00    +0.055 A 
BRANCH  31  36
ATOM     36  C   UNL     1       9.623  -1.373  22.299  0.00  0.00    +0.242 C 
BRANCH  36  37
ATOM     37  C   UNL     1      10.172   0.012  22.530  0.00  0.00    +0.325 C 
ATOM     38  O   UNL     1      10.739   0.309  23.578  0.00  0.00    -0.249 OA
BRANCH  37  39
ATOM     39  O   UNL     1       9.995   0.933  21.563  0.00  0.00    -0.479 OA
ATOM     40  H   UNL     1      10.343   1.829  21.751  0.00  0.00    +0.295 HD
ENDBRANCH  37  39
ENDBRANCH  36  37
ENDBRANCH  31  36
ENDBRANCH  26  27
ENDBRANCH  25  26
ENDBRANCH  24  25
ENDBRANCH  23  24
ENDBRANCH  22  23
ENDBRANCH  10  22
TORSDOF 13
ENDMDL
MODEL 5
REMARK VINA RESULT:      -6.1      2.381      4.723
REMARK  Name = 
REMARK  14 active torsions:
REMARK  status: ('A' for Active; 'I' for Inactive)
REMARK    1  A    between atoms: C_1  and  C_2
REMARK    2  A    between atoms: C_2  and  C_3
REMARK    3  A    between atoms: C_3  and  C_4
REMARK    4  A    between atoms: C_5  and  O_6
REMARK    5  A    between atoms: O_6  and  C_7
REMARK    6  A    between atoms: C_7  and  C_8
REMARK    7  A    between atoms: C_8  and  C_9
REMARK    8  A    between atoms: C_9  and  O_10
REMARK    9  A    between atoms: O_10  and  C_11
REMARK   10  A    between atoms: N_17  and  C_18
REMARK   11  A    between atoms: C_18  and  C_19
REMARK   12  A    between atoms: C_19  and  O_20
REMARK   13  A    between atoms: C_30  and  C_32
REMARK   14  A    between atoms: C_32  and  C_34
REMARK                            x       y       z     vdW  Elec       q    Type
REMARK                         _______ _______ _______ _____ _____    ______ ____
ROOT
ATOM      1  C   UNL     1       4.734  -2.662  25.357  0.00  0.00    +0.002 A 
ATOM      2  C   UNL     1       5.302  -1.442  24.879  0.00  0.00    -0.011 A 
ATOM      3  C   UNL     1       5.176  -0.202  25.541  0.00  0.00    +0.009 A 
ATOM      4  C   UNL     1       5.741   0.966  25.029  0.00  0.00    +0.012 A 
ATOM      5  C   UNL     1       6.385   0.953  23.793  0.00  0.00    +0.023 A 
ATOM      6  C   UNL     1       6.574  -0.267  23.140  0.00  0.00    +0.020 A 
ATOM      7  C   UNL     1       6.053  -1.454  23.674  0.00  0.00    -0.017 A 
ATOM      8  C   UNL     1       6.261  -2.656  22.997  0.00  0.00    +0.012 A 
ATOM      9  C   UNL     1       5.718  -3.844  23.474  0.00  0.00    +0.046 A 
ATOM     10  C   UNL     1       4.983  -3.865  24.657  0.00  0.00    +0.124 A 
ENDROOT
BRANCH   5  11
ATOM     11  C   UNL     1       6.881   2.196  23.149  0.00  0.00    +0.193 C 
ATOM     12  O   UNL     1       7.115   2.201  21.940  0.00  0.00    -0.287 OA
BRANCH  11  13
ATOM     13  C   UNL     1       7.114   3.439  23.937  0.00  0.00    +0.022 A 
ATOM     14  C   UNL     1       8.388   3.654  24.472  0.00  0.00    +0.012 A 
ATOM     15  C   UNL     1       8.629   4.769  25.276  0.00  0.00    +0.001 A 
ATOM     16  C   UNL     1       7.601   5.672  25.545  0.00  0.00    +0.000 A 
ATOM     17  C   UNL     1       6.339   5.484  24.983  0.00  0.00    +0.001 A 
ATOM     18  C   UNL     1       6.101   4.382  24.160  0.00  0.00    +0.012 A 
ENDBRANCH  11  13
ENDBRANCH   5  11
BRANCH   1  19
ATOM     19  C   UNL     1       3.798  -2.689  26.561  0.00  0.00    +0.039 C 
BRANCH  19  21
ATOM     20  C   UNL     1       3.942  -3.378  28.991  0.00  0.00    +0.004 C 
ATOM     21  C   UNL     1       4.591  -2.583  27.869  0.00  0.00    +0.001 C 
ENDBRANCH  19  21
ENDBRANCH   1  19
BRANCH  10  22
ATOM     22  O   UNL     1       4.479  -5.009  25.222  0.00  0.00    -0.492 OA
BRANCH  22  23
ATOM     23  C   UNL     1       5.380  -6.040  25.632  0.00  0.00    +0.232 C 
BRANCH  23  24
ATOM     24  C   UNL     1       5.700  -6.028  27.129  0.00  0.00    +0.082 C 
BRANCH  24  25
ATOM     25  C   UNL     1       7.012  -5.312  27.420  0.00  0.00    +0.232 C 
BRANCH  25  26
ATOM     26  O   UNL     1       7.912  -5.572  26.343  0.00  0.00    -0.492 OA
BRANCH  26  27
ATOM     27  C   UNL     1       8.508  -4.475  25.777  0.00  0.00    +0.121 A 
ATOM     28  C   UNL     1       9.294  -4.477  24.625  0.00  0.00    +0.048 A 
ATOM     29  C   UNL     1       9.831  -3.292  24.105  0.00  0.00    +0.030 A 
ATOM     30  C   UNL     1       9.559  -2.088  24.773  0.00  0.00    +0.050 A 
ATOM     31  N   UNL     1       9.907  -0.778  24.498  0.00  0.00    -0.336 N 
ATOM     32  C   UNL     1       9.385   0.055  25.455  0.00  0.00    +0.087 A 
ATOM     33  C   UNL     1       8.680  -0.711  26.351  0.00  0.00    +0.028 A 
ATOM     34  C   UNL     1       8.779  -2.064  25.935  0.00  0.00    +0.003 A 
ATOM     35  C   UNL     1       8.252  -3.269  26.438  0.00  0.00    +0.055 A 
BRANCH  31  36
ATOM     36  C   UNL     1      10.631  -0.302  23.324  0.00  0.00    +0.242 C 
BRANCH  36  37
ATOM     37  C   UNL     1       9.823  -0.154  22.060  0.00  0.00    +0.325 C 
ATOM     38  O   UNL     1       9.323  -1.128  21.503  0.00  0.00    -0.249 OA
BRANCH  37  39
ATOM     39  O   UNL     1       9.690   1.077  21.532  0.00  0.00    -0.479 OA
ATOM     40  H   UNL     1      10.457   1.678  21.636  0.00  0.00    +0.295 HD
ENDBRANCH  37  39
ENDBRANCH  36  37
ENDBRANCH  31  36
ENDBRANCH  26  27
ENDBRANCH  25  26
ENDBRANCH  24  25
ENDBRANCH  23  24
ENDBRANCH  22  23
ENDBRANCH  10  22
TORSDOF 13
ENDMDL
MODEL 6
REMARK VINA RESULT:      -6.0      2.362      4.246
REMARK  Name = 
REMARK  14 active torsions:
REMARK  status: ('A' for Active; 'I' for Inactive)
REMARK    1  A    between atoms: C_1  and  C_2
REMARK    2  A    between atoms: C_2  and  C_3
REMARK    3  A    between atoms: C_3  and  C_4
REMARK    4  A    between atoms: C_5  and  O_6
REMARK    5  A    between atoms: O_6  and  C_7
REMARK    6  A    between atoms: C_7  and  C_8
REMARK    7  A    between atoms: C_8  and  C_9
REMARK    8  A    between atoms: C_9  and  O_10
REMARK    9  A    between atoms: O_10  and  C_11
REMARK   10  A    between atoms: N_17  and  C_18
REMARK   11  A    between atoms: C_18  and  C_19
REMARK   12  A    between atoms: C_19  and  O_20
REMARK   13  A    between atoms: C_30  and  C_32
REMARK   14  A    between atoms: C_32  and  C_34
REMARK                            x       y       z     vdW  Elec       q    Type
REMARK                         _______ _______ _______ _____ _____    ______ ____
ROOT
ATOM      1  C   UNL     1       5.094  -2.934  25.012  0.00  0.00    +0.002 A 
ATOM      2  C   UNL     1       5.671  -1.795  24.374  0.00  0.00    -0.011 A 
ATOM      3  C   UNL     1       5.876  -0.553  25.013  0.00  0.00    +0.009 A 
ATOM      4  C   UNL     1       6.436   0.536  24.344  0.00  0.00    +0.012 A 
ATOM      5  C   UNL     1       6.738   0.448  22.987  0.00  0.00    +0.023 A 
ATOM      6  C   UNL     1       6.600  -0.782  22.340  0.00  0.00    +0.020 A 
ATOM      7  C   UNL     1       6.085  -1.896  23.020  0.00  0.00    -0.017 A 
ATOM      8  C   UNL     1       5.960  -3.110  22.344  0.00  0.00    +0.012 A 
ATOM      9  C   UNL     1       5.411  -4.221  22.974  0.00  0.00    +0.046 A 
ATOM     10  C   UNL     1       5.003  -4.155  24.305  0.00  0.00    +0.124 A 
ENDROOT
BRANCH   5  11
ATOM     11  C   UNL     1       7.208   1.620  22.205  0.00  0.00    +0.193 C 
ATOM     12  O   UNL     1       8.150   1.490  21.423  0.00  0.00    -0.287 OA
BRANCH  11  13
ATOM     13  C   UNL     1       6.568   2.957  22.352  0.00  0.00    +0.022 A 
ATOM     14  C   UNL     1       7.376   4.094  22.235  0.00  0.00    +0.012 A 
ATOM     15  C   UNL     1       6.831   5.362  22.437  0.00  0.00    +0.001 A 
ATOM     16  C   UNL     1       5.480   5.500  22.752  0.00  0.00    +0.000 A 
ATOM     17  C   UNL     1       4.661   4.375  22.832  0.00  0.00    +0.001 A 
ATOM     18  C   UNL     1       5.198   3.106  22.609  0.00  0.00    +0.012 A 
ENDBRANCH  11  13
ENDBRANCH   5  11
BRANCH   1  19
ATOM     19  C   UNL     1       4.498  -2.847  26.414  0.00  0.00    +0.039 C 
BRANCH  19  21
ATOM     20  C   UNL     1       2.012  -3.293  26.260  0.00  0.00    +0.004 C 
ATOM     21  C   UNL     1       3.094  -2.231  26.370  0.00  0.00    +0.001 C 
ENDBRANCH  19  21
ENDBRANCH   1  19
BRANCH  10  22
ATOM     22  O   UNL     1       4.518  -5.227  25.008  0.00  0.00    -0.492 OA
BRANCH  22  23
ATOM     23  C   UNL     1       5.418  -6.263  25.410  0.00  0.00    +0.232 C 
BRANCH  23  24
ATOM     24  C   UNL     1       5.734  -6.267  26.908  0.00  0.00    +0.082 C 
BRANCH  24  25
ATOM     25  C   UNL     1       6.992  -5.469  27.221  0.00  0.00    +0.232 C 
BRANCH  25  26
ATOM     26  O   UNL     1       7.750  -5.338  26.019  0.00  0.00    -0.492 OA
BRANCH  26  27
ATOM     27  C   UNL     1       8.266  -4.094  25.764  0.00  0.00    +0.121 A 
ATOM     28  C   UNL     1       8.363  -3.048  26.681  0.00  0.00    +0.048 A 
ATOM     29  C   UNL     1       8.942  -1.821  26.330  0.00  0.00    +0.030 A 
ATOM     30  C   UNL     1       9.427  -1.662  25.022  0.00  0.00    +0.050 A 
ATOM     31  N   UNL     1      10.066  -0.610  24.394  0.00  0.00    -0.336 N 
ATOM     32  C   UNL     1      10.357  -0.947  23.096  0.00  0.00    +0.087 A 
ATOM     33  C   UNL     1       9.920  -2.231  22.879  0.00  0.00    +0.028 A 
ATOM     34  C   UNL     1       9.332  -2.697  24.084  0.00  0.00    +0.003 A 
ATOM     35  C   UNL     1       8.745  -3.920  24.461  0.00  0.00    +0.055 A 
BRANCH  31  36
ATOM     36  C   UNL     1      10.479   0.647  25.010  0.00  0.00    +0.242 C 
BRANCH  36  37
ATOM     37  C   UNL     1       9.997   1.907  24.337  0.00  0.00    +0.325 C 
ATOM     38  O   UNL     1       9.119   2.605  24.838  0.00  0.00    -0.249 OA
BRANCH  37  39
ATOM     39  O   UNL     1      10.535   2.235  23.147  0.00  0.00    -0.479 OA
ATOM     40  H   UNL     1      10.565   3.191  22.934  0.00  0.00    +0.295 HD
ENDBRANCH  37  39
ENDBRANCH  36  37
ENDBRANCH  31  36
ENDBRANCH  26  27
ENDBRANCH  25  26
ENDBRANCH  24  25
ENDBRANCH  23  24
ENDBRANCH  22  23
ENDBRANCH  10  22
TORSDOF 13
ENDMDL
MODEL 7
REMARK VINA RESULT:      -6.0      2.250      4.899
REMARK  Name = 
REMARK  14 active torsions:
REMARK  status: ('A' for Active; 'I' for Inactive)
REMARK    1  A    between atoms: C_1  and  C_2
REMARK    2  A    between atoms: C_2  and  C_3
REMARK    3  A    between atoms: C_3  and  C_4
REMARK    4  A    between atoms: C_5  and  O_6
REMARK    5  A    between atoms: O_6  and  C_7
REMARK    6  A    between atoms: C_7  and  C_8
REMARK    7  A    between atoms: C_8  and  C_9
REMARK    8  A    between atoms: C_9  and  O_10
REMARK    9  A    between atoms: O_10  and  C_11
REMARK   10  A    between atoms: N_17  and  C_18
REMARK   11  A    between atoms: C_18  and  C_19
REMARK   12  A    between atoms: C_19  and  O_20
REMARK   13  A    between atoms: C_30  and  C_32
REMARK   14  A    between atoms: C_32  and  C_34
REMARK                            x       y       z     vdW  Elec       q    Type
REMARK                         _______ _______ _______ _____ _____    ______ ____
ROOT
ATOM      1  C   UNL     1       5.828  -2.419  26.840  0.00  0.00    +0.002 A 
ATOM      2  C   UNL     1       6.114  -1.021  26.881  0.00  0.00    -0.011 A 
ATOM      3  C   UNL     1       5.138  -0.022  27.085  0.00  0.00    +0.009 A 
ATOM      4  C   UNL     1       5.466   1.334  27.108  0.00  0.00    +0.012 A 
ATOM      5  C   UNL     1       6.771   1.747  26.847  0.00  0.00    +0.023 A 
ATOM      6  C   UNL     1       7.770   0.781  26.697  0.00  0.00    +0.020 A 
ATOM      7  C   UNL     1       7.456  -0.585  26.724  0.00  0.00    -0.017 A 
ATOM      8  C   UNL     1       8.478  -1.523  26.571  0.00  0.00    +0.012 A 
ATOM      9  C   UNL     1       8.196  -2.884  26.546  0.00  0.00    +0.046 A 
ATOM     10  C   UNL     1       6.889  -3.342  26.706  0.00  0.00    +0.124 A 
ENDROOT
BRANCH   5  11
ATOM     11  C   UNL     1       7.137   3.181  26.728  0.00  0.00    +0.193 C 
ATOM     12  O   UNL     1       7.279   3.858  27.746  0.00  0.00    -0.287 OA
BRANCH  11  13
ATOM     13  C   UNL     1       7.327   3.825  25.397  0.00  0.00    +0.022 A 
ATOM     14  C   UNL     1       8.400   4.708  25.238  0.00  0.00    +0.012 A 
ATOM     15  C   UNL     1       8.573   5.387  24.031  0.00  0.00    +0.001 A 
ATOM     16  C   UNL     1       7.678   5.184  22.981  0.00  0.00    +0.000 A 
ATOM     17  C   UNL     1       6.629   4.276  23.120  0.00  0.00    +0.001 A 
ATOM     18  C   UNL     1       6.467   3.578  24.318  0.00  0.00    +0.012 A 
ENDBRANCH  11  13
ENDBRANCH   5  11
BRANCH   1  19
ATOM     19  C   UNL     1       4.394  -2.940  26.856  0.00  0.00    +0.039 C 
BRANCH  19  21
ATOM     20  C   UNL     1       2.743  -3.922  25.209  0.00  0.00    +0.004 C 
ATOM     21  C   UNL     1       3.754  -2.816  25.468  0.00  0.00    +0.001 C 
ENDBRANCH  19  21
ENDBRANCH   1  19
BRANCH  10  22
ATOM     22  O   UNL     1       6.548  -4.670  26.761  0.00  0.00    -0.492 OA
BRANCH  22  23
ATOM     23  C   UNL     1       6.950  -5.538  25.699  0.00  0.00    +0.232 C 
BRANCH  23  24
ATOM     24  C   UNL     1       5.914  -5.677  24.581  0.00  0.00    +0.082 C 
BRANCH  24  25
ATOM     25  C   UNL     1       6.535  -5.469  23.207  0.00  0.00    +0.232 C 
BRANCH  25  26
ATOM     26  O   UNL     1       5.951  -4.305  22.623  0.00  0.00    -0.492 OA
BRANCH  26  27
ATOM     27  C   UNL     1       6.661  -3.140  22.762  0.00  0.00    +0.121 A 
ATOM     28  C   UNL     1       6.115  -1.863  22.886  0.00  0.00    +0.048 A 
ATOM     29  C   UNL     1       6.928  -0.735  23.061  0.00  0.00    +0.030 A 
ATOM     30  C   UNL     1       8.319  -0.918  23.110  0.00  0.00    +0.050 A 
ATOM     31  N   UNL     1       9.362  -0.030  23.300  0.00  0.00    -0.336 N 
ATOM     32  C   UNL     1      10.558  -0.703  23.278  0.00  0.00    +0.087 A 
ATOM     33  C   UNL     1      10.295  -2.038  23.086  0.00  0.00    +0.028 A 
ATOM     34  C   UNL     1       8.888  -2.190  22.979  0.00  0.00    +0.003 A 
ATOM     35  C   UNL     1       8.049  -3.307  22.803  0.00  0.00    +0.055 A 
BRANCH  31  36
ATOM     36  C   UNL     1       9.246   1.395  23.588  0.00  0.00    +0.242 C 
BRANCH  36  37
ATOM     37  C   UNL     1      10.208   2.300  22.861  0.00  0.00    +0.325 C 
ATOM     38  O   UNL     1      11.028   2.985  23.470  0.00  0.00    -0.249 OA
BRANCH  37  39
ATOM     39  O   UNL     1      10.126   2.366  21.519  0.00  0.00    -0.479 OA
ATOM     40  H   UNL     1      10.839   1.918  21.019  0.00  0.00    +0.295 HD
ENDBRANCH  37  39
ENDBRANCH  36  37
ENDBRANCH  31  36
ENDBRANCH  26  27
ENDBRANCH  25  26
ENDBRANCH  24  25
ENDBRANCH  23  24
ENDBRANCH  22  23
ENDBRANCH  10  22
TORSDOF 13
ENDMDL
MODEL 8
REMARK VINA RESULT:      -5.9      2.169      7.229
REMARK  Name = 
REMARK  14 active torsions:
REMARK  status: ('A' for Active; 'I' for Inactive)
REMARK    1  A    between atoms: C_1  and  C_2
REMARK    2  A    between atoms: C_2  and  C_3
REMARK    3  A    between atoms: C_3  and  C_4
REMARK    4  A    between atoms: C_5  and  O_6
REMARK    5  A    between atoms: O_6  and  C_7
REMARK    6  A    between atoms: C_7  and  C_8
REMARK    7  A    between atoms: C_8  and  C_9
REMARK    8  A    between atoms: C_9  and  O_10
REMARK    9  A    between atoms: O_10  and  C_11
REMARK   10  A    between atoms: N_17  and  C_18
REMARK   11  A    between atoms: C_18  and  C_19
REMARK   12  A    between atoms: C_19  and  O_20
REMARK   13  A    between atoms: C_30  and  C_32
REMARK   14  A    between atoms: C_32  and  C_34
REMARK                            x       y       z     vdW  Elec       q    Type
REMARK                         _______ _______ _______ _____ _____    ______ ____
ROOT
ATOM      1  C   UNL     1       9.187   1.381  22.512  0.00  0.00    +0.002 A 
ATOM      2  C   UNL     1       9.095   0.019  22.933  0.00  0.00    -0.011 A 
ATOM      3  C   UNL     1      10.202  -0.757  23.338  0.00  0.00    +0.009 A 
ATOM      4  C   UNL     1      10.064  -2.088  23.733  0.00  0.00    +0.012 A 
ATOM      5  C   UNL     1       8.823  -2.717  23.660  0.00  0.00    +0.023 A 
ATOM      6  C   UNL     1       7.699  -1.962  23.316  0.00  0.00    +0.020 A 
ATOM      7  C   UNL     1       7.823  -0.610  22.968  0.00  0.00    -0.017 A 
ATOM      8  C   UNL     1       6.679   0.116  22.630  0.00  0.00    +0.012 A 
ATOM      9  C   UNL     1       6.772   1.445  22.235  0.00  0.00    +0.046 A 
ATOM     10  C   UNL     1       8.006   2.092  22.198  0.00  0.00    +0.124 A 
ENDROOT
BRANCH   5  11
ATOM     11  C   UNL     1       8.655  -4.166  23.940  0.00  0.00    +0.193 C 
ATOM     12  O   UNL     1       9.556  -4.784  24.507  0.00  0.00    -0.287 OA
BRANCH  11  13
ATOM     13  C   UNL     1       7.418  -4.894  23.540  0.00  0.00    +0.022 A 
ATOM     14  C   UNL     1       6.462  -5.166  24.525  0.00  0.00    +0.012 A 
ATOM     15  C   UNL     1       5.324  -5.908  24.209  0.00  0.00    +0.001 A 
ATOM     16  C   UNL     1       5.134  -6.378  22.909  0.00  0.00    +0.000 A 
ATOM     17  C   UNL     1       6.063  -6.078  21.914  0.00  0.00    +0.001 A 
ATOM     18  C   UNL     1       7.192  -5.316  22.222  0.00  0.00    +0.012 A 
ENDBRANCH  11  13
ENDBRANCH   5  11
BRANCH   1  19
ATOM     19  C   UNL     1      10.536   2.065  22.314  0.00  0.00    +0.039 C 
BRANCH  19  21
ATOM     20  C   UNL     1      11.486   4.163  23.360  0.00  0.00    +0.004 C 
ATOM     21  C   UNL     1      10.996   2.746  23.608  0.00  0.00    +0.001 C 
ENDBRANCH  19  21
ENDBRANCH   1  19
BRANCH  10  22
ATOM     22  O   UNL     1       8.163   3.418  21.886  0.00  0.00    -0.492 OA
BRANCH  22  23
ATOM     23  C   UNL     1       7.246   4.375  22.421  0.00  0.00    +0.232 C 
BRANCH  23  24
ATOM     24  C   UNL     1       7.844   5.272  23.508  0.00  0.00    +0.082 C 
BRANCH  24  25
ATOM     25  C   UNL     1       8.029   4.522  24.820  0.00  0.00    +0.232 C 
BRANCH  25  26
ATOM     26  O   UNL     1       6.738   4.250  25.366  0.00  0.00    -0.492 OA
BRANCH  26  27
ATOM     27  C   UNL     1       6.459   2.933  25.628  0.00  0.00    +0.121 A 
ATOM     28  C   UNL     1       5.208   2.328  25.521  0.00  0.00    +0.048 A 
ATOM     29  C   UNL     1       5.033   0.961  25.777  0.00  0.00    +0.030 A 
ATOM     30  C   UNL     1       6.155   0.204  26.149  0.00  0.00    +0.050 A 
ATOM     31  N   UNL     1       6.312  -1.140  26.429  0.00  0.00    -0.336 N 
ATOM     32  C   UNL     1       7.624  -1.404  26.736  0.00  0.00    +0.087 A 
ATOM     33  C   UNL     1       8.330  -0.230  26.640  0.00  0.00    +0.028 A 
ATOM     34  C   UNL     1       7.419   0.794  26.271  0.00  0.00    +0.003 A 
ATOM     35  C   UNL     1       7.568   2.169  26.008  0.00  0.00    +0.055 A 
BRANCH  31  36
ATOM     36  C   UNL     1       5.286  -2.173  26.326  0.00  0.00    +0.242 C 
BRANCH  36  37
ATOM     37  C   UNL     1       4.936  -2.891  27.605  0.00  0.00    +0.325 C 
ATOM     38  O   UNL     1       4.411  -2.303  28.547  0.00  0.00    -0.249 OA
BRANCH  37  39
ATOM     39  O   UNL     1       5.246  -4.198  27.703  0.00  0.00    -0.479 OA
ATOM     40  H   UNL     1       4.516  -4.798  27.964  0.00  0.00    +0.295 HD
ENDBRANCH  37  39
ENDBRANCH  36  37
ENDBRANCH  31  36
ENDBRANCH  26  27
ENDBRANCH  25  26
ENDBRANCH  24  25
ENDBRANCH  23  24
ENDBRANCH  22  23
ENDBRANCH  10  22
TORSDOF 13
ENDMDL
MODEL 9
REMARK VINA RESULT:      -5.9      0.949      2.069
REMARK  Name = 
REMARK  14 active torsions:
REMARK  status: ('A' for Active; 'I' for Inactive)
REMARK    1  A    between atoms: C_1  and  C_2
REMARK    2  A    between atoms: C_2  and  C_3
REMARK    3  A    between atoms: C_3  and  C_4
REMARK    4  A    between atoms: C_5  and  O_6
REMARK    5  A    between atoms: O_6  and  C_7
REMARK    6  A    between atoms: C_7  and  C_8
REMARK    7  A    between atoms: C_8  and  C_9
REMARK    8  A    between atoms: C_9  and  O_10
REMARK    9  A    between atoms: O_10  and  C_11
REMARK   10  A    between atoms: N_17  and  C_18
REMARK   11  A    between atoms: C_18  and  C_19
REMARK   12  A    between atoms: C_19  and  O_20
REMARK   13  A    between atoms: C_30  and  C_32
REMARK   14  A    between atoms: C_32  and  C_34
REMARK                            x       y       z     vdW  Elec       q    Type
REMARK                         _______ _______ _______ _____ _____    ______ ____
ROOT
ATOM      1  C   UNL     1       6.451  -5.260  25.027  0.00  0.00    +0.002 A 
ATOM      2  C   UNL     1       7.400  -4.360  24.453  0.00  0.00    -0.011 A 
ATOM      3  C   UNL     1       8.595  -3.964  25.090  0.00  0.00    +0.009 A 
ATOM      4  C   UNL     1       9.488  -3.074  24.493  0.00  0.00    +0.012 A 
ATOM      5  C   UNL     1       9.180  -2.484  23.269  0.00  0.00    +0.023 A 
ATOM      6  C   UNL     1       8.032  -2.896  22.588  0.00  0.00    +0.020 A 
ATOM      7  C   UNL     1       7.155  -3.830  23.159  0.00  0.00    -0.017 A 
ATOM      8  C   UNL     1       6.018  -4.220  22.452  0.00  0.00    +0.012 A 
ATOM      9  C   UNL     1       5.104  -5.108  23.009  0.00  0.00    +0.046 A 
ATOM     10  C   UNL     1       5.321  -5.651  24.273  0.00  0.00    +0.124 A 
ENDROOT
BRANCH   5  11
ATOM     11  C   UNL     1      10.034  -1.432  22.662  0.00  0.00    +0.193 C 
ATOM     12  O   UNL     1      11.075  -1.751  22.088  0.00  0.00    -0.287 OA
BRANCH  11  13
ATOM     13  C   UNL     1       9.663   0.009  22.740  0.00  0.00    +0.022 A 
ATOM     14  C   UNL     1      10.064   0.735  23.867  0.00  0.00    +0.012 A 
ATOM     15  C   UNL     1       9.676   2.067  24.014  0.00  0.00    +0.001 A 
ATOM     16  C   UNL     1       8.892   2.679  23.037  0.00  0.00    +0.000 A 
ATOM     17  C   UNL     1       8.522   1.973  21.892  0.00  0.00    +0.001 A 
ATOM     18  C   UNL     1       8.927   0.647  21.732  0.00  0.00    +0.012 A 
ENDBRANCH  11  13
ENDBRANCH   5  11
BRANCH   1  19
ATOM     19  C   UNL     1       6.583  -5.748  26.467  0.00  0.00    +0.039 C 
BRANCH  19  21
ATOM     20  C   UNL     1       5.668  -5.165  28.752  0.00  0.00    +0.004 C 
ATOM     21  C   UNL     1       6.248  -4.624  27.455  0.00  0.00    +0.001 C 
ENDBRANCH  19  21
ENDBRANCH   1  19
BRANCH  10  22
ATOM     22  O   UNL     1       4.499  -6.583  24.854  0.00  0.00    -0.492 OA
BRANCH  22  23
ATOM     23  C   UNL     1       3.125  -6.258  25.079  0.00  0.00    +0.232 C 
BRANCH  23  24
ATOM     24  C   UNL     1       2.814  -5.824  26.514  0.00  0.00    +0.082 C 
BRANCH  24  25
ATOM     25  C   UNL     1       2.061  -4.502  26.553  0.00  0.00    +0.232 C 
BRANCH  25  26
ATOM     26  O   UNL     1       2.679  -3.607  25.629  0.00  0.00    -0.492 OA
BRANCH  26  27
ATOM     27  C   UNL     1       3.526  -2.673  26.169  0.00  0.00    +0.121 A 
ATOM     28  C   UNL     1       3.469  -2.177  27.471  0.00  0.00    +0.048 A 
ATOM     29  C   UNL     1       4.407  -1.248  27.940  0.00  0.00    +0.030 A 
ATOM     30  C   UNL     1       5.417  -0.820  27.064  0.00  0.00    +0.050 A 
ATOM     31  N   UNL     1       6.484   0.042  27.234  0.00  0.00    -0.336 N 
ATOM     32  C   UNL     1       7.206   0.128  26.069  0.00  0.00    +0.087 A 
ATOM     33  C   UNL     1       6.616  -0.694  25.139  0.00  0.00    +0.028 A 
ATOM     34  C   UNL     1       5.488  -1.299  25.751  0.00  0.00    +0.003 A 
ATOM     35  C   UNL     1       4.532  -2.232  25.304  0.00  0.00    +0.055 A 
BRANCH  31  36
ATOM     36  C   UNL     1       6.878   0.701  28.474  0.00  0.00    +0.242 C 
BRANCH  36  37
ATOM     37  C   UNL     1       6.490   2.152  28.608  0.00  0.00    +0.325 C 
ATOM     38  O   UNL     1       5.326   2.487  28.812  0.00  0.00    -0.249 OA
BRANCH  37  39
ATOM     39  O   UNL     1       7.453   3.082  28.466  0.00  0.00    -0.479 OA
ATOM     40  H   UNL     1       7.686   3.327  27.546  0.00  0.00    +0.295 HD
ENDBRANCH  37  39
ENDBRANCH  36  37
ENDBRANCH  31  36
ENDBRANCH  26  27
ENDBRANCH  25  26
ENDBRANCH  24  25
ENDBRANCH  23  24
ENDBRANCH  22  23
ENDBRANCH  10  22
TORSDOF 13
ENDMDL
