MODEL 1
REMARK VINA RESULT:      -4.9      0.000      0.000
REMARK  Name = 
REMARK  44 active torsions:
REMARK  status: ('A' for Active; 'I' for Inactive)
REMARK    1  A    between atoms: C_1  and  C_2
REMARK    2  A    between atoms: C_2  and  C_3
REMARK    3  A    between atoms: C_3  and  C_4
REMARK    4  A    between atoms: C_4  and  C_5
REMARK    5  A    between atoms: C_5  and  C_6
REMARK    6  A    between atoms: C_6  and  C_7
REMARK    7  A    between atoms: C_7  and  C_8
REMARK    8  A    between atoms: C_8  and  C_9
REMARK    9  A    between atoms: C_9  and  C_10
REMARK   10  A    between atoms: C_10  and  C_11
REMARK   11  A    between atoms: C_11  and  C_12
REMARK   12  A    between atoms: C_12  and  C_13
REMARK   13  A    between atoms: C_13  and  C_14
REMARK   14  A    between atoms: C_14  and  C_15
REMARK   15  A    between atoms: C_15  and  C_16
REMARK   16  A    between atoms: C_16  and  O_18
REMARK   17  A    between atoms: O_18  and  C_19
REMARK   18  A    between atoms: C_19  and  C_20
REMARK   19  A    between atoms: C_20  and  C_22
REMARK   20  A    between atoms: C_20  and  O_34
REMARK   21  A    between atoms: C_22  and  O_23
REMARK   22  A    between atoms: O_23  and  P_24
REMARK   23  A    between atoms: P_24  and  O_25
REMARK   24  A    between atoms: P_24  and  O_27
REMARK   25  A    between atoms: O_27  and  C_28
REMARK   26  A    between atoms: C_28  and  C_29
REMARK   27  A    between atoms: C_29  and  O_31
REMARK   28  A    between atoms: C_29  and  C_32
REMARK   29  A    between atoms: C_32  and  O_33
REMARK   30  A    between atoms: O_34  and  C_35
REMARK   31  A    between atoms: C_35  and  C_37
REMARK   32  A    between atoms: C_37  and  C_38
REMARK   33  A    between atoms: C_38  and  C_39
REMARK   34  A    between atoms: C_39  and  C_40
REMARK   35  A    between atoms: C_40  and  C_41
REMARK   36  A    between atoms: C_41  and  C_42
REMARK   37  A    between atoms: C_42  and  C_43
REMARK   38  A    between atoms: C_43  and  C_44
REMARK   39  A    between atoms: C_47  and  C_49
REMARK   40  A    between atoms: C_49  and  C_50
REMARK   41  A    between atoms: C_50  and  C_51
REMARK   42  A    between atoms: C_51  and  C_52
REMARK   43  A    between atoms: C_52  and  C_53
REMARK   44  A    between atoms: C_53  and  C_54
REMARK                            x       y       z     vdW  Elec       q    Type
REMARK                         _______ _______ _______ _____ _____    ______ ____
ROOT
ATOM      1  C   UNL     1       8.866  -4.380  24.458  0.00  0.00    +0.240 C 
ENDROOT
BRANCH   1   2
ATOM      2  C   UNL     1       7.843  -5.251  23.731  0.00  0.00    +0.220 C 
BRANCH   2   3
ATOM      3  O   UNL     1       6.517  -4.820  24.000  0.00  0.00    -0.283 OA
BRANCH   3   4
ATOM      4  P   UNL     1       5.483  -5.052  22.748  0.00  0.00    +0.475 P 
ATOM      5  O   UNL     1       4.964  -3.677  22.318  0.00  0.00    -0.227 OA
BRANCH   4   6
ATOM      6  O   UNL     1       6.794  -4.799  21.649  0.00  0.00    -0.302 OA
ATOM      7  H   UNL     1       7.499  -4.470  22.247  0.00  0.00    +0.222 HD
ENDBRANCH   4   6
BRANCH   4   8
ATOM      8  O   UNL     1       4.171  -5.305  23.847  0.00  0.00    -0.284 OA
BRANCH   8   9
ATOM      9  C   UNL     1       2.898  -5.201  23.226  0.00  0.00    +0.206 C 
BRANCH   9  10
ATOM     10  C   UNL     1       2.077  -6.466  23.459  0.00  0.00    +0.166 C 
BRANCH  10  11
ATOM     11  O   UNL     1       2.185  -7.311  22.303  0.00  0.00    -0.387 OA
ATOM     12  H   UNL     1       1.651  -8.108  22.480  0.00  0.00    +0.210 HD
ENDBRANCH  10  11
BRANCH  10  13
ATOM     13  C   UNL     1       2.575  -7.254  24.672  0.00  0.00    +0.189 C 
BRANCH  13  14
ATOM     14  O   UNL     1       3.776  -7.957  24.340  0.00  0.00    -0.392 OA
ATOM     15  H   UNL     1       4.056  -7.580  23.482  0.00  0.00    +0.210 HD
ENDBRANCH  13  14
ENDBRANCH  10  13
ENDBRANCH   9  10
ENDBRANCH   8   9
ENDBRANCH   4   8
ENDBRANCH   3   4
ENDBRANCH   2   3
ENDBRANCH   1   2
BRANCH   1  16
ATOM     16  C   UNL     1       8.966  -4.871  25.905  0.00  0.00    +0.279 C 
BRANCH  16  17
ATOM     17  O   UNL     1       8.139  -4.108  26.790  0.00  0.00    -0.461 OA
BRANCH  17  18
ATOM     18  C   UNL     1       7.119  -4.800  27.369  0.00  0.00    +0.307 C 
ATOM     19  O   UNL     1       7.221  -5.902  27.890  0.00  0.00    -0.251 OA
BRANCH  18  20
ATOM     20  C   UNL     1       5.832  -4.034  27.225  0.00  0.00    +0.120 C 
BRANCH  20  21
ATOM     21  C   UNL     1       6.126  -2.550  27.034  0.00  0.00    +0.011 C 
BRANCH  21  22
ATOM     22  C   UNL     1       5.262  -1.943  25.934  0.00  0.00    +0.001 C 
BRANCH  22  23
ATOM     23  C   UNL     1       5.000  -0.467  26.218  0.00  0.00    +0.000 C 
BRANCH  23  24
ATOM     24  C   UNL     1       5.725   0.429  25.219  0.00  0.00    +0.000 C 
BRANCH  24  25
ATOM     25  C   UNL     1       7.057   0.901  25.793  0.00  0.00    +0.000 C 
BRANCH  25  26
ATOM     26  C   UNL     1       6.876   2.179  26.603  0.00  0.00    -0.000 C 
BRANCH  26  27
ATOM     27  C   UNL     1       7.650   3.334  25.974  0.00  0.00    -0.000 C 
BRANCH  27  28
ATOM     28  C   UNL     1       7.179   4.670  26.540  0.00  0.00    -0.000 C 
BRANCH  28  29
ATOM     29  C   UNL     1       7.456   5.804  25.560  0.00  0.00    -0.000 C 
BRANCH  29  30
ATOM     30  C   UNL     1       8.936   6.173  25.566  0.00  0.00    -0.000 C 
BRANCH  30  31
ATOM     31  C   UNL     1       9.426   6.496  24.156  0.00  0.00    -0.000 C 
BRANCH  31  32
ATOM     32  C   UNL     1      10.445   5.461  23.685  0.00  0.00    -0.000 C 
BRANCH  32  34
ATOM     33  C   UNL     1      12.884   5.104  23.199  0.00  0.00    +0.004 C 
ATOM     34  C   UNL     1      11.870   5.912  23.992  0.00  0.00    -0.003 C 
ENDBRANCH  32  34
ENDBRANCH  31  32
ENDBRANCH  30  31
ENDBRANCH  29  30
ENDBRANCH  28  29
ENDBRANCH  27  28
ENDBRANCH  26  27
ENDBRANCH  25  26
ENDBRANCH  24  25
ENDBRANCH  23  24
ENDBRANCH  22  23
ENDBRANCH  21  22
ENDBRANCH  20  21
ENDBRANCH  18  20
ENDBRANCH  17  18
ENDBRANCH  16  17
ENDBRANCH   1  16
BRANCH   1  35
ATOM     35  O   UNL     1       8.363  -3.022  24.414  0.00  0.00    -0.456 OA
BRANCH  35  36
ATOM     36  C   UNL     1       8.718  -2.283  23.333  0.00  0.00    +0.308 C 
ATOM     37  O   UNL     1       8.040  -2.112  22.328  0.00  0.00    -0.251 OA
BRANCH  36  38
ATOM     38  C   UNL     1      10.042  -1.593  23.572  0.00  0.00    +0.120 C 
BRANCH  38  39
ATOM     39  C   UNL     1       9.993  -0.527  24.660  0.00  0.00    +0.011 C 
BRANCH  39  40
ATOM     40  C   UNL     1      10.876   0.683  24.343  0.00  0.00    +0.001 C 
BRANCH  40  41
ATOM     41  C   UNL     1      10.060   1.817  23.713  0.00  0.00    +0.000 C 
BRANCH  41  42
ATOM     42  C   UNL     1      10.262   1.867  22.199  0.00  0.00    +0.000 C 
BRANCH  42  43
ATOM     43  C   UNL     1       9.046   1.332  21.438  0.00  0.00    +0.000 C 
BRANCH  43  44
ATOM     44  C   UNL     1       7.778   1.451  22.287  0.00  0.00    +0.004 C 
BRANCH  44  45
ATOM     45  C   UNL     1       6.921   2.618  21.894  0.00  0.00    -0.008 C 
ATOM     46  C   UNL     1       6.155   3.356  22.972  0.00  0.00    -0.008 C 
ATOM     47  C   UNL     1       7.286   4.038  22.248  0.00  0.00    +0.007 C 
BRANCH  46  48
ATOM     48  C   UNL     1       4.737   3.794  22.743  0.00  0.00    +0.004 C 
BRANCH  48  49
ATOM     49  C   UNL     1       4.426   5.070  23.532  0.00  0.00    +0.000 C 
BRANCH  49  50
ATOM     50  C   UNL     1       3.150   4.933  24.362  0.00  0.00    +0.000 C 
BRANCH  50  51
ATOM     51  C   UNL     1       3.472   4.644  25.829  0.00  0.00    -0.000 C 
BRANCH  51  52
ATOM     52  C   UNL     1       3.243   3.172  26.173  0.00  0.00    -0.003 C 
ATOM     53  C   UNL     1       3.593   2.876  27.623  0.00  0.00    +0.004 C 
ENDBRANCH  51  52
ENDBRANCH  50  51
ENDBRANCH  49  50
ENDBRANCH  48  49
ENDBRANCH  46  48
ENDBRANCH  44  45
ENDBRANCH  43  44
ENDBRANCH  42  43
ENDBRANCH  41  42
ENDBRANCH  40  41
ENDBRANCH  39  40
ENDBRANCH  38  39
ENDBRANCH  36  38
ENDBRANCH  35  36
ENDBRANCH   1  35
TORSDOF 42
ENDMDL
MODEL 2
REMARK VINA RESULT:      -4.5      4.042      9.474
REMARK  Name = 
REMARK  44 active torsions:
REMARK  status: ('A' for Active; 'I' for Inactive)
REMARK    1  A    between atoms: C_1  and  C_2
REMARK    2  A    between atoms: C_2  and  C_3
REMARK    3  A    between atoms: C_3  and  C_4
REMARK    4  A    between atoms: C_4  and  C_5
REMARK    5  A    between atoms: C_5  and  C_6
REMARK    6  A    between atoms: C_6  and  C_7
REMARK    7  A    between atoms: C_7  and  C_8
REMARK    8  A    between atoms: C_8  and  C_9
REMARK    9  A    between atoms: C_9  and  C_10
REMARK   10  A    between atoms: C_10  and  C_11
REMARK   11  A    between atoms: C_11  and  C_12
REMARK   12  A    between atoms: C_12  and  C_13
REMARK   13  A    between atoms: C_13  and  C_14
REMARK   14  A    between atoms: C_14  and  C_15
REMARK   15  A    between atoms: C_15  and  C_16
REMARK   16  A    between atoms: C_16  and  O_18
REMARK   17  A    between atoms: O_18  and  C_19
REMARK   18  A    between atoms: C_19  and  C_20
REMARK   19  A    between atoms: C_20  and  C_22
REMARK   20  A    between atoms: C_20  and  O_34
REMARK   21  A    between atoms: C_22  and  O_23
REMARK   22  A    between atoms: O_23  and  P_24
REMARK   23  A    between atoms: P_24  and  O_25
REMARK   24  A    between atoms: P_24  and  O_27
REMARK   25  A    between atoms: O_27  and  C_28
REMARK   26  A    between atoms: C_28  and  C_29
REMARK   27  A    between atoms: C_29  and  O_31
REMARK   28  A    between atoms: C_29  and  C_32
REMARK   29  A    between atoms: C_32  and  O_33
REMARK   30  A    between atoms: O_34  and  C_35
REMARK   31  A    between atoms: C_35  and  C_37
REMARK   32  A    between atoms: C_37  and  C_38
REMARK   33  A    between atoms: C_38  and  C_39
REMARK   34  A    between atoms: C_39  and  C_40
REMARK   35  A    between atoms: C_40  and  C_41
REMARK   36  A    between atoms: C_41  and  C_42
REMARK   37  A    between atoms: C_42  and  C_43
REMARK   38  A    between atoms: C_43  and  C_44
REMARK   39  A    between atoms: C_47  and  C_49
REMARK   40  A    between atoms: C_49  and  C_50
REMARK   41  A    between atoms: C_50  and  C_51
REMARK   42  A    between atoms: C_51  and  C_52
REMARK   43  A    between atoms: C_52  and  C_53
REMARK   44  A    between atoms: C_53  and  C_54
REMARK                            x       y       z     vdW  Elec       q    Type
REMARK                         _______ _______ _______ _____ _____    ______ ____
ROOT
ATOM      1  C   UNL     1       7.765   2.178  23.712  0.00  0.00    +0.240 C 
ENDROOT
BRANCH   1   2
ATOM      2  C   UNL     1       7.724   3.520  22.986  0.00  0.00    +0.220 C 
BRANCH   2   3
ATOM      3  O   UNL     1       8.539   4.483  23.638  0.00  0.00    -0.283 OA
BRANCH   3   4
ATOM      4  P   UNL     1       8.006   6.024  23.460  0.00  0.00    +0.475 P 
ATOM      5  O   UNL     1       7.747   6.254  21.969  0.00  0.00    -0.227 OA
BRANCH   4   6
ATOM      6  O   UNL     1       6.378   5.449  23.560  0.00  0.00    -0.302 OA
ATOM      7  H   UNL     1       5.939   5.960  22.848  0.00  0.00    +0.222 HD
ENDBRANCH   4   6
BRANCH   4   8
ATOM      8  O   UNL     1       9.634   6.601  23.359  0.00  0.00    -0.284 OA
BRANCH   8   9
ATOM      9  C   UNL     1      10.500   5.993  24.307  0.00  0.00    +0.206 C 
BRANCH   9  10
ATOM     10  C   UNL     1      11.937   5.974  23.794  0.00  0.00    +0.166 C 
BRANCH  10  11
ATOM     11  O   UNL     1      12.818   6.358  24.861  0.00  0.00    -0.387 OA
ATOM     12  H   UNL     1      13.217   5.540  25.210  0.00  0.00    +0.210 HD
ENDBRANCH  10  11
BRANCH  10  13
ATOM     13  C   UNL     1      12.353   4.583  23.311  0.00  0.00    +0.189 C 
BRANCH  13  14
ATOM     14  O   UNL     1      11.193   3.811  22.985  0.00  0.00    -0.392 OA
ATOM     15  H   UNL     1      11.282   2.992  23.513  0.00  0.00    +0.210 HD
ENDBRANCH  13  14
ENDBRANCH  10  13
ENDBRANCH   9  10
ENDBRANCH   8   9
ENDBRANCH   4   8
ENDBRANCH   3   4
ENDBRANCH   2   3
ENDBRANCH   1   2
BRANCH   1  16
ATOM     16  C   UNL     1       7.547   2.438  25.206  0.00  0.00    +0.279 C 
BRANCH  16  17
ATOM     17  O   UNL     1       6.932   1.324  25.861  0.00  0.00    -0.461 OA
BRANCH  17  18
ATOM     18  C   UNL     1       7.061   1.305  27.216  0.00  0.00    +0.307 C 
ATOM     19  O   UNL     1       6.801   2.238  27.962  0.00  0.00    -0.251 OA
BRANCH  18  20
ATOM     20  C   UNL     1       7.627  -0.017  27.660  0.00  0.00    +0.120 C 
BRANCH  20  21
ATOM     21  C   UNL     1       7.600  -1.010  26.504  0.00  0.00    +0.011 C 
BRANCH  21  22
ATOM     22  C   UNL     1       6.333  -1.858  26.520  0.00  0.00    +0.001 C 
BRANCH  22  23
ATOM     23  C   UNL     1       5.794  -2.035  25.103  0.00  0.00    +0.000 C 
BRANCH  23  24
ATOM     24  C   UNL     1       4.659  -3.052  25.062  0.00  0.00    +0.000 C 
BRANCH  24  25
ATOM     25  C   UNL     1       3.522  -2.622  25.984  0.00  0.00    +0.000 C 
BRANCH  25  26
ATOM     26  C   UNL     1       2.245  -3.391  25.666  0.00  0.00    -0.000 C 
BRANCH  26  27
ATOM     27  C   UNL     1       2.540  -4.876  25.481  0.00  0.00    -0.000 C 
BRANCH  27  28
ATOM     28  C   UNL     1       1.879  -5.402  24.211  0.00  0.00    -0.000 C 
BRANCH  28  29
ATOM     29  C   UNL     1       2.911  -6.029  23.280  0.00  0.00    -0.000 C 
BRANCH  29  30
ATOM     30  C   UNL     1       3.981  -6.767  24.078  0.00  0.00    -0.000 C 
BRANCH  30  31
ATOM     31  C   UNL     1       5.380  -6.393  23.594  0.00  0.00    -0.000 C 
BRANCH  31  32
ATOM     32  C   UNL     1       5.318  -5.700  22.236  0.00  0.00    -0.000 C 
BRANCH  32  34
ATOM     33  C   UNL     1       5.945  -3.365  21.549  0.00  0.00    +0.004 C 
ATOM     34  C   UNL     1       6.456  -4.696  22.077  0.00  0.00    -0.003 C 
ENDBRANCH  32  34
ENDBRANCH  31  32
ENDBRANCH  30  31
ENDBRANCH  29  30
ENDBRANCH  28  29
ENDBRANCH  27  28
ENDBRANCH  26  27
ENDBRANCH  25  26
ENDBRANCH  24  25
ENDBRANCH  23  24
ENDBRANCH  22  23
ENDBRANCH  21  22
ENDBRANCH  20  21
ENDBRANCH  18  20
ENDBRANCH  17  18
ENDBRANCH  16  17
ENDBRANCH   1  16
BRANCH   1  35
ATOM     35  O   UNL     1       9.080   1.617  23.479  0.00  0.00    -0.456 OA
BRANCH  35  36
ATOM     36  C   UNL     1       9.167   0.665  22.517  0.00  0.00    +0.308 C 
ATOM     37  O   UNL     1       9.821   0.745  21.485  0.00  0.00    -0.251 OA
BRANCH  36  38
ATOM     38  C   UNL     1       8.422  -0.583  22.936  0.00  0.00    +0.120 C 
BRANCH  38  39
ATOM     39  C   UNL     1       9.168  -1.877  22.631  0.00  0.00    +0.011 C 
BRANCH  39  40
ATOM     40  C   UNL     1       9.700  -2.565  23.890  0.00  0.00    +0.001 C 
BRANCH  40  41
ATOM     41  C   UNL     1       8.868  -3.803  24.241  0.00  0.00    +0.000 C 
BRANCH  41  42
ATOM     42  C   UNL     1       9.587  -4.678  25.269  0.00  0.00    +0.000 C 
BRANCH  42  43
ATOM     43  C   UNL     1       8.797  -4.795  26.576  0.00  0.00    +0.000 C 
BRANCH  43  44
ATOM     44  C   UNL     1       7.360  -5.244  26.304  0.00  0.00    +0.004 C 
BRANCH  44  45
ATOM     45  C   UNL     1       6.683  -5.801  27.521  0.00  0.00    -0.008 C 
ATOM     46  C   UNL     1       5.477  -5.076  28.081  0.00  0.00    -0.008 C 
ATOM     47  C   UNL     1       5.318  -6.438  27.460  0.00  0.00    +0.007 C 
BRANCH  46  48
ATOM     48  C   UNL     1       5.310  -4.894  29.563  0.00  0.00    +0.004 C 
BRANCH  48  49
ATOM     49  C   UNL     1       3.829  -4.769  29.933  0.00  0.00    +0.000 C 
BRANCH  49  50
ATOM     50  C   UNL     1       3.176  -3.554  29.273  0.00  0.00    +0.000 C 
BRANCH  50  51
ATOM     51  C   UNL     1       3.818  -2.251  29.754  0.00  0.00    -0.000 C 
BRANCH  51  52
ATOM     52  C   UNL     1       3.012  -1.031  29.304  0.00  0.00    -0.003 C 
ATOM     53  C   UNL     1       3.902   0.017  28.654  0.00  0.00    +0.004 C 
ENDBRANCH  51  52
ENDBRANCH  50  51
ENDBRANCH  49  50
ENDBRANCH  48  49
ENDBRANCH  46  48
ENDBRANCH  44  45
ENDBRANCH  43  44
ENDBRANCH  42  43
ENDBRANCH  41  42
ENDBRANCH  40  41
ENDBRANCH  39  40
ENDBRANCH  38  39
ENDBRANCH  36  38
ENDBRANCH  35  36
ENDBRANCH   1  35
TORSDOF 42
ENDMDL
MODEL 3
REMARK VINA RESULT:      -4.4      1.278      3.815
REMARK  Name = 
REMARK  44 active torsions:
REMARK  status: ('A' for Active; 'I' for Inactive)
REMARK    1  A    between atoms: C_1  and  C_2
REMARK    2  A    between atoms: C_2  and  C_3
REMARK    3  A    between atoms: C_3  and  C_4
REMARK    4  A    between atoms: C_4  and  C_5
REMARK    5  A    between atoms: C_5  and  C_6
REMARK    6  A    between atoms: C_6  and  C_7
REMARK    7  A    between atoms: C_7  and  C_8
REMARK    8  A    between atoms: C_8  and  C_9
REMARK    9  A    between atoms: C_9  and  C_10
REMARK   10  A    between atoms: C_10  and  C_11
REMARK   11  A    between atoms: C_11  and  C_12
REMARK   12  A    between atoms: C_12  and  C_13
REMARK   13  A    between atoms: C_13  and  C_14
REMARK   14  A    between atoms: C_14  and  C_15
REMARK   15  A    between atoms: C_15  and  C_16
REMARK   16  A    between atoms: C_16  and  O_18
REMARK   17  A    between atoms: O_18  and  C_19
REMARK   18  A    between atoms: C_19  and  C_20
REMARK   19  A    between atoms: C_20  and  C_22
REMARK   20  A    between atoms: C_20  and  O_34
REMARK   21  A    between atoms: C_22  and  O_23
REMARK   22  A    between atoms: O_23  and  P_24
REMARK   23  A    between atoms: P_24  and  O_25
REMARK   24  A    between atoms: P_24  and  O_27
REMARK   25  A    between atoms: O_27  and  C_28
REMARK   26  A    between atoms: C_28  and  C_29
REMARK   27  A    between atoms: C_29  and  O_31
REMARK   28  A    between atoms: C_29  and  C_32
REMARK   29  A    between atoms: C_32  and  O_33
REMARK   30  A    between atoms: O_34  and  C_35
REMARK   31  A    between atoms: C_35  and  C_37
REMARK   32  A    between atoms: C_37  and  C_38
REMARK   33  A    between atoms: C_38  and  C_39
REMARK   34  A    between atoms: C_39  and  C_40
REMARK   35  A    between atoms: C_40  and  C_41
REMARK   36  A    between atoms: C_41  and  C_42
REMARK   37  A    between atoms: C_42  and  C_43
REMARK   38  A    between atoms: C_43  and  C_44
REMARK   39  A    between atoms: C_47  and  C_49
REMARK   40  A    between atoms: C_49  and  C_50
REMARK   41  A    between atoms: C_50  and  C_51
REMARK   42  A    between atoms: C_51  and  C_52
REMARK   43  A    between atoms: C_52  and  C_53
REMARK   44  A    between atoms: C_53  and  C_54
REMARK                            x       y       z     vdW  Elec       q    Type
REMARK                         _______ _______ _______ _____ _____    ______ ____
ROOT
ATOM      1  C   UNL     1       8.728  -4.226  24.164  0.00  0.00    +0.240 C 
ENDROOT
BRANCH   1   2
ATOM      2  C   UNL     1       7.794  -5.278  23.571  0.00  0.00    +0.220 C 
BRANCH   2   3
ATOM      3  O   UNL     1       6.467  -4.785  23.461  0.00  0.00    -0.283 OA
BRANCH   3   4
ATOM      4  P   UNL     1       5.738  -5.165  22.042  0.00  0.00    +0.475 P 
ATOM      5  O   UNL     1       5.969  -3.999  21.077  0.00  0.00    -0.227 OA
BRANCH   4   6
ATOM      6  O   UNL     1       7.238  -5.813  21.473  0.00  0.00    -0.302 OA
ATOM      7  H   UNL     1       7.626  -6.176  22.296  0.00  0.00    +0.222 HD
ENDBRANCH   4   6
BRANCH   4   8
ATOM      8  O   UNL     1       4.238  -4.517  22.610  0.00  0.00    -0.284 OA
BRANCH   8   9
ATOM      9  C   UNL     1       4.133  -4.516  24.026  0.00  0.00    +0.206 C 
BRANCH   9  10
ATOM     10  C   UNL     1       2.787  -5.078  24.470  0.00  0.00    +0.166 C 
BRANCH  10  11
ATOM     11  O   UNL     1       1.966  -4.003  24.950  0.00  0.00    -0.387 OA
ATOM     12  H   UNL     1       2.098  -3.250  24.345  0.00  0.00    +0.210 HD
ENDBRANCH  10  11
BRANCH  10  13
ATOM     13  C   UNL     1       2.047  -5.764  23.319  0.00  0.00    +0.189 C 
BRANCH  13  14
ATOM     14  O   UNL     1       2.693  -6.996  22.987  0.00  0.00    -0.392 OA
ATOM     15  H   UNL     1       2.791  -7.464  23.840  0.00  0.00    +0.210 HD
ENDBRANCH  13  14
ENDBRANCH  10  13
ENDBRANCH   9  10
ENDBRANCH   8   9
ENDBRANCH   4   8
ENDBRANCH   3   4
ENDBRANCH   2   3
ENDBRANCH   1   2
BRANCH   1  16
ATOM     16  C   UNL     1       8.863  -4.501  25.665  0.00  0.00    +0.279 C 
BRANCH  16  17
ATOM     17  O   UNL     1       7.980  -3.686  26.442  0.00  0.00    -0.461 OA
BRANCH  17  18
ATOM     18  C   UNL     1       7.004  -4.362  27.110  0.00  0.00    +0.307 C 
ATOM     19  O   UNL     1       7.093  -5.514  27.510  0.00  0.00    -0.251 OA
BRANCH  18  20
ATOM     20  C   UNL     1       5.776  -3.502  27.235  0.00  0.00    +0.120 C 
BRANCH  20  21
ATOM     21  C   UNL     1       6.071  -2.094  26.729  0.00  0.00    +0.011 C 
BRANCH  21  22
ATOM     22  C   UNL     1       4.790  -1.311  26.466  0.00  0.00    +0.001 C 
BRANCH  22  23
ATOM     23  C   UNL     1       4.949   0.137  26.921  0.00  0.00    +0.000 C 
BRANCH  23  24
ATOM     24  C   UNL     1       5.823   0.235  28.166  0.00  0.00    +0.000 C 
BRANCH  24  25
ATOM     25  C   UNL     1       6.817   1.384  28.032  0.00  0.00    +0.000 C 
BRANCH  25  26
ATOM     26  C   UNL     1       6.387   2.576  28.880  0.00  0.00    -0.000 C 
BRANCH  26  27
ATOM     27  C   UNL     1       6.818   3.887  28.230  0.00  0.00    -0.000 C 
BRANCH  27  28
ATOM     28  C   UNL     1       7.182   3.667  26.764  0.00  0.00    -0.000 C 
BRANCH  28  29
ATOM     29  C   UNL     1       6.082   4.187  25.846  0.00  0.00    -0.000 C 
BRANCH  29  30
ATOM     30  C   UNL     1       5.848   5.677  26.073  0.00  0.00    -0.000 C 
BRANCH  30  31
ATOM     31  C   UNL     1       4.886   6.245  25.032  0.00  0.00    -0.000 C 
BRANCH  31  32
ATOM     32  C   UNL     1       4.078   5.130  24.374  0.00  0.00    -0.000 C 
BRANCH  32  34
ATOM     33  C   UNL     1       3.018   4.389  22.219  0.00  0.00    +0.004 C 
ATOM     34  C   UNL     1       3.520   5.576  23.026  0.00  0.00    -0.003 C 
ENDBRANCH  32  34
ENDBRANCH  31  32
ENDBRANCH  30  31
ENDBRANCH  29  30
ENDBRANCH  28  29
ENDBRANCH  27  28
ENDBRANCH  26  27
ENDBRANCH  25  26
ENDBRANCH  24  25
ENDBRANCH  23  24
ENDBRANCH  22  23
ENDBRANCH  21  22
ENDBRANCH  20  21
ENDBRANCH  18  20
ENDBRANCH  17  18
ENDBRANCH  16  17
ENDBRANCH   1  16
BRANCH   1  35
ATOM     35  O   UNL     1       8.104  -2.938  23.936  0.00  0.00    -0.456 OA
BRANCH  35  36
ATOM     36  C   UNL     1       8.742  -2.104  23.078  0.00  0.00    +0.308 C 
ATOM     37  O   UNL     1       8.615  -2.092  21.860  0.00  0.00    -0.251 OA
BRANCH  36  38
ATOM     38  C   UNL     1       9.571  -1.092  23.838  0.00  0.00    +0.120 C 
BRANCH  38  39
ATOM     39  C   UNL     1       8.864  -0.507  25.055  0.00  0.00    +0.011 C 
BRANCH  39  40
ATOM     40  C   UNL     1       8.280   0.883  24.789  0.00  0.00    +0.001 C 
BRANCH  40  41
ATOM     41  C   UNL     1       6.933   0.791  24.064  0.00  0.00    +0.000 C 
BRANCH  41  42
ATOM     42  C   UNL     1       7.036   1.334  22.638  0.00  0.00    +0.000 C 
BRANCH  42  43
ATOM     43  C   UNL     1       6.294   2.664  22.475  0.00  0.00    +0.000 C 
BRANCH  43  44
ATOM     44  C   UNL     1       7.211   3.725  21.860  0.00  0.00    +0.004 C 
BRANCH  44  45
ATOM     45  C   UNL     1       7.188   5.022  22.614  0.00  0.00    -0.008 C 
ATOM     46  C   UNL     1       8.434   5.883  22.621  0.00  0.00    -0.008 C 
ATOM     47  C   UNL     1       7.193   6.357  21.913  0.00  0.00    +0.007 C 
BRANCH  46  48
ATOM     48  C   UNL     1       8.893   6.558  23.882  0.00  0.00    +0.004 C 
BRANCH  48  49
ATOM     49  C   UNL     1      10.208   5.950  24.379  0.00  0.00    +0.000 C 
BRANCH  49  50
ATOM     50  C   UNL     1      11.151   5.608  23.225  0.00  0.00    +0.000 C 
BRANCH  50  51
ATOM     51  C   UNL     1      11.698   4.185  23.360  0.00  0.00    -0.000 C 
BRANCH  51  52
ATOM     52  C   UNL     1      10.568   3.157  23.443  0.00  0.00    -0.003 C 
ATOM     53  C   UNL     1      10.565   2.233  22.235  0.00  0.00    +0.004 C 
ENDBRANCH  51  52
ENDBRANCH  50  51
ENDBRANCH  49  50
ENDBRANCH  48  49
ENDBRANCH  46  48
ENDBRANCH  44  45
ENDBRANCH  43  44
ENDBRANCH  42  43
ENDBRANCH  41  42
ENDBRANCH  40  41
ENDBRANCH  39  40
ENDBRANCH  38  39
ENDBRANCH  36  38
ENDBRANCH  35  36
ENDBRANCH   1  35
TORSDOF 42
ENDMDL
MODEL 4
REMARK VINA RESULT:      -4.4      3.996      8.843
REMARK  Name = 
REMARK  44 active torsions:
REMARK  status: ('A' for Active; 'I' for Inactive)
REMARK    1  A    between atoms: C_1  and  C_2
REMARK    2  A    between atoms: C_2  and  C_3
REMARK    3  A    between atoms: C_3  and  C_4
REMARK    4  A    between atoms: C_4  and  C_5
REMARK    5  A    between atoms: C_5  and  C_6
REMARK    6  A    between atoms: C_6  and  C_7
REMARK    7  A    between atoms: C_7  and  C_8
REMARK    8  A    between atoms: C_8  and  C_9
REMARK    9  A    between atoms: C_9  and  C_10
REMARK   10  A    between atoms: C_10  and  C_11
REMARK   11  A    between atoms: C_11  and  C_12
REMARK   12  A    between atoms: C_12  and  C_13
REMARK   13  A    between atoms: C_13  and  C_14
REMARK   14  A    between atoms: C_14  and  C_15
REMARK   15  A    between atoms: C_15  and  C_16
REMARK   16  A    between atoms: C_16  and  O_18
REMARK   17  A    between atoms: O_18  and  C_19
REMARK   18  A    between atoms: C_19  and  C_20
REMARK   19  A    between atoms: C_20  and  C_22
REMARK   20  A    between atoms: C_20  and  O_34
REMARK   21  A    between atoms: C_22  and  O_23
REMARK   22  A    between atoms: O_23  and  P_24
REMARK   23  A    between atoms: P_24  and  O_25
REMARK   24  A    between atoms: P_24  and  O_27
REMARK   25  A    between atoms: O_27  and  C_28
REMARK   26  A    between atoms: C_28  and  C_29
REMARK   27  A    between atoms: C_29  and  O_31
REMARK   28  A    between atoms: C_29  and  C_32
REMARK   29  A    between atoms: C_32  and  O_33
REMARK   30  A    between atoms: O_34  and  C_35
REMARK   31  A    between atoms: C_35  and  C_37
REMARK   32  A    between atoms: C_37  and  C_38
REMARK   33  A    between atoms: C_38  and  C_39
REMARK   34  A    between atoms: C_39  and  C_40
REMARK   35  A    between atoms: C_40  and  C_41
REMARK   36  A    between atoms: C_41  and  C_42
REMARK   37  A    between atoms: C_42  and  C_43
REMARK   38  A    between atoms: C_43  and  C_44
REMARK   39  A    between atoms: C_47  and  C_49
REMARK   40  A    between atoms: C_49  and  C_50
REMARK   41  A    between atoms: C_50  and  C_51
REMARK   42  A    between atoms: C_51  and  C_52
REMARK   43  A    between atoms: C_52  and  C_53
REMARK   44  A    between atoms: C_53  and  C_54
REMARK                            x       y       z     vdW  Elec       q    Type
REMARK                         _______ _______ _______ _____ _____    ______ ____
ROOT
ATOM      1  C   UNL     1       7.944   2.979  22.688  0.00  0.00    +0.240 C 
ENDROOT
BRANCH   1   2
ATOM      2  C   UNL     1       8.250   3.615  24.042  0.00  0.00    +0.220 C 
BRANCH   2   3
ATOM      3  O   UNL     1       7.463   4.778  24.253  0.00  0.00    -0.283 OA
BRANCH   3   4
ATOM      4  P   UNL     1       8.331   6.169  24.252  0.00  0.00    +0.475 P 
ATOM      5  O   UNL     1       8.623   6.529  22.792  0.00  0.00    -0.227 OA
BRANCH   4   6
ATOM      6  O   UNL     1       6.858   7.061  24.080  0.00  0.00    -0.302 OA
ATOM      7  H   UNL     1       7.111   7.744  23.424  0.00  0.00    +0.222 HD
ENDBRANCH   4   6
BRANCH   4   8
ATOM      8  O   UNL     1       9.804   5.279  24.423  0.00  0.00    -0.284 OA
BRANCH   8   9
ATOM      9  C   UNL     1      10.910   5.904  23.787  0.00  0.00    +0.206 C 
BRANCH   9  10
ATOM     10  C   UNL     1      11.991   4.882  23.452  0.00  0.00    +0.166 C 
BRANCH  10  11
ATOM     11  O   UNL     1      11.406   3.817  22.688  0.00  0.00    -0.387 OA
ATOM     12  H   UNL     1      12.038   3.074  22.701  0.00  0.00    +0.210 HD
ENDBRANCH  10  11
BRANCH  10  13
ATOM     13  C   UNL     1      13.121   5.497  22.622  0.00  0.00    +0.189 C 
BRANCH  13  14
ATOM     14  O   UNL     1      14.387   5.040  23.104  0.00  0.00    -0.392 OA
ATOM     15  H   UNL     1      14.870   5.854  23.349  0.00  0.00    +0.210 HD
ENDBRANCH  13  14
ENDBRANCH  10  13
ENDBRANCH   9  10
ENDBRANCH   8   9
ENDBRANCH   4   8
ENDBRANCH   3   4
ENDBRANCH   2   3
ENDBRANCH   1   2
BRANCH   1  16
ATOM     16  C   UNL     1       6.643   3.589  22.158  0.00  0.00    +0.279 C 
BRANCH  16  17
ATOM     17  O   UNL     1       5.528   2.708  22.331  0.00  0.00    -0.461 OA
BRANCH  17  18
ATOM     18  C   UNL     1       4.530   3.188  23.125  0.00  0.00    +0.307 C 
ATOM     19  O   UNL     1       3.695   4.013  22.785  0.00  0.00    -0.251 OA
BRANCH  18  20
ATOM     20  C   UNL     1       4.639   2.593  24.502  0.00  0.00    +0.120 C 
BRANCH  20  21
ATOM     21  C   UNL     1       3.823   3.415  25.493  0.00  0.00    +0.011 C 
BRANCH  21  22
ATOM     22  C   UNL     1       2.889   2.537  26.319  0.00  0.00    +0.001 C 
BRANCH  22  23
ATOM     23  C   UNL     1       3.309   2.547  27.786  0.00  0.00    +0.000 C 
BRANCH  23  24
ATOM     24  C   UNL     1       3.222   1.153  28.398  0.00  0.00    +0.000 C 
BRANCH  24  25
ATOM     25  C   UNL     1       2.837   0.126  27.339  0.00  0.00    +0.000 C 
BRANCH  25  26
ATOM     26  C   UNL     1       3.514  -1.212  27.609  0.00  0.00    -0.000 C 
BRANCH  26  27
ATOM     27  C   UNL     1       5.031  -1.055  27.638  0.00  0.00    -0.000 C 
BRANCH  27  28
ATOM     28  C   UNL     1       5.553  -0.607  26.276  0.00  0.00    -0.000 C 
BRANCH  28  29
ATOM     29  C   UNL     1       6.533   0.551  26.421  0.00  0.00    -0.000 C 
BRANCH  29  30
ATOM     30  C   UNL     1       7.088   0.613  27.841  0.00  0.00    -0.000 C 
BRANCH  30  31
ATOM     31  C   UNL     1       6.839   1.983  28.466  0.00  0.00    -0.000 C 
BRANCH  31  32
ATOM     32  C   UNL     1       7.045   3.094  27.440  0.00  0.00    -0.000 C 
BRANCH  32  34
ATOM     33  C   UNL     1       6.700   4.614  29.412  0.00  0.00    +0.004 C 
ATOM     34  C   UNL     1       6.447   4.411  27.927  0.00  0.00    -0.003 C 
ENDBRANCH  32  34
ENDBRANCH  31  32
ENDBRANCH  30  31
ENDBRANCH  29  30
ENDBRANCH  28  29
ENDBRANCH  27  28
ENDBRANCH  26  27
ENDBRANCH  25  26
ENDBRANCH  24  25
ENDBRANCH  23  24
ENDBRANCH  22  23
ENDBRANCH  21  22
ENDBRANCH  20  21
ENDBRANCH  18  20
ENDBRANCH  17  18
ENDBRANCH  16  17
ENDBRANCH   1  16
BRANCH   1  35
ATOM     35  O   UNL     1       7.784   1.558  22.920  0.00  0.00    -0.456 OA
BRANCH  35  36
ATOM     36  C   UNL     1       8.693   0.744  22.327  0.00  0.00    +0.308 C 
ATOM     37  O   UNL     1       8.994   0.750  21.141  0.00  0.00    -0.251 OA
BRANCH  36  38
ATOM     38  C   UNL     1       9.383  -0.121  23.358  0.00  0.00    +0.120 C 
BRANCH  38  39
ATOM     39  C   UNL     1       9.605  -1.559  22.905  0.00  0.00    +0.011 C 
BRANCH  39  40
ATOM     40  C   UNL     1       9.416  -2.572  24.037  0.00  0.00    +0.001 C 
BRANCH  40  41
ATOM     41  C   UNL     1       8.931  -1.888  25.320  0.00  0.00    +0.000 C 
BRANCH  41  42
ATOM     42  C   UNL     1       8.298  -2.898  26.278  0.00  0.00    +0.000 C 
BRANCH  42  43
ATOM     43  C   UNL     1       8.845  -4.313  26.065  0.00  0.00    +0.000 C 
BRANCH  43  44
ATOM     44  C   UNL     1       7.815  -5.363  26.491  0.00  0.00    +0.004 C 
BRANCH  44  45
ATOM     45  C   UNL     1       6.470  -4.770  26.794  0.00  0.00    -0.008 C 
ATOM     46  C   UNL     1       5.311  -5.080  25.870  0.00  0.00    -0.008 C 
ATOM     47  C   UNL     1       5.315  -5.608  27.280  0.00  0.00    +0.007 C 
BRANCH  46  48
ATOM     48  C   UNL     1       4.343  -4.005  25.466  0.00  0.00    +0.004 C 
BRANCH  48  49
ATOM     49  C   UNL     1       4.435  -3.726  23.962  0.00  0.00    +0.000 C 
BRANCH  49  50
ATOM     50  C   UNL     1       5.833  -3.264  23.551  0.00  0.00    +0.000 C 
BRANCH  50  51
ATOM     51  C   UNL     1       6.051  -3.431  22.046  0.00  0.00    -0.000 C 
BRANCH  51  52
ATOM     52  C   UNL     1       6.467  -4.861  21.696  0.00  0.00    -0.003 C 
ATOM     53  C   UNL     1       7.421  -5.434  22.731  0.00  0.00    +0.004 C 
ENDBRANCH  51  52
ENDBRANCH  50  51
ENDBRANCH  49  50
ENDBRANCH  48  49
ENDBRANCH  46  48
ENDBRANCH  44  45
ENDBRANCH  43  44
ENDBRANCH  42  43
ENDBRANCH  41  42
ENDBRANCH  40  41
ENDBRANCH  39  40
ENDBRANCH  38  39
ENDBRANCH  36  38
ENDBRANCH  35  36
ENDBRANCH   1  35
TORSDOF 42
ENDMDL
MODEL 5
REMARK VINA RESULT:      -4.3      4.098      9.927
REMARK  Name = 
REMARK  44 active torsions:
REMARK  status: ('A' for Active; 'I' for Inactive)
REMARK    1  A    between atoms: C_1  and  C_2
REMARK    2  A    between atoms: C_2  and  C_3
REMARK    3  A    between atoms: C_3  and  C_4
REMARK    4  A    between atoms: C_4  and  C_5
REMARK    5  A    between atoms: C_5  and  C_6
REMARK    6  A    between atoms: C_6  and  C_7
REMARK    7  A    between atoms: C_7  and  C_8
REMARK    8  A    between atoms: C_8  and  C_9
REMARK    9  A    between atoms: C_9  and  C_10
REMARK   10  A    between atoms: C_10  and  C_11
REMARK   11  A    between atoms: C_11  and  C_12
REMARK   12  A    between atoms: C_12  and  C_13
REMARK   13  A    between atoms: C_13  and  C_14
REMARK   14  A    between atoms: C_14  and  C_15
REMARK   15  A    between atoms: C_15  and  C_16
REMARK   16  A    between atoms: C_16  and  O_18
REMARK   17  A    between atoms: O_18  and  C_19
REMARK   18  A    between atoms: C_19  and  C_20
REMARK   19  A    between atoms: C_20  and  C_22
REMARK   20  A    between atoms: C_20  and  O_34
REMARK   21  A    between atoms: C_22  and  O_23
REMARK   22  A    between atoms: O_23  and  P_24
REMARK   23  A    between atoms: P_24  and  O_25
REMARK   24  A    between atoms: P_24  and  O_27
REMARK   25  A    between atoms: O_27  and  C_28
REMARK   26  A    between atoms: C_28  and  C_29
REMARK   27  A    between atoms: C_29  and  O_31
REMARK   28  A    between atoms: C_29  and  C_32
REMARK   29  A    between atoms: C_32  and  O_33
REMARK   30  A    between atoms: O_34  and  C_35
REMARK   31  A    between atoms: C_35  and  C_37
REMARK   32  A    between atoms: C_37  and  C_38
REMARK   33  A    between atoms: C_38  and  C_39
REMARK   34  A    between atoms: C_39  and  C_40
REMARK   35  A    between atoms: C_40  and  C_41
REMARK   36  A    between atoms: C_41  and  C_42
REMARK   37  A    between atoms: C_42  and  C_43
REMARK   38  A    between atoms: C_43  and  C_44
REMARK   39  A    between atoms: C_47  and  C_49
REMARK   40  A    between atoms: C_49  and  C_50
REMARK   41  A    between atoms: C_50  and  C_51
REMARK   42  A    between atoms: C_51  and  C_52
REMARK   43  A    between atoms: C_52  and  C_53
REMARK   44  A    between atoms: C_53  and  C_54
REMARK                            x       y       z     vdW  Elec       q    Type
REMARK                         _______ _______ _______ _____ _____    ______ ____
ROOT
ATOM      1  C   UNL     1       7.469   3.129  24.476  0.00  0.00    +0.240 C 
ENDROOT
BRANCH   1   2
ATOM      2  C   UNL     1       7.478   4.507  25.133  0.00  0.00    +0.220 C 
BRANCH   2   3
ATOM      3  O   UNL     1       8.804   4.953  25.375  0.00  0.00    -0.283 OA
BRANCH   3   4
ATOM      4  P   UNL     1       9.024   6.552  25.084  0.00  0.00    +0.475 P 
ATOM      5  O   UNL     1       9.103   6.738  23.567  0.00  0.00    -0.227 OA
BRANCH   4   6
ATOM      6  O   UNL     1       7.311   6.735  24.926  0.00  0.00    -0.302 OA
ATOM      7  H   UNL     1       7.236   7.185  24.058  0.00  0.00    +0.222 HD
ENDBRANCH   4   6
BRANCH   4   8
ATOM      8  O   UNL     1      10.737   6.370  25.242  0.00  0.00    -0.284 OA
BRANCH   8   9
ATOM      9  C   UNL     1      11.423   6.463  24.003  0.00  0.00    +0.206 C 
BRANCH   9  10
ATOM     10  C   UNL     1      11.954   5.098  23.574  0.00  0.00    +0.166 C 
BRANCH  10  11
ATOM     11  O   UNL     1      10.900   4.368  22.930  0.00  0.00    -0.387 OA
ATOM     12  H   UNL     1      10.647   3.642  23.529  0.00  0.00    +0.210 HD
ENDBRANCH  10  11
BRANCH  10  13
ATOM     13  C   UNL     1      13.118   5.222  22.588  0.00  0.00    +0.189 C 
BRANCH  13  14
ATOM     14  O   UNL     1      14.356   4.969  23.258  0.00  0.00    -0.392 OA
ATOM     15  H   UNL     1      14.125   4.942  24.208  0.00  0.00    +0.210 HD
ENDBRANCH  13  14
ENDBRANCH  10  13
ENDBRANCH   9  10
ENDBRANCH   8   9
ENDBRANCH   4   8
ENDBRANCH   3   4
ENDBRANCH   2   3
ENDBRANCH   1   2
BRANCH   1  16
ATOM     16  C   UNL     1       8.245   2.165  25.379  0.00  0.00    +0.279 C 
BRANCH  16  17
ATOM     17  O   UNL     1       7.938   0.797  25.094  0.00  0.00    -0.461 OA
BRANCH  17  18
ATOM     18  C   UNL     1       8.725  -0.117  25.727  0.00  0.00    +0.307 C 
ATOM     19  O   UNL     1       9.944  -0.176  25.644  0.00  0.00    -0.251 OA
BRANCH  18  20
ATOM     20  C   UNL     1       7.869  -1.083  26.501  0.00  0.00    +0.120 C 
BRANCH  20  21
ATOM     21  C   UNL     1       6.448  -1.078  25.951  0.00  0.00    +0.011 C 
BRANCH  21  22
ATOM     22  C   UNL     1       5.494  -1.857  26.850  0.00  0.00    +0.001 C 
BRANCH  22  23
ATOM     23  C   UNL     1       4.477  -2.623  26.008  0.00  0.00    +0.000 C 
BRANCH  23  24
ATOM     24  C   UNL     1       3.295  -3.088  26.852  0.00  0.00    +0.000 C 
BRANCH  24  25
ATOM     25  C   UNL     1       1.980  -2.621  26.234  0.00  0.00    +0.000 C 
BRANCH  25  26
ATOM     26  C   UNL     1       1.102  -3.811  25.864  0.00  0.00    -0.000 C 
BRANCH  26  27
ATOM     27  C   UNL     1       1.083  -4.840  26.990  0.00  0.00    -0.000 C 
BRANCH  27  28
ATOM     28  C   UNL     1       1.295  -6.247  26.437  0.00  0.00    -0.000 C 
BRANCH  28  29
ATOM     29  C   UNL     1       2.547  -6.882  27.030  0.00  0.00    -0.000 C 
BRANCH  29  30
ATOM     30  C   UNL     1       3.471  -7.388  25.927  0.00  0.00    -0.000 C 
BRANCH  30  31
ATOM     31  C   UNL     1       4.321  -6.253  25.362  0.00  0.00    -0.000 C 
BRANCH  31  32
ATOM     32  C   UNL     1       4.459  -6.380  23.847  0.00  0.00    -0.000 C 
BRANCH  32  34
ATOM     33  C   UNL     1       2.209  -5.619  23.027  0.00  0.00    +0.004 C 
ATOM     34  C   UNL     1       3.687  -5.278  23.129  0.00  0.00    -0.003 C 
ENDBRANCH  32  34
ENDBRANCH  31  32
ENDBRANCH  30  31
ENDBRANCH  29  30
ENDBRANCH  28  29
ENDBRANCH  27  28
ENDBRANCH  26  27
ENDBRANCH  25  26
ENDBRANCH  24  25
ENDBRANCH  23  24
ENDBRANCH  22  23
ENDBRANCH  21  22
ENDBRANCH  20  21
ENDBRANCH  18  20
ENDBRANCH  17  18
ENDBRANCH  16  17
ENDBRANCH   1  16
BRANCH   1  35
ATOM     35  O   UNL     1       8.132   3.272  23.196  0.00  0.00    -0.456 OA
BRANCH  35  36
ATOM     36  C   UNL     1       7.458   2.811  22.113  0.00  0.00    +0.308 C 
ATOM     37  O   UNL     1       6.477   3.336  21.601  0.00  0.00    -0.251 OA
BRANCH  36  38
ATOM     38  C   UNL     1       8.148   1.595  21.537  0.00  0.00    +0.120 C 
BRANCH  38  39
ATOM     39  C   UNL     1       9.648   1.555  21.801  0.00  0.00    +0.011 C 
BRANCH  39  40
ATOM     40  C   UNL     1      10.118   0.203  22.344  0.00  0.00    +0.001 C 
BRANCH  40  41
ATOM     41  C   UNL     1       9.371  -0.955  21.676  0.00  0.00    +0.000 C 
BRANCH  41  42
ATOM     42  C   UNL     1       9.160  -2.112  22.653  0.00  0.00    +0.000 C 
BRANCH  42  43
ATOM     43  C   UNL     1       7.675  -2.441  22.842  0.00  0.00    +0.000 C 
BRANCH  43  44
ATOM     44  C   UNL     1       7.498  -3.871  23.357  0.00  0.00    +0.004 C 
BRANCH  44  45
ATOM     45  C   UNL     1       8.245  -4.128  24.633  0.00  0.00    -0.008 C 
ATOM     46  C   UNL     1       7.727  -5.189  25.582  0.00  0.00    -0.008 C 
ATOM     47  C   UNL     1       9.033  -5.394  24.861  0.00  0.00    +0.007 C 
BRANCH  46  48
ATOM     48  C   UNL     1       7.709  -4.950  27.064  0.00  0.00    +0.004 C 
BRANCH  48  49
ATOM     49  C   UNL     1       6.338  -5.295  27.655  0.00  0.00    +0.000 C 
BRANCH  49  50
ATOM     50  C   UNL     1       6.451  -6.270  28.827  0.00  0.00    +0.000 C 
BRANCH  50  51
ATOM     51  C   UNL     1       5.472  -5.907  29.946  0.00  0.00    -0.000 C 
BRANCH  51  52
ATOM     52  C   UNL     1       4.400  -4.932  29.456  0.00  0.00    -0.003 C 
ATOM     53  C   UNL     1       4.120  -3.847  30.485  0.00  0.00    +0.004 C 
ENDBRANCH  51  52
ENDBRANCH  50  51
ENDBRANCH  49  50
ENDBRANCH  48  49
ENDBRANCH  46  48
ENDBRANCH  44  45
ENDBRANCH  43  44
ENDBRANCH  42  43
ENDBRANCH  41  42
ENDBRANCH  40  41
ENDBRANCH  39  40
ENDBRANCH  38  39
ENDBRANCH  36  38
ENDBRANCH  35  36
ENDBRANCH   1  35
TORSDOF 42
ENDMDL
MODEL 6
REMARK VINA RESULT:      -4.3      1.624      4.315
REMARK  Name = 
REMARK  44 active torsions:
REMARK  status: ('A' for Active; 'I' for Inactive)
REMARK    1  A    between atoms: C_1  and  C_2
REMARK    2  A    between atoms: C_2  and  C_3
REMARK    3  A    between atoms: C_3  and  C_4
REMARK    4  A    between atoms: C_4  and  C_5
REMARK    5  A    between atoms: C_5  and  C_6
REMARK    6  A    between atoms: C_6  and  C_7
REMARK    7  A    between atoms: C_7  and  C_8
REMARK    8  A    between atoms: C_8  and  C_9
REMARK    9  A    between atoms: C_9  and  C_10
REMARK   10  A    between atoms: C_10  and  C_11
REMARK   11  A    between atoms: C_11  and  C_12
REMARK   12  A    between atoms: C_12  and  C_13
REMARK   13  A    between atoms: C_13  and  C_14
REMARK   14  A    between atoms: C_14  and  C_15
REMARK   15  A    between atoms: C_15  and  C_16
REMARK   16  A    between atoms: C_16  and  O_18
REMARK   17  A    between atoms: O_18  and  C_19
REMARK   18  A    between atoms: C_19  and  C_20
REMARK   19  A    between atoms: C_20  and  C_22
REMARK   20  A    between atoms: C_20  and  O_34
REMARK   21  A    between atoms: C_22  and  O_23
REMARK   22  A    between atoms: O_23  and  P_24
REMARK   23  A    between atoms: P_24  and  O_25
REMARK   24  A    between atoms: P_24  and  O_27
REMARK   25  A    between atoms: O_27  and  C_28
REMARK   26  A    between atoms: C_28  and  C_29
REMARK   27  A    between atoms: C_29  and  O_31
REMARK   28  A    between atoms: C_29  and  C_32
REMARK   29  A    between atoms: C_32  and  O_33
REMARK   30  A    between atoms: O_34  and  C_35
REMARK   31  A    between atoms: C_35  and  C_37
REMARK   32  A    between atoms: C_37  and  C_38
REMARK   33  A    between atoms: C_38  and  C_39
REMARK   34  A    between atoms: C_39  and  C_40
REMARK   35  A    between atoms: C_40  and  C_41
REMARK   36  A    between atoms: C_41  and  C_42
REMARK   37  A    between atoms: C_42  and  C_43
REMARK   38  A    between atoms: C_43  and  C_44
REMARK   39  A    between atoms: C_47  and  C_49
REMARK   40  A    between atoms: C_49  and  C_50
REMARK   41  A    between atoms: C_50  and  C_51
REMARK   42  A    between atoms: C_51  and  C_52
REMARK   43  A    between atoms: C_52  and  C_53
REMARK   44  A    between atoms: C_53  and  C_54
REMARK                            x       y       z     vdW  Elec       q    Type
REMARK                         _______ _______ _______ _____ _____    ______ ____
ROOT
ATOM      1  C   UNL     1       7.778  -3.562  24.522  0.00  0.00    +0.240 C 
ENDROOT
BRANCH   1   2
ATOM      2  C   UNL     1       7.404  -4.529  25.642  0.00  0.00    +0.220 C 
BRANCH   2   3
ATOM      3  O   UNL     1       6.267  -4.071  26.360  0.00  0.00    -0.283 OA
BRANCH   3   4
ATOM      4  P   UNL     1       5.449  -5.265  27.129  0.00  0.00    +0.475 P 
ATOM      5  O   UNL     1       5.896  -6.597  26.521  0.00  0.00    -0.227 OA
BRANCH   4   6
ATOM      6  O   UNL     1       6.772  -5.429  28.232  0.00  0.00    -0.302 OA
ATOM      7  H   UNL     1       7.488  -5.747  27.642  0.00  0.00    +0.222 HD
ENDBRANCH   4   6
BRANCH   4   8
ATOM      8  O   UNL     1       4.125  -5.102  26.027  0.00  0.00    -0.284 OA
BRANCH   8   9
ATOM      9  C   UNL     1       4.293  -5.862  24.840  0.00  0.00    +0.206 C 
BRANCH   9  10
ATOM     10  C   UNL     1       3.366  -5.358  23.738  0.00  0.00    +0.166 C 
BRANCH  10  11
ATOM     11  O   UNL     1       4.158  -4.784  22.687  0.00  0.00    -0.387 OA
ATOM     12  H   UNL     1       4.307  -3.849  22.919  0.00  0.00    +0.210 HD
ENDBRANCH  10  11
BRANCH  10  13
ATOM     13  C   UNL     1       2.526  -6.487  23.137  0.00  0.00    +0.189 C 
BRANCH  13  14
ATOM     14  O   UNL     1       3.037  -7.755  23.559  0.00  0.00    -0.392 OA
ATOM     15  H   UNL     1       2.359  -8.106  24.171  0.00  0.00    +0.210 HD
ENDBRANCH  13  14
ENDBRANCH  10  13
ENDBRANCH   9  10
ENDBRANCH   8   9
ENDBRANCH   4   8
ENDBRANCH   3   4
ENDBRANCH   2   3
ENDBRANCH   1   2
BRANCH   1  16
ATOM     16  C   UNL     1       9.131  -2.932  24.869  0.00  0.00    +0.279 C 
BRANCH  16  17
ATOM     17  O   UNL     1      10.043  -2.977  23.767  0.00  0.00    -0.461 OA
BRANCH  17  18
ATOM     18  C   UNL     1      10.032  -1.879  22.961  0.00  0.00    +0.307 C 
ATOM     19  O   UNL     1       9.844  -1.893  21.753  0.00  0.00    -0.251 OA
BRANCH  18  20
ATOM     20  C   UNL     1      10.341  -0.647  23.768  0.00  0.00    +0.120 C 
BRANCH  20  21
ATOM     21  C   UNL     1      10.166   0.599  22.907  0.00  0.00    +0.011 C 
BRANCH  21  22
ATOM     22  C   UNL     1      10.245   1.874  23.740  0.00  0.00    +0.001 C 
BRANCH  22  23
ATOM     23  C   UNL     1       9.348   2.955  23.142  0.00  0.00    +0.000 C 
BRANCH  23  24
ATOM     24  C   UNL     1       8.357   2.366  22.144  0.00  0.00    +0.000 C 
BRANCH  24  25
ATOM     25  C   UNL     1       7.076   3.193  22.112  0.00  0.00    +0.000 C 
BRANCH  25  26
ATOM     26  C   UNL     1       7.392   4.684  22.096  0.00  0.00    -0.000 C 
BRANCH  26  27
ATOM     27  C   UNL     1       6.350   5.467  22.888  0.00  0.00    -0.000 C 
BRANCH  27  28
ATOM     28  C   UNL     1       6.983   6.688  23.550  0.00  0.00    -0.000 C 
BRANCH  28  29
ATOM     29  C   UNL     1       8.494   6.693  23.352  0.00  0.00    -0.000 C 
BRANCH  29  30
ATOM     30  C   UNL     1       9.210   6.985  24.667  0.00  0.00    -0.000 C 
BRANCH  30  31
ATOM     31  C   UNL     1      10.292   5.945  24.944  0.00  0.00    -0.000 C 
BRANCH  31  32
ATOM     32  C   UNL     1      11.591   6.309  24.229  0.00  0.00    -0.000 C 
BRANCH  32  34
ATOM     33  C   UNL     1      13.098   5.551  22.366  0.00  0.00    +0.004 C 
ATOM     34  C   UNL     1      12.163   5.109  23.481  0.00  0.00    -0.003 C 
ENDBRANCH  32  34
ENDBRANCH  31  32
ENDBRANCH  30  31
ENDBRANCH  29  30
ENDBRANCH  28  29
ENDBRANCH  27  28
ENDBRANCH  26  27
ENDBRANCH  25  26
ENDBRANCH  24  25
ENDBRANCH  23  24
ENDBRANCH  22  23
ENDBRANCH  21  22
ENDBRANCH  20  21
ENDBRANCH  18  20
ENDBRANCH  17  18
ENDBRANCH  16  17
ENDBRANCH   1  16
BRANCH   1  35
ATOM     35  O   UNL     1       6.741  -2.551  24.479  0.00  0.00    -0.456 OA
BRANCH  35  36
ATOM     36  C   UNL     1       6.450  -2.038  23.258  0.00  0.00    +0.308 C 
ATOM     37  O   UNL     1       5.986  -2.660  22.311  0.00  0.00    -0.251 OA
BRANCH  36  38
ATOM     38  C   UNL     1       6.675  -0.543  23.242  0.00  0.00    +0.120 C 
BRANCH  38  39
ATOM     39  C   UNL     1       6.266   0.155  24.534  0.00  0.00    +0.011 C 
BRANCH  39  40
ATOM     40  C   UNL     1       7.334   0.053  25.626  0.00  0.00    +0.001 C 
BRANCH  40  41
ATOM     41  C   UNL     1       7.529   1.395  26.339  0.00  0.00    +0.000 C 
BRANCH  41  42
ATOM     42  C   UNL     1       6.759   2.512  25.634  0.00  0.00    +0.000 C 
BRANCH  42  43
ATOM     43  C   UNL     1       7.305   3.899  25.987  0.00  0.00    +0.000 C 
BRANCH  43  44
ATOM     44  C   UNL     1       6.587   4.470  27.213  0.00  0.00    +0.004 C 
BRANCH  44  45
ATOM     45  C   UNL     1       5.135   4.749  26.959  0.00  0.00    -0.008 C 
ATOM     46  C   UNL     1       4.098   4.075  27.834  0.00  0.00    -0.008 C 
ATOM     47  C   UNL     1       4.296   5.566  27.909  0.00  0.00    +0.007 C 
BRANCH  46  48
ATOM     48  C   UNL     1       2.843   3.506  27.238  0.00  0.00    +0.004 C 
BRANCH  48  49
ATOM     49  C   UNL     1       2.649   2.047  27.664  0.00  0.00    +0.000 C 
BRANCH  49  50
ATOM     50  C   UNL     1       3.749   1.140  27.113  0.00  0.00    +0.000 C 
BRANCH  50  51
ATOM     51  C   UNL     1       4.525   0.461  28.243  0.00  0.00    -0.000 C 
BRANCH  51  52
ATOM     52  C   UNL     1       4.679  -1.040  27.992  0.00  0.00    -0.003 C 
ATOM     53  C   UNL     1       3.833  -1.499  26.815  0.00  0.00    +0.004 C 
ENDBRANCH  51  52
ENDBRANCH  50  51
ENDBRANCH  49  50
ENDBRANCH  48  49
ENDBRANCH  46  48
ENDBRANCH  44  45
ENDBRANCH  43  44
ENDBRANCH  42  43
ENDBRANCH  41  42
ENDBRANCH  40  41
ENDBRANCH  39  40
ENDBRANCH  38  39
ENDBRANCH  36  38
ENDBRANCH  35  36
ENDBRANCH   1  35
TORSDOF 42
ENDMDL
MODEL 7
REMARK VINA RESULT:      -4.3      3.856      7.968
REMARK  Name = 
REMARK  44 active torsions:
REMARK  status: ('A' for Active; 'I' for Inactive)
REMARK    1  A    between atoms: C_1  and  C_2
REMARK    2  A    between atoms: C_2  and  C_3
REMARK    3  A    between atoms: C_3  and  C_4
REMARK    4  A    between atoms: C_4  and  C_5
REMARK    5  A    between atoms: C_5  and  C_6
REMARK    6  A    between atoms: C_6  and  C_7
REMARK    7  A    between atoms: C_7  and  C_8
REMARK    8  A    between atoms: C_8  and  C_9
REMARK    9  A    between atoms: C_9  and  C_10
REMARK   10  A    between atoms: C_10  and  C_11
REMARK   11  A    between atoms: C_11  and  C_12
REMARK   12  A    between atoms: C_12  and  C_13
REMARK   13  A    between atoms: C_13  and  C_14
REMARK   14  A    between atoms: C_14  and  C_15
REMARK   15  A    between atoms: C_15  and  C_16
REMARK   16  A    between atoms: C_16  and  O_18
REMARK   17  A    between atoms: O_18  and  C_19
REMARK   18  A    between atoms: C_19  and  C_20
REMARK   19  A    between atoms: C_20  and  C_22
REMARK   20  A    between atoms: C_20  and  O_34
REMARK   21  A    between atoms: C_22  and  O_23
REMARK   22  A    between atoms: O_23  and  P_24
REMARK   23  A    between atoms: P_24  and  O_25
REMARK   24  A    between atoms: P_24  and  O_27
REMARK   25  A    between atoms: O_27  and  C_28
REMARK   26  A    between atoms: C_28  and  C_29
REMARK   27  A    between atoms: C_29  and  O_31
REMARK   28  A    between atoms: C_29  and  C_32
REMARK   29  A    between atoms: C_32  and  O_33
REMARK   30  A    between atoms: O_34  and  C_35
REMARK   31  A    between atoms: C_35  and  C_37
REMARK   32  A    between atoms: C_37  and  C_38
REMARK   33  A    between atoms: C_38  and  C_39
REMARK   34  A    between atoms: C_39  and  C_40
REMARK   35  A    between atoms: C_40  and  C_41
REMARK   36  A    between atoms: C_41  and  C_42
REMARK   37  A    between atoms: C_42  and  C_43
REMARK   38  A    between atoms: C_43  and  C_44
REMARK   39  A    between atoms: C_47  and  C_49
REMARK   40  A    between atoms: C_49  and  C_50
REMARK   41  A    between atoms: C_50  and  C_51
REMARK   42  A    between atoms: C_51  and  C_52
REMARK   43  A    between atoms: C_52  and  C_53
REMARK   44  A    between atoms: C_53  and  C_54
REMARK                            x       y       z     vdW  Elec       q    Type
REMARK                         _______ _______ _______ _____ _____    ______ ____
ROOT
ATOM      1  C   UNL     1       4.482   1.384  26.736  0.00  0.00    +0.240 C 
ENDROOT
BRANCH   1   2
ATOM      2  C   UNL     1       3.336   2.277  26.266  0.00  0.00    +0.220 C 
BRANCH   2   3
ATOM      3  O   UNL     1       3.305   2.371  24.850  0.00  0.00    -0.283 OA
BRANCH   3   4
ATOM      4  P   UNL     1       2.507   3.693  24.296  0.00  0.00    +0.475 P 
ATOM      5  O   UNL     1       1.315   3.937  25.226  0.00  0.00    -0.227 OA
BRANCH   4   6
ATOM      6  O   UNL     1       3.433   4.676  25.378  0.00  0.00    -0.302 OA
ATOM      7  H   UNL     1       4.352   4.436  25.132  0.00  0.00    +0.222 HD
ENDBRANCH   4   6
BRANCH   4   8
ATOM      8  O   UNL     1       1.581   2.712  23.214  0.00  0.00    -0.284 OA
BRANCH   8   9
ATOM      9  C   UNL     1       1.121   3.422  22.073  0.00  0.00    +0.206 C 
BRANCH   9  10
ATOM     10  C   UNL     1       2.027   3.162  20.873  0.00  0.00    +0.166 C 
BRANCH  10  11
ATOM     11  O   UNL     1       1.742   1.858  20.347  0.00  0.00    -0.387 OA
ATOM     12  H   UNL     1       2.116   1.824  19.447  0.00  0.00    +0.210 HD
ENDBRANCH  10  11
BRANCH  10  13
ATOM     13  C   UNL     1       1.803   4.185  19.757  0.00  0.00    +0.189 C 
BRANCH  13  14
ATOM     14  O   UNL     1       2.508   3.786  18.579  0.00  0.00    -0.392 OA
ATOM     15  H   UNL     1       2.079   2.952  18.301  0.00  0.00    +0.210 HD
ENDBRANCH  13  14
ENDBRANCH  10  13
ENDBRANCH   9  10
ENDBRANCH   8   9
ENDBRANCH   4   8
ENDBRANCH   3   4
ENDBRANCH   2   3
ENDBRANCH   1   2
BRANCH   1  16
ATOM     16  C   UNL     1       5.801   2.094  26.418  0.00  0.00    +0.279 C 
BRANCH  16  17
ATOM     17  O   UNL     1       5.803   3.451  26.873  0.00  0.00    -0.461 OA
BRANCH  17  18
ATOM     18  C   UNL     1       6.784   3.761  27.766  0.00  0.00    +0.307 C 
ATOM     19  O   UNL     1       7.269   2.986  28.577  0.00  0.00    -0.251 OA
BRANCH  18  20
ATOM     20  C   UNL     1       7.144   5.217  27.647  0.00  0.00    +0.120 C 
BRANCH  20  21
ATOM     21  C   UNL     1       7.274   5.605  26.178  0.00  0.00    +0.011 C 
BRANCH  21  22
ATOM     22  C   UNL     1       8.455   4.907  25.514  0.00  0.00    +0.001 C 
BRANCH  22  23
ATOM     23  C   UNL     1       9.430   5.935  24.948  0.00  0.00    +0.000 C 
BRANCH  23  24
ATOM     24  C   UNL     1       9.397   5.953  23.424  0.00  0.00    +0.000 C 
BRANCH  24  25
ATOM     25  C   UNL     1       8.245   6.818  22.924  0.00  0.00    +0.000 C 
BRANCH  25  26
ATOM     26  C   UNL     1       7.336   6.026  21.991  0.00  0.00    -0.000 C 
BRANCH  26  27
ATOM     27  C   UNL     1       6.071   5.580  22.718  0.00  0.00    -0.000 C 
BRANCH  27  28
ATOM     28  C   UNL     1       6.028   4.061  22.842  0.00  0.00    -0.000 C 
BRANCH  28  29
ATOM     29  C   UNL     1       7.068   3.410  21.936  0.00  0.00    -0.000 C 
BRANCH  29  30
ATOM     30  C   UNL     1       7.717   2.216  22.629  0.00  0.00    -0.000 C 
BRANCH  30  31
ATOM     31  C   UNL     1       8.756   1.558  21.725  0.00  0.00    -0.000 C 
BRANCH  31  32
ATOM     32  C   UNL     1      10.170   1.864  22.211  0.00  0.00    -0.000 C 
BRANCH  32  34
ATOM     33  C   UNL     1      10.859   0.932  24.441  0.00  0.00    +0.004 C 
ATOM     34  C   UNL     1      10.197   2.094  23.719  0.00  0.00    -0.003 C 
ENDBRANCH  32  34
ENDBRANCH  31  32
ENDBRANCH  30  31
ENDBRANCH  29  30
ENDBRANCH  28  29
ENDBRANCH  27  28
ENDBRANCH  26  27
ENDBRANCH  25  26
ENDBRANCH  24  25
ENDBRANCH  23  24
ENDBRANCH  22  23
ENDBRANCH  21  22
ENDBRANCH  20  21
ENDBRANCH  18  20
ENDBRANCH  17  18
ENDBRANCH  16  17
ENDBRANCH   1  16
BRANCH   1  35
ATOM     35  O   UNL     1       4.378   0.145  25.990  0.00  0.00    -0.456 OA
BRANCH  35  36
ATOM     36  C   UNL     1       4.745  -0.984  26.645  0.00  0.00    +0.308 C 
ATOM     37  O   UNL     1       4.223  -1.427  27.660  0.00  0.00    -0.251 OA
BRANCH  36  38
ATOM     38  C   UNL     1       5.838  -1.706  25.888  0.00  0.00    +0.120 C 
BRANCH  38  39
ATOM     39  C   UNL     1       5.567  -1.839  24.395  0.00  0.00    +0.011 C 
BRANCH  39  40
ATOM     40  C   UNL     1       6.641  -1.168  23.536  0.00  0.00    +0.001 C 
BRANCH  40  41
ATOM     41  C   UNL     1       7.522  -2.206  22.833  0.00  0.00    +0.000 C 
BRANCH  41  42
ATOM     42  C   UNL     1       9.000  -1.828  22.922  0.00  0.00    +0.000 C 
BRANCH  42  43
ATOM     43  C   UNL     1       9.769  -2.735  23.889  0.00  0.00    +0.000 C 
BRANCH  43  44
ATOM     44  C   UNL     1       9.132  -2.707  25.281  0.00  0.00    +0.004 C 
BRANCH  44  45
ATOM     45  C   UNL     1       8.828  -4.078  25.809  0.00  0.00    -0.008 C 
ATOM     46  C   UNL     1       7.606  -4.807  25.290  0.00  0.00    -0.008 C 
ATOM     47  C   UNL     1       8.985  -5.317  24.965  0.00  0.00    +0.007 C 
BRANCH  46  48
ATOM     48  C   UNL     1       6.715  -5.574  26.224  0.00  0.00    +0.004 C 
BRANCH  48  49
ATOM     49  C   UNL     1       5.256  -5.508  25.762  0.00  0.00    +0.000 C 
BRANCH  49  50
ATOM     50  C   UNL     1       5.044  -6.233  24.433  0.00  0.00    +0.000 C 
BRANCH  50  51
ATOM     51  C   UNL     1       5.215  -5.280  23.248  0.00  0.00    -0.000 C 
BRANCH  51  52
ATOM     52  C   UNL     1       5.711  -6.019  22.004  0.00  0.00    -0.003 C 
ATOM     53  C   UNL     1       7.138  -5.625  21.652  0.00  0.00    +0.004 C 
ENDBRANCH  51  52
ENDBRANCH  50  51
ENDBRANCH  49  50
ENDBRANCH  48  49
ENDBRANCH  46  48
ENDBRANCH  44  45
ENDBRANCH  43  44
ENDBRANCH  42  43
ENDBRANCH  41  42
ENDBRANCH  40  41
ENDBRANCH  39  40
ENDBRANCH  38  39
ENDBRANCH  36  38
ENDBRANCH  35  36
ENDBRANCH   1  35
TORSDOF 42
ENDMDL
MODEL 8
REMARK VINA RESULT:      -4.3      1.502      3.437
REMARK  Name = 
REMARK  44 active torsions:
REMARK  status: ('A' for Active; 'I' for Inactive)
REMARK    1  A    between atoms: C_1  and  C_2
REMARK    2  A    between atoms: C_2  and  C_3
REMARK    3  A    between atoms: C_3  and  C_4
REMARK    4  A    between atoms: C_4  and  C_5
REMARK    5  A    between atoms: C_5  and  C_6
REMARK    6  A    between atoms: C_6  and  C_7
REMARK    7  A    between atoms: C_7  and  C_8
REMARK    8  A    between atoms: C_8  and  C_9
REMARK    9  A    between atoms: C_9  and  C_10
REMARK   10  A    between atoms: C_10  and  C_11
REMARK   11  A    between atoms: C_11  and  C_12
REMARK   12  A    between atoms: C_12  and  C_13
REMARK   13  A    between atoms: C_13  and  C_14
REMARK   14  A    between atoms: C_14  and  C_15
REMARK   15  A    between atoms: C_15  and  C_16
REMARK   16  A    between atoms: C_16  and  O_18
REMARK   17  A    between atoms: O_18  and  C_19
REMARK   18  A    between atoms: C_19  and  C_20
REMARK   19  A    between atoms: C_20  and  C_22
REMARK   20  A    between atoms: C_20  and  O_34
REMARK   21  A    between atoms: C_22  and  O_23
REMARK   22  A    between atoms: O_23  and  P_24
REMARK   23  A    between atoms: P_24  and  O_25
REMARK   24  A    between atoms: P_24  and  O_27
REMARK   25  A    between atoms: O_27  and  C_28
REMARK   26  A    between atoms: C_28  and  C_29
REMARK   27  A    between atoms: C_29  and  O_31
REMARK   28  A    between atoms: C_29  and  C_32
REMARK   29  A    between atoms: C_32  and  O_33
REMARK   30  A    between atoms: O_34  and  C_35
REMARK   31  A    between atoms: C_35  and  C_37
REMARK   32  A    between atoms: C_37  and  C_38
REMARK   33  A    between atoms: C_38  and  C_39
REMARK   34  A    between atoms: C_39  and  C_40
REMARK   35  A    between atoms: C_40  and  C_41
REMARK   36  A    between atoms: C_41  and  C_42
REMARK   37  A    between atoms: C_42  and  C_43
REMARK   38  A    between atoms: C_43  and  C_44
REMARK   39  A    between atoms: C_47  and  C_49
REMARK   40  A    between atoms: C_49  and  C_50
REMARK   41  A    between atoms: C_50  and  C_51
REMARK   42  A    between atoms: C_51  and  C_52
REMARK   43  A    between atoms: C_52  and  C_53
REMARK   44  A    between atoms: C_53  and  C_54
REMARK                            x       y       z     vdW  Elec       q    Type
REMARK                         _______ _______ _______ _____ _____    ______ ____
ROOT
ATOM      1  C   UNL     1       8.781  -4.119  24.448  0.00  0.00    +0.240 C 
ENDROOT
BRANCH   1   2
ATOM      2  C   UNL     1       7.833  -5.080  23.734  0.00  0.00    +0.220 C 
BRANCH   2   3
ATOM      3  O   UNL     1       6.582  -4.465  23.465  0.00  0.00    -0.283 OA
BRANCH   3   4
ATOM      4  P   UNL     1       5.815  -5.079  22.152  0.00  0.00    +0.475 P 
ATOM      5  O   UNL     1       5.805  -3.993  21.073  0.00  0.00    -0.227 OA
BRANCH   4   6
ATOM      6  O   UNL     1       7.348  -5.568  21.515  0.00  0.00    -0.302 OA
ATOM      7  H   UNL     1       7.971  -5.084  22.096  0.00  0.00    +0.222 HD
ENDBRANCH   4   6
BRANCH   4   8
ATOM      8  O   UNL     1       4.282  -4.591  22.788  0.00  0.00    -0.284 OA
BRANCH   8   9
ATOM      9  C   UNL     1       3.518  -5.676  23.292  0.00  0.00    +0.206 C 
BRANCH   9  10
ATOM     10  C   UNL     1       3.626  -5.756  24.812  0.00  0.00    +0.166 C 
BRANCH  10  11
ATOM     11  O   UNL     1       2.310  -5.897  25.367  0.00  0.00    -0.387 OA
ATOM     12  H   UNL     1       1.899  -6.669  24.936  0.00  0.00    +0.210 HD
ENDBRANCH  10  11
BRANCH  10  13
ATOM     13  C   UNL     1       4.464  -6.954  25.262  0.00  0.00    +0.189 C 
BRANCH  13  14
ATOM     14  O   UNL     1       4.127  -7.309  26.607  0.00  0.00    -0.392 OA
ATOM     15  H   UNL     1       4.862  -7.882  26.905  0.00  0.00    +0.210 HD
ENDBRANCH  13  14
ENDBRANCH  10  13
ENDBRANCH   9  10
ENDBRANCH   8   9
ENDBRANCH   4   8
ENDBRANCH   3   4
ENDBRANCH   2   3
ENDBRANCH   1   2
BRANCH   1  16
ATOM     16  C   UNL     1       8.874  -4.545  25.917  0.00  0.00    +0.279 C 
BRANCH  16  17
ATOM     17  O   UNL     1       7.838  -3.961  26.712  0.00  0.00    -0.461 OA
BRANCH  17  18
ATOM     18  C   UNL     1       7.000  -4.849  27.314  0.00  0.00    +0.307 C 
ATOM     19  O   UNL     1       7.278  -6.009  27.585  0.00  0.00    -0.251 OA
BRANCH  18  20
ATOM     20  C   UNL     1       5.657  -4.211  27.546  0.00  0.00    +0.120 C 
BRANCH  20  21
ATOM     21  C   UNL     1       5.475  -3.021  26.610  0.00  0.00    +0.011 C 
BRANCH  21  22
ATOM     22  C   UNL     1       4.277  -2.168  27.011  0.00  0.00    +0.001 C 
BRANCH  22  23
ATOM     23  C   UNL     1       4.630  -1.283  28.203  0.00  0.00    +0.000 C 
BRANCH  23  24
ATOM     24  C   UNL     1       3.516  -0.285  28.504  0.00  0.00    +0.000 C 
BRANCH  24  25
ATOM     25  C   UNL     1       3.946   1.128  28.123  0.00  0.00    +0.000 C 
BRANCH  25  26
ATOM     26  C   UNL     1       3.086   1.668  26.986  0.00  0.00    -0.000 C 
BRANCH  26  27
ATOM     27  C   UNL     1       3.538   3.068  26.583  0.00  0.00    -0.000 C 
BRANCH  27  28
ATOM     28  C   UNL     1       4.895   3.394  27.200  0.00  0.00    -0.000 C 
BRANCH  28  29
ATOM     29  C   UNL     1       5.439   4.710  26.655  0.00  0.00    -0.000 C 
BRANCH  29  30
ATOM     30  C   UNL     1       4.302   5.675  26.337  0.00  0.00    -0.000 C 
BRANCH  30  31
ATOM     31  C   UNL     1       4.726   6.692  25.281  0.00  0.00    -0.000 C 
BRANCH  31  32
ATOM     32  C   UNL     1       3.861   6.568  24.030  0.00  0.00    -0.000 C 
BRANCH  32  34
ATOM     33  C   UNL     1       2.364   4.732  23.189  0.00  0.00    +0.004 C 
ATOM     34  C   UNL     1       2.611   5.737  24.304  0.00  0.00    -0.003 C 
ENDBRANCH  32  34
ENDBRANCH  31  32
ENDBRANCH  30  31
ENDBRANCH  29  30
ENDBRANCH  28  29
ENDBRANCH  27  28
ENDBRANCH  26  27
ENDBRANCH  25  26
ENDBRANCH  24  25
ENDBRANCH  23  24
ENDBRANCH  22  23
ENDBRANCH  21  22
ENDBRANCH  20  21
ENDBRANCH  18  20
ENDBRANCH  17  18
ENDBRANCH  16  17
ENDBRANCH   1  16
BRANCH   1  35
ATOM     35  O   UNL     1       8.197  -2.798  24.337  0.00  0.00    -0.456 OA
BRANCH  35  36
ATOM     36  C   UNL     1       8.964  -1.848  23.747  0.00  0.00    +0.308 C 
ATOM     37  O   UNL     1       9.967  -1.335  24.228  0.00  0.00    -0.251 OA
BRANCH  36  38
ATOM     38  C   UNL     1       8.477  -1.568  22.343  0.00  0.00    +0.120 C 
BRANCH  38  39
ATOM     39  C   UNL     1       9.434  -0.716  21.518  0.00  0.00    +0.011 C 
BRANCH  39  40
ATOM     40  C   UNL     1       9.038   0.763  21.493  0.00  0.00    +0.001 C 
BRANCH  40  41
ATOM     41  C   UNL     1      10.151   1.647  22.066  0.00  0.00    +0.000 C 
BRANCH  41  42
ATOM     42  C   UNL     1       9.785   2.161  23.458  0.00  0.00    +0.000 C 
BRANCH  42  43
ATOM     43  C   UNL     1      10.270   3.597  23.686  0.00  0.00    +0.000 C 
BRANCH  43  44
ATOM     44  C   UNL     1       9.084   4.553  23.836  0.00  0.00    +0.004 C 
BRANCH  44  45
ATOM     45  C   UNL     1       8.024   4.334  22.797  0.00  0.00    -0.008 C 
ATOM     46  C   UNL     1       6.580   4.224  23.240  0.00  0.00    -0.008 C 
ATOM     47  C   UNL     1       7.032   5.407  22.424  0.00  0.00    +0.007 C 
BRANCH  46  48
ATOM     48  C   UNL     1       5.669   3.193  22.638  0.00  0.00    +0.004 C 
BRANCH  48  49
ATOM     49  C   UNL     1       5.255   2.154  23.685  0.00  0.00    +0.000 C 
BRANCH  49  50
ATOM     50  C   UNL     1       6.323   1.076  23.874  0.00  0.00    +0.000 C 
BRANCH  50  51
ATOM     51  C   UNL     1       6.251   0.465  25.275  0.00  0.00    -0.000 C 
BRANCH  51  52
ATOM     52  C   UNL     1       7.451   0.880  26.128  0.00  0.00    -0.003 C 
ATOM     53  C   UNL     1       7.957  -0.275  26.979  0.00  0.00    +0.004 C 
ENDBRANCH  51  52
ENDBRANCH  50  51
ENDBRANCH  49  50
ENDBRANCH  48  49
ENDBRANCH  46  48
ENDBRANCH  44  45
ENDBRANCH  43  44
ENDBRANCH  42  43
ENDBRANCH  41  42
ENDBRANCH  40  41
ENDBRANCH  39  40
ENDBRANCH  38  39
ENDBRANCH  36  38
ENDBRANCH  35  36
ENDBRANCH   1  35
TORSDOF 42
ENDMDL
MODEL 9
REMARK VINA RESULT:      -4.3      1.361      4.326
REMARK  Name = 
REMARK  44 active torsions:
REMARK  status: ('A' for Active; 'I' for Inactive)
REMARK    1  A    between atoms: C_1  and  C_2
REMARK    2  A    between atoms: C_2  and  C_3
REMARK    3  A    between atoms: C_3  and  C_4
REMARK    4  A    between atoms: C_4  and  C_5
REMARK    5  A    between atoms: C_5  and  C_6
REMARK    6  A    between atoms: C_6  and  C_7
REMARK    7  A    between atoms: C_7  and  C_8
REMARK    8  A    between atoms: C_8  and  C_9
REMARK    9  A    between atoms: C_9  and  C_10
REMARK   10  A    between atoms: C_10  and  C_11
REMARK   11  A    between atoms: C_11  and  C_12
REMARK   12  A    between atoms: C_12  and  C_13
REMARK   13  A    between atoms: C_13  and  C_14
REMARK   14  A    between atoms: C_14  and  C_15
REMARK   15  A    between atoms: C_15  and  C_16
REMARK   16  A    between atoms: C_16  and  O_18
REMARK   17  A    between atoms: O_18  and  C_19
REMARK   18  A    between atoms: C_19  and  C_20
REMARK   19  A    between atoms: C_20  and  C_22
REMARK   20  A    between atoms: C_20  and  O_34
REMARK   21  A    between atoms: C_22  and  O_23
REMARK   22  A    between atoms: O_23  and  P_24
REMARK   23  A    between atoms: P_24  and  O_25
REMARK   24  A    between atoms: P_24  and  O_27
REMARK   25  A    between atoms: O_27  and  C_28
REMARK   26  A    between atoms: C_28  and  C_29
REMARK   27  A    between atoms: C_29  and  O_31
REMARK   28  A    between atoms: C_29  and  C_32
REMARK   29  A    between atoms: C_32  and  O_33
REMARK   30  A    between atoms: O_34  and  C_35
REMARK   31  A    between atoms: C_35  and  C_37
REMARK   32  A    between atoms: C_37  and  C_38
REMARK   33  A    between atoms: C_38  and  C_39
REMARK   34  A    between atoms: C_39  and  C_40
REMARK   35  A    between atoms: C_40  and  C_41
REMARK   36  A    between atoms: C_41  and  C_42
REMARK   37  A    between atoms: C_42  and  C_43
REMARK   38  A    between atoms: C_43  and  C_44
REMARK   39  A    between atoms: C_47  and  C_49
REMARK   40  A    between atoms: C_49  and  C_50
REMARK   41  A    between atoms: C_50  and  C_51
REMARK   42  A    between atoms: C_51  and  C_52
REMARK   43  A    between atoms: C_52  and  C_53
REMARK   44  A    between atoms: C_53  and  C_54
REMARK                            x       y       z     vdW  Elec       q    Type
REMARK                         _______ _______ _______ _____ _____    ______ ____
ROOT
ATOM      1  C   UNL     1       8.523  -3.511  23.780  0.00  0.00    +0.240 C 
ENDROOT
BRANCH   1   2
ATOM      2  C   UNL     1       7.437  -3.791  22.743  0.00  0.00    +0.220 C 
BRANCH   2   3
ATOM      3  O   UNL     1       6.521  -4.771  23.210  0.00  0.00    -0.283 OA
BRANCH   3   4
ATOM      4  P   UNL     1       5.952  -5.755  22.028  0.00  0.00    +0.475 P 
ATOM      5  O   UNL     1       5.774  -4.906  20.766  0.00  0.00    -0.227 OA
BRANCH   4   6
ATOM      6  O   UNL     1       7.578  -6.028  21.504  0.00  0.00    -0.302 OA
ATOM      7  H   UNL     1       7.447  -6.285  20.567  0.00  0.00    +0.222 HD
ENDBRANCH   4   6
BRANCH   4   8
ATOM      8  O   UNL     1       4.325  -5.482  22.551  0.00  0.00    -0.284 OA
BRANCH   8   9
ATOM      9  C   UNL     1       4.187  -5.488  23.964  0.00  0.00    +0.206 C 
BRANCH   9  10
ATOM     10  C   UNL     1       4.315  -6.905  24.515  0.00  0.00    +0.166 C 
BRANCH  10  11
ATOM     11  O   UNL     1       5.008  -6.857  25.772  0.00  0.00    -0.387 OA
ATOM     12  H   UNL     1       5.939  -7.082  25.594  0.00  0.00    +0.210 HD
ENDBRANCH  10  11
BRANCH  10  13
ATOM     13  C   UNL     1       2.948  -7.552  24.750  0.00  0.00    +0.189 C 
BRANCH  13  14
ATOM     14  O   UNL     1       2.008  -7.072  23.785  0.00  0.00    -0.392 OA
ATOM     15  H   UNL     1       1.737  -7.868  23.284  0.00  0.00    +0.210 HD
ENDBRANCH  13  14
ENDBRANCH  10  13
ENDBRANCH   9  10
ENDBRANCH   8   9
ENDBRANCH   4   8
ENDBRANCH   3   4
ENDBRANCH   2   3
ENDBRANCH   1   2
BRANCH   1  16
ATOM     16  C   UNL     1       8.305  -4.455  24.966  0.00  0.00    +0.279 C 
BRANCH  16  17
ATOM     17  O   UNL     1       7.893  -3.753  26.143  0.00  0.00    -0.461 OA
BRANCH  17  18
ATOM     18  C   UNL     1       7.134  -4.476  27.012  0.00  0.00    +0.307 C 
ATOM     19  O   UNL     1       7.394  -5.603  27.407  0.00  0.00    -0.251 OA
BRANCH  18  20
ATOM     20  C   UNL     1       5.893  -3.704  27.373  0.00  0.00    +0.120 C 
BRANCH  20  21
ATOM     21  C   UNL     1       5.538  -2.733  26.253  0.00  0.00    +0.011 C 
BRANCH  21  22
ATOM     22  C   UNL     1       4.311  -1.897  26.601  0.00  0.00    +0.001 C 
BRANCH  22  23
ATOM     23  C   UNL     1       4.445  -1.317  28.007  0.00  0.00    +0.000 C 
BRANCH  23  24
ATOM     24  C   UNL     1       3.961   0.128  28.061  0.00  0.00    +0.000 C 
BRANCH  24  25
ATOM     25  C   UNL     1       3.821   0.699  26.654  0.00  0.00    +0.000 C 
BRANCH  25  26
ATOM     26  C   UNL     1       3.462   2.179  26.701  0.00  0.00    -0.000 C 
BRANCH  26  27
ATOM     27  C   UNL     1       4.137   2.937  25.564  0.00  0.00    -0.000 C 
BRANCH  27  28
ATOM     28  C   UNL     1       4.910   1.980  24.662  0.00  0.00    -0.000 C 
BRANCH  28  29
ATOM     29  C   UNL     1       5.594   2.733  23.526  0.00  0.00    -0.000 C 
BRANCH  29  30
ATOM     30  C   UNL     1       7.003   3.155  23.930  0.00  0.00    -0.000 C 
BRANCH  30  31
ATOM     31  C   UNL     1       7.958   3.079  22.742  0.00  0.00    -0.000 C 
BRANCH  31  32
ATOM     32  C   UNL     1       9.357   2.667  23.194  0.00  0.00    -0.000 C 
BRANCH  32  34
ATOM     33  C   UNL     1       8.967   0.947  21.403  0.00  0.00    +0.004 C 
ATOM     34  C   UNL     1      10.011   1.733  22.180  0.00  0.00    -0.003 C 
ENDBRANCH  32  34
ENDBRANCH  31  32
ENDBRANCH  30  31
ENDBRANCH  29  30
ENDBRANCH  28  29
ENDBRANCH  27  28
ENDBRANCH  26  27
ENDBRANCH  25  26
ENDBRANCH  24  25
ENDBRANCH  23  24
ENDBRANCH  22  23
ENDBRANCH  21  22
ENDBRANCH  20  21
ENDBRANCH  18  20
ENDBRANCH  17  18
ENDBRANCH  16  17
ENDBRANCH   1  16
BRANCH   1  35
ATOM     35  O   UNL     1       8.362  -2.131  24.191  0.00  0.00    -0.456 OA
BRANCH  35  36
ATOM     36  C   UNL     1       9.499  -1.399  24.303  0.00  0.00    +0.308 C 
ATOM     37  O   UNL     1      10.483  -1.487  23.580  0.00  0.00    -0.251 OA
BRANCH  36  38
ATOM     38  C   UNL     1       9.356  -0.361  25.394  0.00  0.00    +0.120 C 
BRANCH  38  39
ATOM     39  C   UNL     1       7.920   0.091  25.630  0.00  0.00    +0.011 C 
BRANCH  39  40
ATOM     40  C   UNL     1       7.607   0.321  27.111  0.00  0.00    +0.001 C 
BRANCH  40  41
ATOM     41  C   UNL     1       7.197   1.773  27.374  0.00  0.00    +0.000 C 
BRANCH  41  42
ATOM     42  C   UNL     1       7.086   2.052  28.873  0.00  0.00    +0.000 C 
BRANCH  42  43
ATOM     43  C   UNL     1       6.845   3.537  29.165  0.00  0.00    +0.000 C 
BRANCH  43  44
ATOM     44  C   UNL     1       6.445   4.283  27.890  0.00  0.00    +0.004 C 
BRANCH  44  45
ATOM     45  C   UNL     1       7.369   5.420  27.566  0.00  0.00    -0.008 C 
ATOM     46  C   UNL     1       7.547   5.826  26.118  0.00  0.00    -0.008 C 
ATOM     47  C   UNL     1       6.860   6.755  27.084  0.00  0.00    +0.007 C 
BRANCH  46  48
ATOM     48  C   UNL     1       8.906   6.164  25.577  0.00  0.00    +0.004 C 
BRANCH  48  49
ATOM     49  C   UNL     1       8.810   6.651  24.127  0.00  0.00    +0.000 C 
BRANCH  49  50
ATOM     50  C   UNL     1      10.009   6.202  23.292  0.00  0.00    +0.000 C 
BRANCH  50  51
ATOM     51  C   UNL     1      11.241   5.975  24.171  0.00  0.00    -0.000 C 
BRANCH  51  52
ATOM     52  C   UNL     1      12.213   4.984  23.528  0.00  0.00    -0.003 C 
ATOM     53  C   UNL     1      12.936   5.603  22.341  0.00  0.00    +0.004 C 
ENDBRANCH  51  52
ENDBRANCH  50  51
ENDBRANCH  49  50
ENDBRANCH  48  49
ENDBRANCH  46  48
ENDBRANCH  44  45
ENDBRANCH  43  44
ENDBRANCH  42  43
ENDBRANCH  41  42
ENDBRANCH  40  41
ENDBRANCH  39  40
ENDBRANCH  38  39
ENDBRANCH  36  38
ENDBRANCH  35  36
ENDBRANCH   1  35
TORSDOF 42
ENDMDL
