MODEL 1
REMARK VINA RESULT:      -6.6      0.000      0.000
REMARK  Name = 
REMARK  4 active torsions:
REMARK  status: ('A' for Active; 'I' for Inactive)
REMARK    1  A    between atoms: N_1  and  S_2
REMARK    2  A    between atoms: S_2  and  C_5
REMARK    3  A    between atoms: C_8  and  N_9
REMARK    4  A    between atoms: C_15  and  N_17
REMARK                            x       y       z     vdW  Elec       q    Type
REMARK                         _______ _______ _______ _____ _____    ______ ____
ROOT
ATOM      1  C   UNL     1       6.069  -4.467  23.435  0.00  0.00    +0.112 A 
ATOM      2  C   UNL     1       7.094  -4.807  24.314  0.00  0.00    +0.114 A 
ATOM      3  C   UNL     1       8.114  -3.871  24.564  0.00  0.00    +0.296 A 
ATOM      4  C   UNL     1       8.136  -2.595  23.967  0.00  0.00    +0.114 A 
ATOM      5  C   UNL     1       7.071  -2.299  23.093  0.00  0.00    +0.032 A 
ATOM      6  C   UNL     1       6.045  -3.213  22.831  0.00  0.00    +0.031 A 
ENDROOT
BRANCH   4   7
ATOM      7  N   UNL     1       9.087  -1.568  24.229  0.00  0.00    -0.266 N 
ATOM      8  C   UNL     1      10.126  -1.195  23.358  0.00  0.00    +0.220 C 
ATOM      9  O   UNL     1      10.544  -1.793  22.378  0.00  0.00    -0.275 OA
ATOM     10  C   UNL     1      10.712   0.102  23.859  0.00  0.00    +0.098 C 
ATOM     11  C   UNL     1       9.653   0.600  24.827  0.00  0.00    +0.029 C 
ATOM     12  C   UNL     1       9.047  -0.680  25.367  0.00  0.00    +0.114 C 
ENDBRANCH   4   7
BRANCH   1  13
ATOM     13  S   UNL     1       4.811  -5.639  23.033  0.00  0.00    +0.056 S 
ATOM     14  O   UNL     1       4.911  -6.764  23.934  0.00  0.00    -0.153 OA
ATOM     15  O   UNL     1       3.576  -4.928  22.803  0.00  0.00    -0.153 OA
BRANCH  13  16
ATOM     16  N   UNL     1       5.335  -6.200  21.543  0.00  0.00    -0.204 NA
ATOM     17  H   UNL     1       6.301  -6.527  21.604  0.00  0.00    +0.144 HD
ATOM     18  H   UNL     1       4.685  -6.900  21.182  0.00  0.00    +0.144 HD
ENDBRANCH  13  16
ENDBRANCH   1  13
BRANCH   3  19
ATOM     19  N   UNL     1       9.208  -4.349  25.382  0.00  0.00    +0.082 N 
ATOM     20  O   UNL     1      10.210  -4.766  24.788  0.00  0.00    +0.042 OA
ATOM     21  O   UNL     1       9.071  -4.287  26.611  0.00  0.00    -0.576 OA
ENDBRANCH   3  19
TORSDOF 4
ENDMDL
MODEL 2
REMARK VINA RESULT:      -6.5      2.707      3.748
REMARK  Name = 
REMARK  4 active torsions:
REMARK  status: ('A' for Active; 'I' for Inactive)
REMARK    1  A    between atoms: N_1  and  S_2
REMARK    2  A    between atoms: S_2  and  C_5
REMARK    3  A    between atoms: C_8  and  N_9
REMARK    4  A    between atoms: C_15  and  N_17
REMARK                            x       y       z     vdW  Elec       q    Type
REMARK                         _______ _______ _______ _____ _____    ______ ____
ROOT
ATOM      1  C   UNL     1       8.496  -3.398  25.471  0.00  0.00    +0.112 A 
ATOM      2  C   UNL     1       9.032  -3.152  24.209  0.00  0.00    +0.114 A 
ATOM      3  C   UNL     1       9.259  -1.821  23.814  0.00  0.00    +0.296 A 
ATOM      4  C   UNL     1       8.973  -0.722  24.648  0.00  0.00    +0.114 A 
ATOM      5  C   UNL     1       8.440  -1.027  25.917  0.00  0.00    +0.032 A 
ATOM      6  C   UNL     1       8.209  -2.342  26.332  0.00  0.00    +0.031 A 
ENDROOT
BRANCH   4   7
ATOM      7  N   UNL     1       9.245   0.643  24.352  0.00  0.00    -0.266 N 
ATOM      8  C   UNL     1      10.530   1.212  24.294  0.00  0.00    +0.220 C 
ATOM      9  O   UNL     1      11.585   0.742  24.695  0.00  0.00    -0.275 OA
ATOM     10  C   UNL     1      10.408   2.580  23.670  0.00  0.00    +0.098 C 
ATOM     11  C   UNL     1       9.030   2.539  23.034  0.00  0.00    +0.029 C 
ATOM     12  C   UNL     1       8.253   1.611  23.947  0.00  0.00    +0.114 C 
ENDBRANCH   4   7
BRANCH   1  13
ATOM     13  S   UNL     1       8.125  -5.048  25.978  0.00  0.00    +0.056 S 
ATOM     14  O   UNL     1       8.005  -5.082  27.418  0.00  0.00    -0.153 OA
ATOM     15  O   UNL     1       7.117  -5.584  25.096  0.00  0.00    -0.153 OA
BRANCH  13  16
ATOM     16  N   UNL     1       9.557  -5.842  25.621  0.00  0.00    -0.204 NA
ATOM     17  H   UNL     1       9.510  -6.816  25.923  0.00  0.00    +0.144 HD
ATOM     18  H   UNL     1       9.785  -5.728  24.632  0.00  0.00    +0.144 HD
ENDBRANCH  13  16
ENDBRANCH   1  13
BRANCH   3  19
ATOM     19  N   UNL     1       9.691  -1.646  22.443  0.00  0.00    +0.082 N 
ATOM     20  O   UNL     1      10.902  -1.768  22.219  0.00  0.00    +0.042 OA
ATOM     21  O   UNL     1       8.820  -1.410  21.597  0.00  0.00    -0.576 OA
ENDBRANCH   3  19
TORSDOF 4
ENDMDL
MODEL 3
REMARK VINA RESULT:      -6.2      3.403      6.137
REMARK  Name = 
REMARK  4 active torsions:
REMARK  status: ('A' for Active; 'I' for Inactive)
REMARK    1  A    between atoms: N_1  and  S_2
REMARK    2  A    between atoms: S_2  and  C_5
REMARK    3  A    between atoms: C_8  and  N_9
REMARK    4  A    between atoms: C_15  and  N_17
REMARK                            x       y       z     vdW  Elec       q    Type
REMARK                         _______ _______ _______ _____ _____    ______ ____
ROOT
ATOM      1  C   UNL     1       8.959   0.168  23.223  0.00  0.00    +0.112 A 
ATOM      2  C   UNL     1       8.027  -0.248  24.170  0.00  0.00    +0.114 A 
ATOM      3  C   UNL     1       7.420  -1.508  24.020  0.00  0.00    +0.296 A 
ATOM      4  C   UNL     1       7.724  -2.374  22.951  0.00  0.00    +0.114 A 
ATOM      5  C   UNL     1       8.680  -1.908  22.026  0.00  0.00    +0.032 A 
ATOM      6  C   UNL     1       9.297  -0.660  22.157  0.00  0.00    +0.031 A 
ENDROOT
BRANCH   4   7
ATOM      7  N   UNL     1       7.212  -3.691  22.773  0.00  0.00    -0.266 N 
ATOM      8  C   UNL     1       6.146  -4.029  21.922  0.00  0.00    +0.220 C 
ATOM      9  O   UNL     1       5.340  -3.285  21.383  0.00  0.00    -0.275 OA
ATOM     10  C   UNL     1       6.109  -5.532  21.793  0.00  0.00    +0.098 C 
ATOM     11  C   UNL     1       7.474  -5.949  22.313  0.00  0.00    +0.029 C 
ATOM     12  C   UNL     1       7.793  -4.883  23.343  0.00  0.00    +0.114 C 
ENDBRANCH   4   7
BRANCH   1  13
ATOM     13  S   UNL     1       9.688   1.772  23.331  0.00  0.00    +0.056 S 
ATOM     14  O   UNL     1       8.664   2.733  23.669  0.00  0.00    -0.153 OA
ATOM     15  O   UNL     1      10.930   1.665  24.058  0.00  0.00    -0.153 OA
BRANCH  13  16
ATOM     16  N   UNL     1      10.085   2.072  21.730  0.00  0.00    -0.204 NA
ATOM     17  H   UNL     1      10.143   1.197  21.208  0.00  0.00    +0.144 HD
ATOM     18  H   UNL     1       9.436   2.750  21.329  0.00  0.00    +0.144 HD
ENDBRANCH  13  16
ENDBRANCH   1  13
BRANCH   3  19
ATOM     19  N   UNL     1       6.368  -1.808  24.969  0.00  0.00    +0.082 N 
ATOM     20  O   UNL     1       6.709  -2.351  26.027  0.00  0.00    +0.042 OA
ATOM     21  O   UNL     1       5.215  -1.480  24.664  0.00  0.00    -0.576 OA
ENDBRANCH   3  19
TORSDOF 4
ENDMDL
MODEL 4
REMARK VINA RESULT:      -6.2      2.724      5.829
REMARK  Name = 
REMARK  4 active torsions:
REMARK  status: ('A' for Active; 'I' for Inactive)
REMARK    1  A    between atoms: N_1  and  S_2
REMARK    2  A    between atoms: S_2  and  C_5
REMARK    3  A    between atoms: C_8  and  N_9
REMARK    4  A    between atoms: C_15  and  N_17
REMARK                            x       y       z     vdW  Elec       q    Type
REMARK                         _______ _______ _______ _____ _____    ______ ____
ROOT
ATOM      1  C   UNL     1       9.325  -0.750  23.651  0.00  0.00    +0.112 A 
ATOM      2  C   UNL     1       9.692  -1.853  24.420  0.00  0.00    +0.114 A 
ATOM      3  C   UNL     1       8.970  -3.052  24.277  0.00  0.00    +0.296 A 
ATOM      4  C   UNL     1       7.893  -3.187  23.378  0.00  0.00    +0.114 A 
ATOM      5  C   UNL     1       7.570  -2.044  22.619  0.00  0.00    +0.032 A 
ATOM      6  C   UNL     1       8.275  -0.843  22.743  0.00  0.00    +0.031 A 
ENDROOT
BRANCH   4   7
ATOM      7  N   UNL     1       7.167  -4.384  23.121  0.00  0.00    -0.266 N 
ATOM      8  C   UNL     1       6.046  -4.816  23.851  0.00  0.00    +0.220 C 
ATOM      9  O   UNL     1       5.640  -4.406  24.929  0.00  0.00    -0.275 OA
ATOM     10  C   UNL     1       5.402  -5.949  23.092  0.00  0.00    +0.098 C 
ATOM     11  C   UNL     1       6.023  -5.827  21.711  0.00  0.00    +0.029 C 
ATOM     12  C   UNL     1       7.400  -5.263  21.999  0.00  0.00    +0.114 C 
ENDBRANCH   4   7
BRANCH   1  13
ATOM     13  S   UNL     1      10.155   0.795  23.854  0.00  0.00    +0.056 S 
ATOM     14  O   UNL     1      11.404   0.572  24.544  0.00  0.00    -0.153 OA
ATOM     15  O   UNL     1      10.065   1.531  22.617  0.00  0.00    -0.153 OA
BRANCH  13  16
ATOM     16  N   UNL     1       9.158   1.572  24.956  0.00  0.00    -0.204 NA
ATOM     17  H   UNL     1       8.414   2.075  24.470  0.00  0.00    +0.144 HD
ATOM     18  H   UNL     1       8.818   0.907  25.652  0.00  0.00    +0.144 HD
ENDBRANCH  13  16
ENDBRANCH   1  13
BRANCH   3  19
ATOM     19  N   UNL     1       9.326  -4.104  25.205  0.00  0.00    +0.082 N 
ATOM     20  O   UNL     1       8.747  -4.106  26.299  0.00  0.00    +0.042 OA
ATOM     21  O   UNL     1      10.163  -4.935  24.830  0.00  0.00    -0.576 OA
ENDBRANCH   3  19
TORSDOF 4
ENDMDL
MODEL 5
REMARK VINA RESULT:      -6.0      3.379      6.039
REMARK  Name = 
REMARK  4 active torsions:
REMARK  status: ('A' for Active; 'I' for Inactive)
REMARK    1  A    between atoms: N_1  and  S_2
REMARK    2  A    between atoms: S_2  and  C_5
REMARK    3  A    between atoms: C_8  and  N_9
REMARK    4  A    between atoms: C_15  and  N_17
REMARK                            x       y       z     vdW  Elec       q    Type
REMARK                         _______ _______ _______ _____ _____    ______ ____
ROOT
ATOM      1  C   UNL     1       9.071   0.715  23.793  0.00  0.00    +0.112 A 
ATOM      2  C   UNL     1       8.270  -0.111  23.008  0.00  0.00    +0.114 A 
ATOM      3  C   UNL     1       7.941  -1.393  23.486  0.00  0.00    +0.296 A 
ATOM      4  C   UNL     1       8.383  -1.874  24.735  0.00  0.00    +0.114 A 
ATOM      5  C   UNL     1       9.183  -0.994  25.492  0.00  0.00    +0.032 A 
ATOM      6  C   UNL     1       9.520   0.285  25.038  0.00  0.00    +0.031 A 
ENDROOT
BRANCH   4   7
ATOM      7  N   UNL     1       8.030  -3.123  25.320  0.00  0.00    -0.266 N 
ATOM      8  C   UNL     1       8.853  -4.262  25.337  0.00  0.00    +0.220 C 
ATOM      9  O   UNL     1       9.868  -4.473  24.690  0.00  0.00    -0.275 OA
ATOM     10  C   UNL     1       8.248  -5.262  26.291  0.00  0.00    +0.098 C 
ATOM     11  C   UNL     1       7.263  -4.419  27.083  0.00  0.00    +0.029 C 
ATOM     12  C   UNL     1       6.830  -3.363  26.086  0.00  0.00    +0.114 C 
ENDBRANCH   4   7
BRANCH   1  13
ATOM     13  S   UNL     1       9.570   2.301  23.199  0.00  0.00    +0.056 S 
ATOM     14  O   UNL     1       8.461   3.219  23.316  0.00  0.00    -0.153 OA
ATOM     15  O   UNL     1      10.885   2.593  23.716  0.00  0.00    -0.153 OA
BRANCH  13  16
ATOM     16  N   UNL     1       9.747   2.007  21.558  0.00  0.00    -0.204 NA
ATOM     17  H   UNL     1       9.816   2.886  21.043  0.00  0.00    +0.144 HD
ATOM     18  H   UNL     1      10.531   1.373  21.397  0.00  0.00    +0.144 HD
ENDBRANCH  13  16
ENDBRANCH   1  13
BRANCH   3  19
ATOM     19  N   UNL     1       7.220  -2.236  22.556  0.00  0.00    +0.082 N 
ATOM     20  O   UNL     1       7.895  -3.009  21.863  0.00  0.00    +0.042 OA
ATOM     21  O   UNL     1       5.987  -2.138  22.536  0.00  0.00    -0.576 OA
ENDBRANCH   3  19
TORSDOF 4
ENDMDL
MODEL 6
REMARK VINA RESULT:      -5.8      2.375      3.202
REMARK  Name = 
REMARK  4 active torsions:
REMARK  status: ('A' for Active; 'I' for Inactive)
REMARK    1  A    between atoms: N_1  and  S_2
REMARK    2  A    between atoms: S_2  and  C_5
REMARK    3  A    between atoms: C_8  and  N_9
REMARK    4  A    between atoms: C_15  and  N_17
REMARK                            x       y       z     vdW  Elec       q    Type
REMARK                         _______ _______ _______ _____ _____    ______ ____
ROOT
ATOM      1  C   UNL     1       6.602  -3.257  22.963  0.00  0.00    +0.112 A 
ATOM      2  C   UNL     1       7.826  -2.889  22.408  0.00  0.00    +0.114 A 
ATOM      3  C   UNL     1       8.303  -1.582  22.620  0.00  0.00    +0.296 A 
ATOM      4  C   UNL     1       7.596  -0.631  23.381  0.00  0.00    +0.114 A 
ATOM      5  C   UNL     1       6.369  -1.058  23.927  0.00  0.00    +0.032 A 
ATOM      6  C   UNL     1       5.876  -2.352  23.731  0.00  0.00    +0.031 A 
ENDROOT
BRANCH   4   7
ATOM      7  N   UNL     1       8.047   0.680  23.705  0.00  0.00    -0.266 N 
ATOM      8  C   UNL     1       9.126   0.970  24.559  0.00  0.00    +0.220 C 
ATOM      9  O   UNL     1       9.703   0.220  25.332  0.00  0.00    -0.275 OA
ATOM     10  C   UNL     1       9.463   2.433  24.406  0.00  0.00    +0.098 C 
ATOM     11  C   UNL     1       8.751   2.811  23.119  0.00  0.00    +0.029 C 
ATOM     12  C   UNL     1       7.543   1.895  23.109  0.00  0.00    +0.114 C 
ENDBRANCH   4   7
BRANCH   1  13
ATOM     13  S   UNL     1       5.930  -4.862  22.659  0.00  0.00    +0.056 S 
ATOM     14  O   UNL     1       6.212  -5.238  21.292  0.00  0.00    -0.153 OA
ATOM     15  O   UNL     1       6.238  -5.711  23.784  0.00  0.00    -0.153 OA
BRANCH  13  16
ATOM     16  N   UNL     1       4.283  -4.555  22.717  0.00  0.00    -0.204 NA
ATOM     17  H   UNL     1       4.027  -3.850  22.023  0.00  0.00    +0.144 HD
ATOM     18  H   UNL     1       3.760  -5.427  22.630  0.00  0.00    +0.144 HD
ENDBRANCH  13  16
ENDBRANCH   1  13
BRANCH   3  19
ATOM     19  N   UNL     1       9.511  -1.239  21.901  0.00  0.00    +0.082 N 
ATOM     20  O   UNL     1       9.404  -0.402  20.995  0.00  0.00    +0.042 OA
ATOM     21  O   UNL     1      10.562  -1.788  22.256  0.00  0.00    -0.576 OA
ENDBRANCH   3  19
TORSDOF 4
ENDMDL
MODEL 7
REMARK VINA RESULT:      -5.8      2.824      5.703
REMARK  Name = 
REMARK  4 active torsions:
REMARK  status: ('A' for Active; 'I' for Inactive)
REMARK    1  A    between atoms: N_1  and  S_2
REMARK    2  A    between atoms: S_2  and  C_5
REMARK    3  A    between atoms: C_8  and  N_9
REMARK    4  A    between atoms: C_15  and  N_17
REMARK                            x       y       z     vdW  Elec       q    Type
REMARK                         _______ _______ _______ _____ _____    ______ ____
ROOT
ATOM      1  C   UNL     1       9.098  -0.485  23.883  0.00  0.00    +0.112 A 
ATOM      2  C   UNL     1       9.535  -1.664  24.483  0.00  0.00    +0.114 A 
ATOM      3  C   UNL     1       8.678  -2.780  24.495  0.00  0.00    +0.296 A 
ATOM      4  C   UNL     1       7.395  -2.757  23.913  0.00  0.00    +0.114 A 
ATOM      5  C   UNL     1       7.006  -1.542  23.312  0.00  0.00    +0.032 A 
ATOM      6  C   UNL     1       7.842  -0.422  23.288  0.00  0.00    +0.031 A 
ENDROOT
BRANCH   4   7
ATOM      7  N   UNL     1       6.503  -3.863  23.816  0.00  0.00    -0.266 N 
ATOM      8  C   UNL     1       6.575  -4.868  22.835  0.00  0.00    +0.220 C 
ATOM      9  O   UNL     1       7.221  -4.869  21.798  0.00  0.00    -0.275 OA
ATOM     10  C   UNL     1       5.657  -5.991  23.249  0.00  0.00    +0.098 C 
ATOM     11  C   UNL     1       5.396  -5.691  24.715  0.00  0.00    +0.029 C 
ATOM     12  C   UNL     1       5.476  -4.179  24.779  0.00  0.00    +0.114 C 
ENDBRANCH   4   7
BRANCH   1  13
ATOM     13  S   UNL     1      10.111   0.961  23.914  0.00  0.00    +0.056 S 
ATOM     14  O   UNL     1      11.319   0.674  24.652  0.00  0.00    -0.153 OA
ATOM     15  O   UNL     1      10.120   1.544  22.594  0.00  0.00    -0.153 OA
BRANCH  13  16
ATOM     16  N   UNL     1       9.210   1.983  24.891  0.00  0.00    -0.204 NA
ATOM     17  H   UNL     1       8.862   1.479  25.709  0.00  0.00    +0.144 HD
ATOM     18  H   UNL     1       9.752   2.817  25.121  0.00  0.00    +0.144 HD
ENDBRANCH  13  16
ENDBRANCH   1  13
BRANCH   3  19
ATOM     19  N   UNL     1       9.152  -3.919  25.252  0.00  0.00    +0.082 N 
ATOM     20  O   UNL     1       8.819  -3.977  26.442  0.00  0.00    +0.042 OA
ATOM     21  O   UNL     1       9.835  -4.758  24.652  0.00  0.00    -0.576 OA
ENDBRANCH   3  19
TORSDOF 4
ENDMDL
MODEL 8
REMARK VINA RESULT:      -5.7      2.332      2.850
REMARK  Name = 
REMARK  4 active torsions:
REMARK  status: ('A' for Active; 'I' for Inactive)
REMARK    1  A    between atoms: N_1  and  S_2
REMARK    2  A    between atoms: S_2  and  C_5
REMARK    3  A    between atoms: C_8  and  N_9
REMARK    4  A    between atoms: C_15  and  N_17
REMARK                            x       y       z     vdW  Elec       q    Type
REMARK                         _______ _______ _______ _____ _____    ______ ____
ROOT
ATOM      1  C   UNL     1       5.940  -3.697  23.060  0.00  0.00    +0.112 A 
ATOM      2  C   UNL     1       5.607  -2.663  23.932  0.00  0.00    +0.114 A 
ATOM      3  C   UNL     1       6.430  -1.522  23.980  0.00  0.00    +0.296 A 
ATOM      4  C   UNL     1       7.576  -1.378  23.174  0.00  0.00    +0.114 A 
ATOM      5  C   UNL     1       7.863  -2.450  22.304  0.00  0.00    +0.032 A 
ATOM      6  C   UNL     1       7.058  -3.592  22.237  0.00  0.00    +0.031 A 
ENDROOT
BRANCH   4   7
ATOM      7  N   UNL     1       8.412  -0.227  23.109  0.00  0.00    -0.266 N 
ATOM      8  C   UNL     1       9.516   0.011  23.946  0.00  0.00    +0.220 C 
ATOM      9  O   UNL     1       9.818  -0.561  24.983  0.00  0.00    -0.275 OA
ATOM     10  C   UNL     1      10.296   1.168  23.372  0.00  0.00    +0.098 C 
ATOM     11  C   UNL     1       9.755   1.271  21.956  0.00  0.00    +0.029 C 
ATOM     12  C   UNL     1       8.321   0.799  22.098  0.00  0.00    +0.114 C 
ENDBRANCH   4   7
BRANCH   1  13
ATOM     13  S   UNL     1       4.979  -5.177  23.022  0.00  0.00    +0.056 S 
ATOM     14  O   UNL     1       5.458  -6.075  24.047  0.00  0.00    -0.153 OA
ATOM     15  O   UNL     1       3.589  -4.820  22.881  0.00  0.00    -0.153 OA
BRANCH  13  16
ATOM     16  N   UNL     1       5.458  -5.854  21.564  0.00  0.00    -0.204 NA
ATOM     17  H   UNL     1       6.323  -5.421  21.238  0.00  0.00    +0.144 HD
ATOM     18  H   UNL     1       5.512  -6.870  21.649  0.00  0.00    +0.144 HD
ENDBRANCH  13  16
ENDBRANCH   1  13
BRANCH   3  19
ATOM     19  N   UNL     1       6.091  -0.556  25.004  0.00  0.00    +0.082 N 
ATOM     20  O   UNL     1       5.364   0.386  24.665  0.00  0.00    +0.042 OA
ATOM     21  O   UNL     1       6.533  -0.754  26.143  0.00  0.00    -0.576 OA
ENDBRANCH   3  19
TORSDOF 4
ENDMDL
MODEL 9
REMARK VINA RESULT:      -5.7      2.485      3.419
REMARK  Name = 
REMARK  4 active torsions:
REMARK  status: ('A' for Active; 'I' for Inactive)
REMARK    1  A    between atoms: N_1  and  S_2
REMARK    2  A    between atoms: S_2  and  C_5
REMARK    3  A    between atoms: C_8  and  N_9
REMARK    4  A    between atoms: C_15  and  N_17
REMARK                            x       y       z     vdW  Elec       q    Type
REMARK                         _______ _______ _______ _____ _____    ______ ____
ROOT
ATOM      1  C   UNL     1       5.703  -5.286  25.953  0.00  0.00    +0.112 A 
ATOM      2  C   UNL     1       5.739  -5.372  24.563  0.00  0.00    +0.114 A 
ATOM      3  C   UNL     1       6.510  -4.440  23.844  0.00  0.00    +0.296 A 
ATOM      4  C   UNL     1       7.257  -3.426  24.475  0.00  0.00    +0.114 A 
ATOM      5  C   UNL     1       7.192  -3.390  25.882  0.00  0.00    +0.032 A 
ATOM      6  C   UNL     1       6.434  -4.307  26.617  0.00  0.00    +0.031 A 
ENDROOT
BRANCH   4   7
ATOM      7  N   UNL     1       8.120  -2.498  23.824  0.00  0.00    -0.266 N 
ATOM      8  C   UNL     1       9.501  -2.680  23.640  0.00  0.00    +0.220 C 
ATOM      9  O   UNL     1      10.236  -3.499  24.172  0.00  0.00    -0.275 OA
ATOM     10  C   UNL     1       9.985  -1.634  22.666  0.00  0.00    +0.098 C 
ATOM     11  C   UNL     1       8.695  -1.135  22.038  0.00  0.00    +0.029 C 
ATOM     12  C   UNL     1       7.681  -1.297  23.154  0.00  0.00    +0.114 C 
ENDBRANCH   4   7
BRANCH   1  13
ATOM     13  S   UNL     1       4.689  -6.387  26.889  0.00  0.00    +0.056 S 
ATOM     14  O   UNL     1       5.528  -7.173  27.763  0.00  0.00    -0.153 OA
ATOM     15  O   UNL     1       3.533  -5.661  27.358  0.00  0.00    -0.153 OA
BRANCH  13  16
ATOM     16  N   UNL     1       4.151  -7.443  25.703  0.00  0.00    -0.204 NA
ATOM     17  H   UNL     1       4.318  -7.051  24.775  0.00  0.00    +0.144 HD
ATOM     18  H   UNL     1       4.565  -8.366  25.840  0.00  0.00    +0.144 HD
ENDBRANCH  13  16
ENDBRANCH   1  13
BRANCH   3  19
ATOM     19  N   UNL     1       6.388  -4.514  22.403  0.00  0.00    +0.082 N 
ATOM     20  O   UNL     1       5.443  -3.902  21.890  0.00  0.00    +0.042 OA
ATOM     21  O   UNL     1       7.246  -5.162  21.791  0.00  0.00    -0.576 OA
ENDBRANCH   3  19
TORSDOF 4
ENDMDL
