MODEL 1
REMARK VINA RESULT:      -7.0      0.000      0.000
REMARK  Name = 
REMARK  6 active torsions:
REMARK  status: ('A' for Active; 'I' for Inactive)
REMARK    1  A    between atoms: N_1  and  S_2
REMARK    2  A    between atoms: S_2  and  C_5
REMARK    3  A    between atoms: C_8  and  N_9
REMARK    4  A    between atoms: C_12  and  O_13
REMARK    5  A    between atoms: O_13  and  C_14
REMARK    6  A    between atoms: C_14  and  C_15
REMARK                            x       y       z     vdW  Elec       q    Type
REMARK                         _______ _______ _______ _____ _____    ______ ____
ROOT
ATOM      1  N   UNL     1       9.221  -3.272  24.864  0.00  0.00    -0.283 N 
ATOM      2  H   UNL     1       9.726  -3.542  25.697  0.00  0.00    +0.155 HD
ATOM      3  C   UNL     1       8.032  -4.000  24.776  0.00  0.00    +0.225 A 
ATOM      4  N   UNL     1       7.273  -3.823  23.677  0.00  0.00    -0.195 NA
ATOM      5  C   UNL     1       6.155  -4.545  23.696  0.00  0.00    +0.167 A 
ATOM      6  C   UNL     1       5.723  -5.409  24.681  0.00  0.00    +0.169 A 
ATOM      7  N   UNL     1       4.498  -5.947  24.341  0.00  0.00    -0.229 NA
ATOM      8  C   UNL     1       4.205  -5.413  23.172  0.00  0.00    +0.199 A 
ATOM      9  C   UNL     1       6.576  -5.529  25.780  0.00  0.00    +0.248 A 
ATOM     10  N   UNL     1       5.188  -4.567  22.738  0.00  0.00    -0.329 N 
ATOM     11  H   UNL     1       5.204  -4.032  21.882  0.00  0.00    +0.168 HD
ATOM     12  N   UNL     1       7.745  -4.831  25.807  0.00  0.00    -0.177 NA
ENDROOT
BRANCH   1  16
ATOM     13  C   UNL     1       9.789   0.731  23.673  0.00  0.00    +0.105 A 
ATOM     14  C   UNL     1       9.315   0.434  24.953  0.00  0.00    +0.030 A 
ATOM     15  C   UNL     1       9.135  -0.897  25.334  0.00  0.00    +0.025 A 
ATOM     16  C   UNL     1       9.440  -1.943  24.452  0.00  0.00    +0.034 A 
ATOM     17  C   UNL     1       9.976  -1.617  23.194  0.00  0.00    +0.025 A 
ATOM     18  C   UNL     1      10.149  -0.288  22.797  0.00  0.00    +0.030 A 
BRANCH  13  19
ATOM     19  S   UNL     1       9.912   2.420  23.174  0.00  0.00    +0.056 S 
ATOM     20  O   UNL     1       8.641   3.073  23.378  0.00  0.00    -0.153 OA
ATOM     21  O   UNL     1      11.158   2.972  23.654  0.00  0.00    -0.153 OA
BRANCH  19  22
ATOM     22  N   UNL     1      10.086   2.252  21.512  0.00  0.00    -0.204 NA
ATOM     23  H   UNL     1      10.173   3.164  21.066  0.00  0.00    +0.144 HD
ATOM     24  H   UNL     1      10.853   1.610  21.308  0.00  0.00    +0.144 HD
ENDBRANCH  19  22
ENDBRANCH  13  19
ENDBRANCH   1  16
BRANCH   9  25
ATOM     25  O   UNL     1       6.263  -6.399  26.805  0.00  0.00    -0.475 OA
BRANCH  25  26
ATOM     26  C   UNL     1       6.266  -5.765  28.085  0.00  0.00    +0.234 C 
BRANCH  26  27
ATOM     27  C   UNL     1       5.110  -6.347  28.931  0.00  0.00    +0.027 C 
ATOM     28  C   UNL     1       3.800  -6.434  28.130  0.00  0.00    +0.007 C 
ATOM     29  C   UNL     1       3.173  -5.064  27.868  0.00  0.00    +0.000 C 
ATOM     30  C   UNL     1       2.994  -4.258  29.153  0.00  0.00    +0.000 C 
ATOM     31  C   UNL     1       4.279  -4.178  29.974  0.00  0.00    +0.000 C 
ATOM     32  C   UNL     1       4.867  -5.563  30.233  0.00  0.00    +0.007 C 
ENDBRANCH  26  27
ENDBRANCH  25  26
ENDBRANCH   9  25
TORSDOF 6
ENDMDL
MODEL 2
REMARK VINA RESULT:      -7.0      1.728      2.416
REMARK  Name = 
REMARK  6 active torsions:
REMARK  status: ('A' for Active; 'I' for Inactive)
REMARK    1  A    between atoms: N_1  and  S_2
REMARK    2  A    between atoms: S_2  and  C_5
REMARK    3  A    between atoms: C_8  and  N_9
REMARK    4  A    between atoms: C_12  and  O_13
REMARK    5  A    between atoms: O_13  and  C_14
REMARK    6  A    between atoms: C_14  and  C_15
REMARK                            x       y       z     vdW  Elec       q    Type
REMARK                         _______ _______ _______ _____ _____    ______ ____
ROOT
ATOM      1  N   UNL     1       9.859  -1.490  24.900  0.00  0.00    -0.283 N 
ATOM      2  H   UNL     1      10.307  -1.722  25.776  0.00  0.00    +0.155 HD
ATOM      3  C   UNL     1       9.010  -2.531  24.515  0.00  0.00    +0.225 A 
ATOM      4  N   UNL     1       8.394  -2.423  23.321  0.00  0.00    -0.195 NA
ATOM      5  C   UNL     1       7.594  -3.452  23.054  0.00  0.00    +0.167 A 
ATOM      6  C   UNL     1       7.348  -4.558  23.841  0.00  0.00    +0.169 A 
ATOM      7  N   UNL     1       6.436  -5.389  23.223  0.00  0.00    -0.229 NA
ATOM      8  C   UNL     1       6.143  -4.789  22.087  0.00  0.00    +0.199 A 
ATOM      9  C   UNL     1       8.032  -4.584  25.057  0.00  0.00    +0.248 A 
ATOM     10  N   UNL     1       6.832  -3.618  21.938  0.00  0.00    -0.329 N 
ATOM     11  H   UNL     1       6.784  -2.972  21.164  0.00  0.00    +0.168 HD
ATOM     12  N   UNL     1       8.882  -3.568  25.377  0.00  0.00    -0.177 NA
ENDROOT
BRANCH   1  16
ATOM     13  C   UNL     1       9.397   2.651  24.272  0.00  0.00    +0.105 A 
ATOM     14  C   UNL     1      10.474   1.966  23.705  0.00  0.00    +0.030 A 
ATOM     15  C   UNL     1      10.612   0.593  23.920  0.00  0.00    +0.025 A 
ATOM     16  C   UNL     1       9.672  -0.111  24.685  0.00  0.00    +0.034 A 
ATOM     17  C   UNL     1       8.563   0.591  25.188  0.00  0.00    +0.025 A 
ATOM     18  C   UNL     1       8.422   1.967  24.991  0.00  0.00    +0.030 A 
BRANCH  13  19
ATOM     19  S   UNL     1       9.297   4.403  24.076  0.00  0.00    +0.056 S 
ATOM     20  O   UNL     1       8.521   4.962  25.156  0.00  0.00    -0.153 OA
ATOM     21  O   UNL     1      10.593   4.919  23.698  0.00  0.00    -0.153 OA
BRANCH  19  22
ATOM     22  N   UNL     1       8.333   4.518  22.704  0.00  0.00    -0.204 NA
ATOM     23  H   UNL     1       7.473   3.985  22.824  0.00  0.00    +0.144 HD
ATOM     24  H   UNL     1       8.190   5.499  22.464  0.00  0.00    +0.144 HD
ENDBRANCH  19  22
ENDBRANCH  13  19
ENDBRANCH   1  16
BRANCH   9  25
ATOM     25  O   UNL     1       7.893  -5.665  25.904  0.00  0.00    -0.475 OA
BRANCH  25  26
ATOM     26  C   UNL     1       7.318  -5.308  27.163  0.00  0.00    +0.234 C 
BRANCH  26  27
ATOM     27  C   UNL     1       5.798  -5.095  26.973  0.00  0.00    +0.027 C 
ATOM     28  C   UNL     1       5.202  -4.203  28.074  0.00  0.00    +0.007 C 
ATOM     29  C   UNL     1       5.128  -4.905  29.431  0.00  0.00    +0.000 C 
ATOM     30  C   UNL     1       4.408  -6.249  29.344  0.00  0.00    +0.000 C 
ATOM     31  C   UNL     1       4.972  -7.142  28.242  0.00  0.00    +0.000 C 
ATOM     32  C   UNL     1       5.014  -6.418  26.899  0.00  0.00    +0.007 C 
ENDBRANCH  26  27
ENDBRANCH  25  26
ENDBRANCH   9  25
TORSDOF 6
ENDMDL
MODEL 3
REMARK VINA RESULT:      -6.8      3.803      8.840
REMARK  Name = 
REMARK  6 active torsions:
REMARK  status: ('A' for Active; 'I' for Inactive)
REMARK    1  A    between atoms: N_1  and  S_2
REMARK    2  A    between atoms: S_2  and  C_5
REMARK    3  A    between atoms: C_8  and  N_9
REMARK    4  A    between atoms: C_12  and  O_13
REMARK    5  A    between atoms: O_13  and  C_14
REMARK    6  A    between atoms: C_14  and  C_15
REMARK                            x       y       z     vdW  Elec       q    Type
REMARK                         _______ _______ _______ _____ _____    ______ ____
ROOT
ATOM      1  N   UNL     1       7.068  -5.010  25.176  0.00  0.00    -0.283 N 
ATOM      2  H   UNL     1       7.819  -5.319  24.574  0.00  0.00    +0.155 HD
ATOM      3  C   UNL     1       7.265  -3.673  25.528  0.00  0.00    +0.225 A 
ATOM      4  N   UNL     1       6.397  -3.123  26.399  0.00  0.00    -0.195 NA
ATOM      5  C   UNL     1       6.658  -1.844  26.656  0.00  0.00    +0.167 A 
ATOM      6  C   UNL     1       7.676  -1.069  26.142  0.00  0.00    +0.169 A 
ATOM      7  N   UNL     1       7.592   0.218  26.633  0.00  0.00    -0.229 NA
ATOM      8  C   UNL     1       6.540   0.210  27.428  0.00  0.00    +0.199 A 
ATOM      9  C   UNL     1       8.527  -1.724  25.250  0.00  0.00    +0.248 A 
ATOM     10  N   UNL     1       5.951  -1.023  27.481  0.00  0.00    -0.329 N 
ATOM     11  H   UNL     1       5.134  -1.290  28.008  0.00  0.00    +0.168 HD
ATOM     12  N   UNL     1       8.323  -3.041  24.964  0.00  0.00    -0.177 NA
ENDROOT
BRANCH   1  16
ATOM     13  C   UNL     1       3.426  -7.048  24.585  0.00  0.00    +0.105 A 
ATOM     14  C   UNL     1       4.063  -7.083  25.828  0.00  0.00    +0.030 A 
ATOM     15  C   UNL     1       5.268  -6.400  26.009  0.00  0.00    +0.025 A 
ATOM     16  C   UNL     1       5.839  -5.664  24.962  0.00  0.00    +0.034 A 
ATOM     17  C   UNL     1       5.144  -5.593  23.742  0.00  0.00    +0.025 A 
ATOM     18  C   UNL     1       3.945  -6.283  23.545  0.00  0.00    +0.030 A 
BRANCH  13  19
ATOM     19  S   UNL     1       1.960  -8.001  24.346  0.00  0.00    +0.056 S 
ATOM     20  O   UNL     1       2.183  -9.349  24.809  0.00  0.00    -0.153 OA
ATOM     21  O   UNL     1       0.810  -7.220  24.743  0.00  0.00    -0.153 OA
BRANCH  19  22
ATOM     22  N   UNL     1       1.905  -8.089  22.669  0.00  0.00    -0.204 NA
ATOM     23  H   UNL     1       1.028  -7.708  22.318  0.00  0.00    +0.144 HD
ATOM     24  H   UNL     1       2.740  -7.657  22.272  0.00  0.00    +0.144 HD
ENDBRANCH  19  22
ENDBRANCH  13  19
ENDBRANCH   1  16
BRANCH   9  25
ATOM     25  O   UNL     1       9.606  -1.056  24.708  0.00  0.00    -0.475 OA
BRANCH  25  26
ATOM     26  C   UNL     1       9.340  -0.553  23.397  0.00  0.00    +0.234 C 
BRANCH  26  27
ATOM     27  C   UNL     1      10.304   0.622  23.110  0.00  0.00    +0.027 C 
ATOM     28  C   UNL     1      10.378   1.605  24.290  0.00  0.00    +0.007 C 
ATOM     29  C   UNL     1       9.105   2.438  24.449  0.00  0.00    +0.000 C 
ATOM     30  C   UNL     1       8.714   3.143  23.152  0.00  0.00    +0.000 C 
ATOM     31  C   UNL     1       8.657   2.188  21.963  0.00  0.00    +0.000 C 
ATOM     32  C   UNL     1       9.949   1.386  21.823  0.00  0.00    +0.007 C 
ENDBRANCH  26  27
ENDBRANCH  25  26
ENDBRANCH   9  25
TORSDOF 6
ENDMDL
MODEL 4
REMARK VINA RESULT:      -6.7      3.838      9.084
REMARK  Name = 
REMARK  6 active torsions:
REMARK  status: ('A' for Active; 'I' for Inactive)
REMARK    1  A    between atoms: N_1  and  S_2
REMARK    2  A    between atoms: S_2  and  C_5
REMARK    3  A    between atoms: C_8  and  N_9
REMARK    4  A    between atoms: C_12  and  O_13
REMARK    5  A    between atoms: O_13  and  C_14
REMARK    6  A    between atoms: C_14  and  C_15
REMARK                            x       y       z     vdW  Elec       q    Type
REMARK                         _______ _______ _______ _____ _____    ______ ____
ROOT
ATOM      1  N   UNL     1       6.550  -4.778  23.106  0.00  0.00    -0.283 N 
ATOM      2  H   UNL     1       6.534  -4.706  22.097  0.00  0.00    +0.155 HD
ATOM      3  C   UNL     1       7.170  -3.651  23.650  0.00  0.00    +0.225 A 
ATOM      4  N   UNL     1       7.351  -3.622  24.984  0.00  0.00    -0.195 NA
ATOM      5  C   UNL     1       7.932  -2.502  25.406  0.00  0.00    +0.167 A 
ATOM      6  C   UNL     1       8.341  -1.424  24.648  0.00  0.00    +0.169 A 
ATOM      7  N   UNL     1       8.874  -0.444  25.461  0.00  0.00    -0.229 NA
ATOM      8  C   UNL     1       8.784  -0.929  26.683  0.00  0.00    +0.199 A 
ATOM      9  C   UNL     1       8.115  -1.545  23.276  0.00  0.00    +0.248 A 
ATOM     10  N   UNL     1       8.230  -2.179  26.695  0.00  0.00    -0.329 N 
ATOM     11  H   UNL     1       8.048  -2.762  27.498  0.00  0.00    +0.168 HD
ATOM     12  N   UNL     1       7.543  -2.679  22.783  0.00  0.00    -0.177 NA
ENDROOT
BRANCH   1  16
ATOM     13  C   UNL     1       3.295  -6.910  24.725  0.00  0.00    +0.105 A 
ATOM     14  C   UNL     1       3.188  -6.300  23.473  0.00  0.00    +0.030 A 
ATOM     15  C   UNL     1       4.277  -5.599  22.949  0.00  0.00    +0.025 A 
ATOM     16  C   UNL     1       5.483  -5.515  23.657  0.00  0.00    +0.034 A 
ATOM     17  C   UNL     1       5.584  -6.194  24.884  0.00  0.00    +0.025 A 
ATOM     18  C   UNL     1       4.498  -6.886  25.425  0.00  0.00    +0.030 A 
BRANCH  13  19
ATOM     19  S   UNL     1       1.877  -7.702  25.417  0.00  0.00    +0.056 S 
ATOM     20  O   UNL     1       1.846  -7.471  26.841  0.00  0.00    -0.153 OA
ATOM     21  O   UNL     1       0.733  -7.469  24.564  0.00  0.00    -0.153 OA
BRANCH  19  22
ATOM     22  N   UNL     1       2.284  -9.320  25.218  0.00  0.00    -0.204 NA
ATOM     23  H   UNL     1       1.922  -9.675  24.334  0.00  0.00    +0.144 HD
ATOM     24  H   UNL     1       3.290  -9.441  25.339  0.00  0.00    +0.144 HD
ENDBRANCH  19  22
ENDBRANCH  13  19
ENDBRANCH   1  16
BRANCH   9  25
ATOM     25  O   UNL     1       8.524  -0.544  22.418  0.00  0.00    -0.475 OA
BRANCH  25  26
ATOM     26  C   UNL     1       7.697   0.618  22.493  0.00  0.00    +0.234 C 
BRANCH  26  27
ATOM     27  C   UNL     1       8.405   1.781  21.759  0.00  0.00    +0.027 C 
ATOM     28  C   UNL     1       9.924   1.769  21.998  0.00  0.00    +0.007 C 
ATOM     29  C   UNL     1      10.304   2.183  23.420  0.00  0.00    +0.000 C 
ATOM     30  C   UNL     1       9.682   3.521  23.816  0.00  0.00    +0.000 C 
ATOM     31  C   UNL     1       8.177   3.560  23.566  0.00  0.00    +0.000 C 
ATOM     32  C   UNL     1       7.834   3.160  22.134  0.00  0.00    +0.007 C 
ENDBRANCH  26  27
ENDBRANCH  25  26
ENDBRANCH   9  25
TORSDOF 6
ENDMDL
MODEL 5
REMARK VINA RESULT:      -6.6      3.966      9.064
REMARK  Name = 
REMARK  6 active torsions:
REMARK  status: ('A' for Active; 'I' for Inactive)
REMARK    1  A    between atoms: N_1  and  S_2
REMARK    2  A    between atoms: S_2  and  C_5
REMARK    3  A    between atoms: C_8  and  N_9
REMARK    4  A    between atoms: C_12  and  O_13
REMARK    5  A    between atoms: O_13  and  C_14
REMARK    6  A    between atoms: C_14  and  C_15
REMARK                            x       y       z     vdW  Elec       q    Type
REMARK                         _______ _______ _______ _____ _____    ______ ____
ROOT
ATOM      1  N   UNL     1       6.580  -1.986  23.061  0.00  0.00    -0.283 N 
ATOM      2  H   UNL     1       5.756  -1.769  22.517  0.00  0.00    +0.155 HD
ATOM      3  C   UNL     1       7.436  -0.882  23.081  0.00  0.00    +0.225 A 
ATOM      4  N   UNL     1       8.626  -1.028  23.695  0.00  0.00    -0.195 NA
ATOM      5  C   UNL     1       9.360   0.082  23.677  0.00  0.00    +0.167 A 
ATOM      6  C   UNL     1       9.035   1.301  23.120  0.00  0.00    +0.169 A 
ATOM      7  N   UNL     1      10.052   2.210  23.334  0.00  0.00    -0.229 NA
ATOM      8  C   UNL     1      10.968   1.543  24.008  0.00  0.00    +0.199 A 
ATOM      9  C   UNL     1       7.784   1.357  22.504  0.00  0.00    +0.248 A 
ATOM     10  N   UNL     1      10.595   0.246  24.226  0.00  0.00    -0.329 N 
ATOM     11  H   UNL     1      11.113  -0.467  24.718  0.00  0.00    +0.168 HD
ATOM     12  N   UNL     1       6.996   0.245  22.472  0.00  0.00    -0.177 NA
ENDROOT
BRANCH   1  16
ATOM     13  C   UNL     1       5.975  -4.717  26.213  0.00  0.00    +0.105 A 
ATOM     14  C   UNL     1       5.452  -3.423  26.288  0.00  0.00    +0.030 A 
ATOM     15  C   UNL     1       5.659  -2.531  25.233  0.00  0.00    +0.025 A 
ATOM     16  C   UNL     1       6.371  -2.923  24.092  0.00  0.00    +0.034 A 
ATOM     17  C   UNL     1       6.829  -4.249  24.016  0.00  0.00    +0.025 A 
ATOM     18  C   UNL     1       6.640  -5.147  25.069  0.00  0.00    +0.030 A 
BRANCH  13  19
ATOM     19  S   UNL     1       5.792  -5.796  27.598  0.00  0.00    +0.056 S 
ATOM     20  O   UNL     1       5.287  -5.049  28.725  0.00  0.00    -0.153 OA
ATOM     21  O   UNL     1       5.203  -7.041  27.161  0.00  0.00    -0.153 OA
BRANCH  19  22
ATOM     22  N   UNL     1       7.398  -6.140  27.951  0.00  0.00    -0.204 NA
ATOM     23  H   UNL     1       7.608  -5.915  28.922  0.00  0.00    +0.144 HD
ATOM     24  H   UNL     1       7.612  -7.102  27.687  0.00  0.00    +0.144 HD
ENDBRANCH  19  22
ENDBRANCH  13  19
ENDBRANCH   1  16
BRANCH   9  25
ATOM     25  O   UNL     1       7.374   2.516  21.876  0.00  0.00    -0.475 OA
BRANCH  25  26
ATOM     26  C   UNL     1       6.220   3.094  22.487  0.00  0.00    +0.234 C 
BRANCH  26  27
ATOM     27  C   UNL     1       6.679   4.154  23.515  0.00  0.00    +0.027 C 
ATOM     28  C   UNL     1       5.503   5.003  24.027  0.00  0.00    +0.007 C 
ATOM     29  C   UNL     1       4.972   5.977  22.975  0.00  0.00    +0.000 C 
ATOM     30  C   UNL     1       6.080   6.847  22.385  0.00  0.00    +0.000 C 
ATOM     31  C   UNL     1       7.266   6.024  21.890  0.00  0.00    +0.000 C 
ATOM     32  C   UNL     1       7.783   5.077  22.970  0.00  0.00    +0.007 C 
ENDBRANCH  26  27
ENDBRANCH  25  26
ENDBRANCH   9  25
TORSDOF 6
ENDMDL
MODEL 6
REMARK VINA RESULT:      -6.6      4.004      9.305
REMARK  Name = 
REMARK  6 active torsions:
REMARK  status: ('A' for Active; 'I' for Inactive)
REMARK    1  A    between atoms: N_1  and  S_2
REMARK    2  A    between atoms: S_2  and  C_5
REMARK    3  A    between atoms: C_8  and  N_9
REMARK    4  A    between atoms: C_12  and  O_13
REMARK    5  A    between atoms: O_13  and  C_14
REMARK    6  A    between atoms: C_14  and  C_15
REMARK                            x       y       z     vdW  Elec       q    Type
REMARK                         _______ _______ _______ _____ _____    ______ ____
ROOT
ATOM      1  N   UNL     1       6.251  -1.608  22.631  0.00  0.00    -0.283 N 
ATOM      2  H   UNL     1       5.483  -1.147  22.162  0.00  0.00    +0.155 HD
ATOM      3  C   UNL     1       7.242  -0.675  22.944  0.00  0.00    +0.225 A 
ATOM      4  N   UNL     1       8.379  -1.136  23.501  0.00  0.00    -0.195 NA
ATOM      5  C   UNL     1       9.251  -0.170  23.779  0.00  0.00    +0.167 A 
ATOM      6  C   UNL     1       9.108   1.185  23.564  0.00  0.00    +0.169 A 
ATOM      7  N   UNL     1      10.225   1.859  24.013  0.00  0.00    -0.229 NA
ATOM      8  C   UNL     1      11.021   0.922  24.488  0.00  0.00    +0.199 A 
ATOM      9  C   UNL     1       7.899   1.569  22.981  0.00  0.00    +0.248 A 
ATOM     10  N   UNL     1      10.475  -0.325  24.355  0.00  0.00    -0.329 N 
ATOM     11  H   UNL     1      10.876  -1.205  24.641  0.00  0.00    +0.168 HD
ATOM     12  N   UNL     1       6.975   0.622  22.655  0.00  0.00    -0.177 NA
ENDROOT
BRANCH   1  16
ATOM     13  C   UNL     1       5.128  -5.059  24.775  0.00  0.00    +0.105 A 
ATOM     14  C   UNL     1       5.918  -5.164  23.627  0.00  0.00    +0.030 A 
ATOM     15  C   UNL     1       6.284  -4.011  22.930  0.00  0.00    +0.025 A 
ATOM     16  C   UNL     1       5.882  -2.745  23.377  0.00  0.00    +0.034 A 
ATOM     17  C   UNL     1       5.144  -2.664  24.570  0.00  0.00    +0.025 A 
ATOM     18  C   UNL     1       4.760  -3.811  25.269  0.00  0.00    +0.030 A 
BRANCH  13  19
ATOM     19  S   UNL     1       4.590  -6.532  25.584  0.00  0.00    +0.056 S 
ATOM     20  O   UNL     1       4.281  -7.537  24.595  0.00  0.00    -0.153 OA
ATOM     21  O   UNL     1       5.442  -6.794  26.721  0.00  0.00    -0.153 OA
BRANCH  19  22
ATOM     22  N   UNL     1       3.115  -6.032  26.214  0.00  0.00    -0.204 NA
ATOM     23  H   UNL     1       2.384  -6.708  25.996  0.00  0.00    +0.144 HD
ATOM     24  H   UNL     1       3.215  -5.828  27.208  0.00  0.00    +0.144 HD
ENDBRANCH  19  22
ENDBRANCH  13  19
ENDBRANCH   1  16
BRANCH   9  25
ATOM     25  O   UNL     1       7.668   2.896  22.682  0.00  0.00    -0.475 OA
BRANCH  25  26
ATOM     26  C   UNL     1       6.800   3.529  23.624  0.00  0.00    +0.234 C 
BRANCH  26  27
ATOM     27  C   UNL     1       6.262   4.839  23.002  0.00  0.00    +0.027 C 
ATOM     28  C   UNL     1       7.343   5.577  22.196  0.00  0.00    +0.007 C 
ATOM     29  C   UNL     1       8.414   6.214  23.083  0.00  0.00    +0.000 C 
ATOM     30  C   UNL     1       7.809   7.108  24.163  0.00  0.00    +0.000 C 
ATOM     31  C   UNL     1       6.718   6.400  24.962  0.00  0.00    +0.000 C 
ATOM     32  C   UNL     1       5.657   5.793  24.048  0.00  0.00    +0.007 C 
ENDBRANCH  26  27
ENDBRANCH  25  26
ENDBRANCH   9  25
TORSDOF 6
ENDMDL
MODEL 7
REMARK VINA RESULT:      -6.5      4.427      9.493
REMARK  Name = 
REMARK  6 active torsions:
REMARK  status: ('A' for Active; 'I' for Inactive)
REMARK    1  A    between atoms: N_1  and  S_2
REMARK    2  A    between atoms: S_2  and  C_5
REMARK    3  A    between atoms: C_8  and  N_9
REMARK    4  A    between atoms: C_12  and  O_13
REMARK    5  A    between atoms: O_13  and  C_14
REMARK    6  A    between atoms: C_14  and  C_15
REMARK                            x       y       z     vdW  Elec       q    Type
REMARK                         _______ _______ _______ _____ _____    ______ ____
ROOT
ATOM      1  N   UNL     1       8.060  -0.835  24.528  0.00  0.00    -0.283 N 
ATOM      2  H   UNL     1       8.984  -0.855  24.939  0.00  0.00    +0.155 HD
ATOM      3  C   UNL     1       7.765   0.459  24.092  0.00  0.00    +0.225 A 
ATOM      4  N   UNL     1       6.534   0.683  23.592  0.00  0.00    -0.195 NA
ATOM      5  C   UNL     1       6.358   1.938  23.188  0.00  0.00    +0.167 A 
ATOM      6  C   UNL     1       7.267   2.975  23.227  0.00  0.00    +0.169 A 
ATOM      7  N   UNL     1       6.711   4.118  22.689  0.00  0.00    -0.229 NA
ATOM      8  C   UNL     1       5.491   3.768  22.334  0.00  0.00    +0.199 A 
ATOM      9  C   UNL     1       8.514   2.649  23.763  0.00  0.00    +0.248 A 
ATOM     10  N   UNL     1       5.231   2.459  22.629  0.00  0.00    -0.329 N 
ATOM     11  H   UNL     1       4.378   1.948  22.456  0.00  0.00    +0.168 HD
ATOM     12  N   UNL     1       8.747   1.385  24.214  0.00  0.00    -0.177 NA
ENDROOT
BRANCH   1  16
ATOM     13  C   UNL     1       6.807  -4.412  22.684  0.00  0.00    +0.105 A 
ATOM     14  C   UNL     1       7.356  -3.378  21.922  0.00  0.00    +0.030 A 
ATOM     15  C   UNL     1       7.769  -2.200  22.548  0.00  0.00    +0.025 A 
ATOM     16  C   UNL     1       7.656  -2.048  23.937  0.00  0.00    +0.034 A 
ATOM     17  C   UNL     1       7.161  -3.130  24.686  0.00  0.00    +0.025 A 
ATOM     18  C   UNL     1       6.732  -4.308  24.070  0.00  0.00    +0.030 A 
BRANCH  13  19
ATOM     19  S   UNL     1       6.196  -5.850  21.863  0.00  0.00    +0.056 S 
ATOM     20  O   UNL     1       6.040  -5.570  20.457  0.00  0.00    -0.153 OA
ATOM     21  O   UNL     1       6.897  -7.016  22.353  0.00  0.00    -0.153 OA
BRANCH  19  22
ATOM     22  N   UNL     1       4.642  -5.943  22.493  0.00  0.00    -0.204 NA
ATOM     23  H   UNL     1       4.413  -5.097  23.011  0.00  0.00    +0.144 HD
ATOM     24  H   UNL     1       3.981  -6.172  21.750  0.00  0.00    +0.144 HD
ENDBRANCH  19  22
ENDBRANCH  13  19
ENDBRANCH   1  16
BRANCH   9  25
ATOM     25  O   UNL     1       9.486   3.621  23.890  0.00  0.00    -0.475 OA
BRANCH  25  26
ATOM     26  C   UNL     1       9.160   4.600  24.879  0.00  0.00    +0.234 C 
BRANCH  26  27
ATOM     27  C   UNL     1       9.426   6.006  24.294  0.00  0.00    +0.027 C 
ATOM     28  C   UNL     1      10.652   6.018  23.366  0.00  0.00    +0.007 C 
ATOM     29  C   UNL     1      11.972   5.875  24.125  0.00  0.00    +0.000 C 
ATOM     30  C   UNL     1      12.105   6.904  25.247  0.00  0.00    +0.000 C 
ATOM     31  C   UNL     1      10.887   6.922  26.167  0.00  0.00    +0.000 C 
ATOM     32  C   UNL     1       9.590   7.084  25.379  0.00  0.00    +0.007 C 
ENDBRANCH  26  27
ENDBRANCH  25  26
ENDBRANCH   9  25
TORSDOF 6
ENDMDL
MODEL 8
REMARK VINA RESULT:      -6.2      2.763      4.013
REMARK  Name = 
REMARK  6 active torsions:
REMARK  status: ('A' for Active; 'I' for Inactive)
REMARK    1  A    between atoms: N_1  and  S_2
REMARK    2  A    between atoms: S_2  and  C_5
REMARK    3  A    between atoms: C_8  and  N_9
REMARK    4  A    between atoms: C_12  and  O_13
REMARK    5  A    between atoms: O_13  and  C_14
REMARK    6  A    between atoms: C_14  and  C_15
REMARK                            x       y       z     vdW  Elec       q    Type
REMARK                         _______ _______ _______ _____ _____    ______ ____
ROOT
ATOM      1  N   UNL     1       6.513   0.067  23.727  0.00  0.00    -0.283 N 
ATOM      2  H   UNL     1       5.895   0.047  22.927  0.00  0.00    +0.155 HD
ATOM      3  C   UNL     1       6.830  -1.238  24.110  0.00  0.00    +0.225 A 
ATOM      4  N   UNL     1       7.581  -1.397  25.218  0.00  0.00    -0.195 NA
ATOM      5  C   UNL     1       7.844  -2.673  25.489  0.00  0.00    +0.167 A 
ATOM      6  C   UNL     1       7.444  -3.787  24.781  0.00  0.00    +0.169 A 
ATOM      7  N   UNL     1       7.944  -4.931  25.369  0.00  0.00    -0.229 NA
ATOM      8  C   UNL     1       8.630  -4.506  26.411  0.00  0.00    +0.199 A 
ATOM      9  C   UNL     1       6.668  -3.525  23.651  0.00  0.00    +0.248 A 
ATOM     10  N   UNL     1       8.586  -3.144  26.528  0.00  0.00    -0.329 N 
ATOM     11  H   UNL     1       9.030  -2.574  27.232  0.00  0.00    +0.168 HD
ATOM     12  N   UNL     1       6.348  -2.239  23.334  0.00  0.00    -0.177 NA
ENDROOT
BRANCH   1  16
ATOM     13  C   UNL     1       8.911   3.526  23.935  0.00  0.00    +0.105 A 
ATOM     14  C   UNL     1       7.731   3.438  24.676  0.00  0.00    +0.030 A 
ATOM     15  C   UNL     1       6.948   2.284  24.599  0.00  0.00    +0.025 A 
ATOM     16  C   UNL     1       7.342   1.204  23.798  0.00  0.00    +0.034 A 
ATOM     17  C   UNL     1       8.567   1.293  23.114  0.00  0.00    +0.025 A 
ATOM     18  C   UNL     1       9.352   2.448  23.174  0.00  0.00    +0.030 A 
BRANCH  13  19
ATOM     19  S   UNL     1       9.833   5.031  23.965  0.00  0.00    +0.056 S 
ATOM     20  O   UNL     1       9.537   5.750  25.181  0.00  0.00    -0.153 OA
ATOM     21  O   UNL     1      11.184   4.776  23.520  0.00  0.00    -0.153 OA
BRANCH  19  22
ATOM     22  N   UNL     1       9.089   5.889  22.727  0.00  0.00    -0.204 NA
ATOM     23  H   UNL     1       8.372   5.321  22.278  0.00  0.00    +0.144 HD
ATOM     24  H   UNL     1       8.754   6.786  23.080  0.00  0.00    +0.144 HD
ENDBRANCH  19  22
ENDBRANCH  13  19
ENDBRANCH   1  16
BRANCH   9  25
ATOM     25  O   UNL     1       6.178  -4.569  22.892  0.00  0.00    -0.475 OA
BRANCH  25  26
ATOM     26  C   UNL     1       4.756  -4.530  22.756  0.00  0.00    +0.234 C 
BRANCH  26  27
ATOM     27  C   UNL     1       4.184  -5.921  23.112  0.00  0.00    +0.027 C 
ATOM     28  C   UNL     1       2.647  -5.917  23.151  0.00  0.00    +0.007 C 
ATOM     29  C   UNL     1       2.086  -5.166  24.358  0.00  0.00    +0.000 C 
ATOM     30  C   UNL     1       2.680  -5.666  25.673  0.00  0.00    +0.000 C 
ATOM     31  C   UNL     1       4.206  -5.698  25.648  0.00  0.00    +0.000 C 
ATOM     32  C   UNL     1       4.732  -6.471  24.441  0.00  0.00    +0.007 C 
ENDBRANCH  26  27
ENDBRANCH  25  26
ENDBRANCH   9  25
TORSDOF 6
ENDMDL
MODEL 9
REMARK VINA RESULT:      -6.1      1.809      2.383
REMARK  Name = 
REMARK  6 active torsions:
REMARK  status: ('A' for Active; 'I' for Inactive)
REMARK    1  A    between atoms: N_1  and  S_2
REMARK    2  A    between atoms: S_2  and  C_5
REMARK    3  A    between atoms: C_8  and  N_9
REMARK    4  A    between atoms: C_12  and  O_13
REMARK    5  A    between atoms: O_13  and  C_14
REMARK    6  A    between atoms: C_14  and  C_15
REMARK                            x       y       z     vdW  Elec       q    Type
REMARK                         _______ _______ _______ _____ _____    ______ ____
ROOT
ATOM      1  N   UNL     1       8.830  -2.239  25.675  0.00  0.00    -0.283 N 
ATOM      2  H   UNL     1       8.787  -2.368  26.677  0.00  0.00    +0.155 HD
ATOM      3  C   UNL     1       8.098  -3.245  25.039  0.00  0.00    +0.225 A 
ATOM      4  N   UNL     1       8.118  -3.272  23.692  0.00  0.00    -0.195 NA
ATOM      5  C   UNL     1       7.378  -4.253  23.181  0.00  0.00    +0.167 A 
ATOM      6  C   UNL     1       6.630  -5.191  23.862  0.00  0.00    +0.169 A 
ATOM      7  N   UNL     1       5.982  -6.022  22.971  0.00  0.00    -0.229 NA
ATOM      8  C   UNL     1       6.337  -5.587  21.779  0.00  0.00    +0.199 A 
ATOM      9  C   UNL     1       6.672  -5.085  25.253  0.00  0.00    +0.248 A 
ATOM     10  N   UNL     1       7.192  -4.524  21.859  0.00  0.00    -0.329 N 
ATOM     11  H   UNL     1       7.604  -4.008  21.096  0.00  0.00    +0.168 HD
ATOM     12  N   UNL     1       7.430  -4.114  25.835  0.00  0.00    -0.177 NA
ENDROOT
BRANCH   1  16
ATOM     13  C   UNL     1       9.186   1.761  24.398  0.00  0.00    +0.105 A 
ATOM     14  C   UNL     1       7.986   1.296  24.942  0.00  0.00    +0.030 A 
ATOM     15  C   UNL     1       7.885  -0.031  25.363  0.00  0.00    +0.025 A 
ATOM     16  C   UNL     1       8.979  -0.901  25.263  0.00  0.00    +0.034 A 
ATOM     17  C   UNL     1      10.193  -0.389  24.773  0.00  0.00    +0.025 A 
ATOM     18  C   UNL     1      10.303   0.933  24.336  0.00  0.00    +0.030 A 
BRANCH  13  19
ATOM     19  S   UNL     1       9.263   3.411  23.776  0.00  0.00    +0.056 S 
ATOM     20  O   UNL     1      10.644   3.803  23.626  0.00  0.00    -0.153 OA
ATOM     21  O   UNL     1       8.288   3.573  22.722  0.00  0.00    -0.153 OA
BRANCH  19  22
ATOM     22  N   UNL     1       8.675   4.278  25.090  0.00  0.00    -0.204 NA
ATOM     23  H   UNL     1       7.896   3.786  25.524  0.00  0.00    +0.144 HD
ATOM     24  H   UNL     1       9.440   4.499  25.728  0.00  0.00    +0.144 HD
ENDBRANCH  19  22
ENDBRANCH  13  19
ENDBRANCH   1  16
BRANCH   9  25
ATOM     25  O   UNL     1       5.995  -5.999  26.035  0.00  0.00    -0.475 OA
BRANCH  25  26
ATOM     26  C   UNL     1       5.100  -5.377  26.959  0.00  0.00    +0.234 C 
BRANCH  26  27
ATOM     27  C   UNL     1       3.822  -4.947  26.200  0.00  0.00    +0.027 C 
ATOM     28  C   UNL     1       2.788  -4.303  27.138  0.00  0.00    +0.007 C 
ATOM     29  C   UNL     1       2.123  -5.316  28.071  0.00  0.00    +0.000 C 
ATOM     30  C   UNL     1       1.531  -6.499  27.308  0.00  0.00    +0.000 C 
ATOM     31  C   UNL     1       2.537  -7.139  26.355  0.00  0.00    +0.000 C 
ATOM     32  C   UNL     1       3.168  -6.105  25.426  0.00  0.00    +0.007 C 
ENDBRANCH  26  27
ENDBRANCH  25  26
ENDBRANCH   9  25
TORSDOF 6
ENDMDL
